REMARK  7 active torsions:
REMARK  status: ('A' for Active; 'I' for Inactive)
REMARK    1  A    between atoms: N_6  and  C_7 
REMARK    2  A    between atoms: C_7  and  C_8 
REMARK    3  A    between atoms: C_8  and  O_9 
REMARK    4  A    between atoms: C_8  and  C_10 
REMARK    5  A    between atoms: C_10  and  O_11 
REMARK    6  A    between atoms: O_11  and  C_12 
REMARK    7  A    between atoms: C_17  and  C_18 
ROOT
HETATM    1  C   UNL     1       7.237  -1.299  -0.147  1.00  0.00     0.161 C 
ENDROOT
BRANCH   1   2
HETATM    2  C   UNL     1       6.606   0.102  -0.085  1.00  0.00     0.166 C 
BRANCH   2   3
HETATM    3  N   UNL     1       5.148   0.069  -0.044  1.00  0.00    -0.307 N 
HETATM    4  C   UNL     1       4.422   0.077  -1.203  1.00  0.00     0.186 A 
HETATM    5  N   UNL     1       3.133   0.087  -1.271  1.00  0.00    -0.355 N 
HETATM    6  C   UNL     1       2.441   0.073  -0.088  1.00  0.00     0.017 A 
ATOM      7  HN  UNL     1       2.649   0.105  -2.169  1.00  0.00     0.166 HD
HETATM    8  C   UNL     1       0.943   0.136  -0.244  1.00  0.00     0.069 C 
HETATM    9  C   UNL     1       3.024   0.003   1.125  1.00  0.00     0.028 A 
HETATM   10  C   UNL     1       4.510  -0.029   1.173  1.00  0.00     0.256 A 
HETATM   11  C   UNL     1       2.277  -0.028   2.422  1.00  0.00     0.056 C 
HETATM   12  O   UNL     1       5.112  -0.123   2.240  1.00  0.00    -0.267 OA
ENDBRANCH   2   3
ENDBRANCH   1   2
BRANCH   1  13
HETATM   13  O   UNL     1       6.834  -1.926  -1.376  1.00  0.00    -0.392 OA
HETATM   14  H   UNL     1       7.446  -1.665  -2.083  1.00  0.00     0.210 HD
ENDBRANCH   1  13
BRANCH   1  15
HETATM   15  C   UNL     1       8.773  -1.184  -0.061  1.00  0.00     0.209 C 
BRANCH  15  16
HETATM   16  O   UNL     1       9.349  -2.491  -0.093  1.00  0.00    -0.348 OA
BRANCH  16  17
HETATM   17  C   UNL     1      10.711  -2.608  -0.044  1.00  0.00     0.084 A 
HETATM   18  C   UNL     1      11.592  -1.521   0.048  1.00  0.00     0.037 A 
HETATM   19  C   UNL     1      12.975  -1.722   0.097  1.00  0.00     0.003 A 
HETATM   20  C   UNL     1      13.496  -3.010   0.063  1.00  0.00     0.001 A 
HETATM   21  C   UNL     1      12.630  -4.096  -0.030  1.00  0.00     0.019 A 
HETATM   22  C   UNL     1      11.232  -3.912  -0.091  1.00  0.00     0.081 A 
BRANCH  22  23
HETATM   23  C   UNL     1      10.371  -5.148  -0.219  1.00  0.00     0.420 C 
HETATM   24  F   UNL     1       9.028  -4.952  -0.284  1.00  0.00    -0.166 F 
HETATM   25  F   UNL     1      10.687  -5.864  -1.339  1.00  0.00    -0.166 F 
HETATM   26  F   UNL     1      10.565  -6.010   0.823  1.00  0.00    -0.166 F 
ENDBRANCH  22  23
ENDBRANCH  16  17
ENDBRANCH  15  16
ENDBRANCH   1  15
TORSDOF 7
