REMARK  2 active torsions:
REMARK  status: ('A' for Active; 'I' for Inactive)
REMARK    1  A    between atoms: C_9  and  N_11 
REMARK       I    between atoms: N_11  and  C_12 
REMARK       I    between atoms: C_12  and  N_14 
REMARK    2  A    between atoms: N_14  and  C_15 
ROOT
HETATM    1  N   UNL     1       6.206  -0.042   0.396  1.00  0.00    -0.338 N 
HETATM    2  C   UNL     1       7.337   0.720   0.213  1.00  0.00     0.321 C 
HETATM    3  O   UNL     1       7.537   1.342  -0.816  1.00  0.00    -0.247 OA
HETATM    4  N   UNL     1       8.191   0.649   1.300  1.00  0.00    -0.309 N 
HETATM    5  H   UNL     1       5.895  -0.120   1.355  1.00  0.00     0.164 HD
HETATM    6  H   UNL     1       8.066  -0.154   1.900  1.00  0.00     0.170 HD
ENDROOT
BRANCH   1   7
HETATM    7  C   UNL     1       5.133  -0.033  -0.620  1.00  0.00     0.090 C 
HETATM    8  C   UNL     1       4.353  -1.346  -0.519  1.00  0.00     0.061 C 
HETATM    9  C   UNL     1       2.835  -1.258  -0.715  1.00  0.00     0.225 C 
HETATM   10  N   UNL     1       2.328  -0.069  -0.026  1.00  0.00     0.093 N 
HETATM   11  C   UNL     1       2.390  -1.363  -2.180  1.00  0.00     0.036 C 
HETATM   12  C   UNL     1       0.877  -0.086   0.136  1.00  0.00     0.310 C 
HETATM   13  C   UNL     1       2.805   1.135  -0.711  1.00  0.00     0.225 C 
HETATM   14  C   UNL     1       2.383   1.228  -2.185  1.00  0.00     0.036 C 
HETATM   15  C   UNL     1       4.315   1.261  -0.486  1.00  0.00     0.061 C 
HETATM   16  C   UNL     1       2.414  -0.070  -2.986  1.00  0.00     0.004 C 
ENDBRANCH   1   7
BRANCH   4  17
HETATM   17  C   UNL     1       9.421   1.344   1.392  1.00  0.00     0.039 A 
HETATM   18  C   UNL     1       9.684   2.483   0.638  1.00  0.00     0.046 A 
HETATM   19  C   UNL     1      10.944   3.043   0.702  1.00  0.00     0.090 A 
HETATM   20  N   UNL     1      11.939   2.558   1.469  1.00  0.00    -0.369 N 
HETATM   21  C   UNL     1      11.667   1.470   2.224  1.00  0.00     0.007 A 
ATOM     22  HN  UNL     1      12.861   2.994   1.480  1.00  0.00     0.165 HD
HETATM   23  C   UNL     1      12.804   0.914   3.026  1.00  0.00     0.068 C 
HETATM   24  C   UNL     1      10.414   0.857   2.242  1.00  0.00     0.054 A 
ENDBRANCH   4  17
TORSDOF 2
