REMARK  4 active torsions:
REMARK  status: ('A' for Active; 'I' for Inactive)
REMARK    1  A    between atoms: O_1  and  C_2 
REMARK    2  A    between atoms: C_2  and  C_4 
REMARK    3  A    between atoms: N_6  and  C_10 
REMARK    4  A    between atoms: C_16  and  C_17 
ROOT
HETATM    1  C   UNL     1       1.489   3.750  -0.036  1.00  0.00     0.118 A 
HETATM    2  N   UNL     1       2.568   4.411   0.455  1.00  0.00    -0.352 N 
ATOM      3  HN  UNL     1       3.507   4.147   0.157  1.00  0.00     0.166 HD
HETATM    4  C   UNL     1       2.396   5.419   1.339  1.00  0.00     0.089 A 
HETATM    5  C   UNL     1       1.162   5.861   1.749  1.00  0.00     0.018 A 
HETATM    6  C   UNL     1       0.053   5.213   1.233  1.00  0.00     0.021 A 
HETATM    7  C   UNL     1       0.199   4.125   0.344  1.00  0.00     0.091 A 
ENDROOT
BRANCH   1   8
HETATM    8  N   UNL     1       1.759   2.635  -0.811  1.00  0.00    -0.362 N 
HETATM    9  C   UNL     1       3.112   2.060  -0.677  1.00  0.00     0.167 C 
HETATM   10  C   UNL     1       3.052   0.575  -1.063  1.00  0.00     0.236 C 
HETATM   11  O   UNL     1       2.404   0.332  -2.340  1.00  0.00    -0.372 OA
HETATM   12  C   UNL     1       1.184   1.081  -2.550  1.00  0.00     0.189 C 
HETATM   13  C   UNL     1       1.315   2.577  -2.207  1.00  0.00     0.151 C 
BRANCH  10  14
HETATM   14  C   UNL     1       2.481  -0.251   0.097  1.00  0.00     0.171 C 
HETATM   15  O   UNL     1       2.756  -0.097   1.277  1.00  0.00    -0.648 OA
BRANCH  14  16
HETATM   16  O   UNL     1       1.680  -1.260  -0.337  1.00  0.00    -0.774 OA
HETATM   17  H   UNL     1       1.632  -1.232  -1.315  1.00  0.00     0.167 HD
ENDBRANCH  14  16
ENDBRANCH  10  14
ENDBRANCH   1   8
BRANCH   7  18
HETATM   18  C   UNL     1      -1.062   3.406  -0.038  1.00  0.00     0.421 C 
HETATM   19  F   UNL     1      -0.940   2.257  -0.757  1.00  0.00    -0.166 F 
HETATM   20  F   UNL     1      -1.807   3.058   1.053  1.00  0.00    -0.166 F 
HETATM   21  F   UNL     1      -1.882   4.206  -0.785  1.00  0.00    -0.166 F 
ENDBRANCH   7  18
TORSDOF 4
