REMARK  4 active torsions:
REMARK  status: ('A' for Active; 'I' for Inactive)
REMARK       I    between atoms: N_2  and  C_3 
REMARK    1  A    between atoms: C_3  and  C_5 
REMARK    2  A    between atoms: N_10  and  C_11 
REMARK    3  A    between atoms: C_11  and  C_12 
REMARK       I    between atoms: C_12  and  N_14 
REMARK    4  A    between atoms: N_14  and  C_15 
ROOT
HETATM    1  C   UNL     1       7.422   0.451  -2.341  1.00  0.00     0.234 C 
ENDROOT
BRANCH   1   2
HETATM    2  N   UNL     1       7.684   1.497  -1.362  1.00  0.00    -0.315 N 
HETATM    3  C   UNL     1       8.808   2.290  -1.555  1.00  0.00     0.247 A 
HETATM    4  C   UNL     1       9.090   3.282  -0.486  1.00  0.00     0.075 A 
HETATM    5  O   UNL     1       9.559   2.207  -2.523  1.00  0.00    -0.268 OA
HETATM    6  C   UNL     1       8.238   3.438   0.536  1.00  0.00     0.024 A 
HETATM    7  C   UNL     1       7.016   2.661   0.613  1.00  0.00     0.047 A 
HETATM    8  C   UNL     1       6.798   1.704  -0.308  1.00  0.00     0.111 A 
BRANCH   7   9
HETATM    9  C   UNL     1       6.011   2.831   1.717  1.00  0.00     0.252 C 
HETATM   10  N   UNL     1       5.974   4.093   2.269  1.00  0.00    -0.361 N 
HETATM   11  C   UNL     1       5.014   4.434   3.289  1.00  0.00     0.149 C 
HETATM   12  H   UNL     1       6.473   4.847   1.821  1.00  0.00     0.162 HD
HETATM   13  O   UNL     1       5.268   1.920   2.067  1.00  0.00    -0.268 OA
ENDBRANCH   7   9
ENDBRANCH   1   2
BRANCH   1  14
HETATM   14  C   UNL     1       6.458   0.923  -3.418  1.00  0.00     0.236 C 
HETATM   15  O   UNL     1       5.240   0.836  -3.260  1.00  0.00    -0.272 OA
HETATM   16  N   UNL     1       7.029   1.467  -4.557  1.00  0.00    -0.355 N 
HETATM   17  H   UNL     1       8.012   1.740  -4.535  1.00  0.00     0.162 HD
BRANCH  16  18
HETATM   18  C   UNL     1       6.180   1.839  -5.687  1.00  0.00     0.084 C 
HETATM   19  C   UNL     1       6.933   1.772  -7.022  1.00  0.00     0.025 C 
HETATM   20  C   UNL     1       6.049   1.720  -8.280  1.00  0.00     0.002 C 
HETATM   21  C   UNL     1       4.806   0.830  -8.173  1.00  0.00     0.000 C 
HETATM   22  C   UNL     1       3.491   1.568  -7.887  1.00  0.00     0.000 C 
HETATM   23  C   UNL     1       3.329   2.296  -6.547  1.00  0.00     0.000 C 
HETATM   24  C   UNL     1       4.273   3.483  -6.333  1.00  0.00     0.002 C 
HETATM   25  C   UNL     1       5.494   3.192  -5.450  1.00  0.00     0.025 C 
ENDBRANCH  16  18
ENDBRANCH   1  14
TORSDOF 4
