REMARK  4 active torsions:
REMARK  status: ('A' for Active; 'I' for Inactive)
REMARK    1  A    between atoms: C_2  and  N_3 
REMARK    2  A    between atoms: C_6  and  C_7 
REMARK    3  A    between atoms: C_7  and  N_8 
REMARK       I    between atoms: N_8  and  C_9 
REMARK       I    between atoms: C_9  and  N_11 
REMARK    4  A    between atoms: N_11  and  C_12 
ROOT
HETATM    1  N   UNL     1       4.953   0.204   3.511  1.00  0.00    -0.342 N 
HETATM    2  C   UNL     1       6.149  -0.185   4.059  1.00  0.00     0.320 C 
HETATM    3  O   UNL     1       6.329  -0.230   5.273  1.00  0.00    -0.247 OA
HETATM    4  N   UNL     1       7.094  -0.457   3.100  1.00  0.00    -0.306 N 
HETATM    5  H   UNL     1       4.755   0.018   2.531  1.00  0.00     0.164 HD
HETATM    6  H   UNL     1       6.905  -0.164   2.155  1.00  0.00     0.171 HD
ENDROOT
BRANCH   1   7
HETATM    7  C   UNL     1       3.865   0.700   4.325  1.00  0.00     0.130 C 
BRANCH   7   8
HETATM    8  C   UNL     1       2.471   0.421   3.753  1.00  0.00     0.033 C 
HETATM    9  C   UNL     1       2.190  -1.072   3.607  1.00  0.00     0.038 C 
HETATM   10  C   UNL     1       2.489  -1.405   2.147  1.00  0.00     0.273 C 
HETATM   11  N   UNL     1       2.851  -0.133   1.498  1.00  0.00     0.088 N 
HETATM   12  C   UNL     1       2.275   0.934   2.332  1.00  0.00     0.278 C 
BRANCH  11  13
HETATM   13  C   UNL     1       2.374  -0.037   0.114  1.00  0.00     0.268 C 
HETATM   14  C   UNL     1       3.039  -1.053  -0.806  1.00  0.00     0.037 C 
ENDBRANCH  11  13
ENDBRANCH   7   8
ENDBRANCH   1   7
BRANCH   4  15
HETATM   15  C   UNL     1       8.383  -0.848   3.410  1.00  0.00     0.070 A 
HETATM   16  C   UNL     1       8.946  -1.303   4.623  1.00  0.00     0.138 A 
HETATM   17  N   UNL     1      10.255  -1.554   4.516  1.00  0.00    -0.310 N 
HETATM   18  N   UNL     1      10.528  -1.241   3.240  1.00  0.00    -0.310 N 
ATOM     19  HN  UNL     1      10.893  -1.900   5.232  1.00  0.00     0.186 HD
HETATM   20  C   UNL     1       9.432  -0.852   2.524  1.00  0.00     0.138 A 
HETATM   21  H   UNL     1      11.491  -1.312   2.929  1.00  0.00     0.186 HD
ENDBRANCH   4  15
TORSDOF 4
