REMARK  6 active torsions:
REMARK  status: ('A' for Active; 'I' for Inactive)
REMARK    1  A    between atoms: C_2  and  C_3 
REMARK    2  A    between atoms: C_2  and  N_10 
REMARK    3  A    between atoms: C_3  and  N_4 
REMARK    4  A    between atoms: N_10  and  C_11 
REMARK    5  A    between atoms: C_11  and  C_12 
REMARK       I    between atoms: C_12  and  N_14 
REMARK    6  A    between atoms: N_14  and  C_15 
ROOT
HETATM    1  N   UNL     1       3.096  -1.000   1.025  1.00  0.00     0.098 N 
HETATM    2  H   UNL     1       2.711  -1.899   0.716  1.00  0.00     0.317 HD
ENDROOT
BRANCH   1   3
HETATM    3  C   UNL     1       2.581   0.045   0.105  1.00  0.00     0.236 C 
HETATM    4  C   UNL     1       1.050  -0.045   0.191  1.00  0.00     0.044 C 
BRANCH   3   5
HETATM    5  C   UNL     1       3.075   1.466   0.452  1.00  0.00     0.183 C 
BRANCH   5   6
HETATM    6  N   UNL     1       2.538   2.506  -0.406  1.00  0.00    -0.302 N 
HETATM    7  C   UNL     1       1.850   3.617  -0.010  1.00  0.00     0.111 A 
HETATM    8  C   UNL     1       1.587   4.331  -1.156  1.00  0.00     0.037 A 
HETATM    9  C   UNL     1       2.160   3.569  -2.190  1.00  0.00     0.108 A 
HETATM   10  N   UNL     1       2.747   2.457  -1.736  1.00  0.00    -0.310 N 
ATOM     11  HN  UNL     1       3.238   1.740  -2.271  1.00  0.00     0.186 HD
ENDBRANCH   5   6
ENDBRANCH   3   5
ENDBRANCH   1   3
BRANCH   1  12
HETATM   12  C   UNL     1       4.572  -1.137   0.986  1.00  0.00     0.372 C 
BRANCH  12  13
HETATM   13  C   UNL     1       5.006  -2.218   1.990  1.00  0.00     0.246 C 
HETATM   14  O   UNL     1       6.033  -2.873   1.864  1.00  0.00    -0.272 OA
HETATM   15  N   UNL     1       4.158  -2.294   3.076  1.00  0.00    -0.355 N 
HETATM   16  H   UNL     1       3.279  -1.803   2.937  1.00  0.00     0.162 HD
BRANCH  15  17
HETATM   17  C   UNL     1       4.321  -3.196   4.210  1.00  0.00     0.088 C 
HETATM   18  C   UNL     1       3.147  -3.023   5.182  1.00  0.00     0.051 C 
HETATM   19  C   UNL     1       3.232  -1.677   5.896  1.00  0.00     0.169 C 
HETATM   20  O   UNL     1       4.482  -1.531   6.568  1.00  0.00    -0.391 OA
HETATM   21  C   UNL     1       5.593  -1.602   5.672  1.00  0.00     0.169 C 
HETATM   22  C   UNL     1       5.628  -2.953   4.973  1.00  0.00     0.051 C 
ENDBRANCH  15  17
ENDBRANCH  12  13
ENDBRANCH   1  12
TORSDOF 6
