REMARK  7 active torsions:
REMARK  status: ('A' for Active; 'I' for Inactive)
REMARK    1  A    between atoms: C_2  and  C_3 
REMARK    2  A    between atoms: C_3  and  C_4 
REMARK    3  A    between atoms: C_4  and  N_5 
REMARK       I    between atoms: N_5  and  C_6 
REMARK    4  A    between atoms: C_6  and  C_8 
REMARK    5  A    between atoms: C_8  and  N_9 
REMARK       I    between atoms: N_9  and  C_10 
REMARK    6  A    between atoms: C_10  and  C_12 
REMARK    7  A    between atoms: C_12  and  N_13 
ROOT
HETATM    1  N   UNL     1       7.217  -5.180   0.679  1.00  0.00    -0.351 N 
HETATM    2  C   UNL     1       6.131  -5.786   1.271  1.00  0.00     0.237 C 
HETATM    3  O   UNL     1       5.010  -5.756   0.761  1.00  0.00    -0.272 OA
HETATM    4  H   UNL     1       8.052  -4.995   1.226  1.00  0.00     0.163 HD
ENDROOT
BRANCH   1   5
HETATM    5  C   UNL     1       7.075  -4.448  -0.568  1.00  0.00     0.225 C 
BRANCH   5   6
HETATM    6  C   UNL     1       6.664  -2.997  -0.323  1.00  0.00     0.235 C 
HETATM    7  N   UNL     1       5.301  -2.798  -0.281  1.00  0.00    -0.360 N 
HETATM    8  H   UNL     1       4.694  -3.614  -0.305  1.00  0.00     0.162 HD
HETATM    9  O   UNL     1       7.490  -2.113  -0.113  1.00  0.00    -0.272 OA
BRANCH   7  10
HETATM   10  C   UNL     1       4.701  -1.491  -0.108  1.00  0.00     0.122 C 
BRANCH  10  11
HETATM   11  C   UNL     1       4.481  -0.769  -1.440  1.00  0.00     0.019 C 
BRANCH  11  12
HETATM   12  C   UNL     1       3.504  -1.512  -2.356  1.00  0.00    -0.003 C 
HETATM   13  C   UNL     1       3.275  -0.765  -3.661  1.00  0.00     0.005 C 
ENDBRANCH  11  12
ENDBRANCH  10  11
ENDBRANCH   7  10
ENDBRANCH   5   6
ENDBRANCH   1   5
BRANCH   2  14
HETATM   14  C   UNL     1       6.426  -6.530   2.553  1.00  0.00     0.252 C 
BRANCH  14  15
HETATM   15  N   UNL     1       5.608  -6.062   3.647  1.00  0.00    -0.278 N 
HETATM   16  C   UNL     1       4.255  -6.128   3.775  1.00  0.00     0.201 A 
HETATM   17  N   UNL     1       3.903  -5.662   4.951  1.00  0.00    -0.346 N 
HETATM   18  C   UNL     1       5.098  -5.328   5.521  1.00  0.00     0.198 A 
ATOM     19  HN  UNL     1       2.966  -5.572   5.343  1.00  0.00     0.167 HD
HETATM   20  N   UNL     1       6.175  -5.567   4.766  1.00  0.00    -0.293 N 
ATOM     21  HN  UNL     1       7.161  -5.416   4.979  1.00  0.00     0.188 HD
ENDBRANCH  14  15
ENDBRANCH   2  14
TORSDOF 7
