REMARK  2 active torsions:
REMARK  status: ('A' for Active; 'I' for Inactive)
REMARK    1  A    between atoms: C_6  and  N_8 
REMARK    2  A    between atoms: C_14  and  C_15 
ROOT
HETATM    1  N   UNL     3       3.342  -0.726   0.851  1.00  0.00    -0.326 N 
HETATM    2  C   UNL     3       4.071  -0.544   1.978  1.00  0.00     0.201 A 
HETATM    3  N   UNL     3       4.267  -1.704   2.626  1.00  0.00    -0.295 N 
ATOM      4  HN  UNL     3       4.784  -1.832   3.496  1.00  0.00     0.187 HD
HETATM    5  N   UNL     3       3.664  -2.648   1.925  1.00  0.00    -0.287 N 
ATOM      6  HN  UNL     3       3.635  -3.641   2.154  1.00  0.00     0.188 HD
HETATM    7  C   UNL     3       3.093  -2.063   0.852  1.00  0.00     0.105 A 
ENDROOT
BRANCH   7   8
HETATM    8  C   UNL     3       2.317  -2.849  -0.195  1.00  0.00     0.083 C 
HETATM    9  C   UNL     3       1.069  -3.578   0.348  1.00  0.00     0.016 C 
HETATM   10  C   UNL     3       1.442  -4.734   1.284  1.00  0.00     0.031 C 
HETATM   11  C   UNL     3       2.434  -5.672   0.582  1.00  0.00     0.269 C 
HETATM   12  N   UNL     3       3.621  -4.927   0.129  1.00  0.00     0.084 N 
HETATM   13  C   UNL     3       3.250  -3.889  -0.846  1.00  0.00     0.281 C 
HETATM   14  H   UNL     3       4.282  -5.599  -0.327  1.00  0.00     0.315 HD
ENDBRANCH   7   8
BRANCH   1  15
HETATM   15  C   UNL     3       2.922   0.320  -0.114  1.00  0.00     0.084 C 
HETATM   16  C   UNL     3       3.329   1.733   0.353  1.00  0.00     0.032 C 
HETATM   17  C   UNL     3       3.534   0.099  -1.509  1.00  0.00     0.032 C 
ENDBRANCH   1  15
TORSDOF 2
