REMARK  4 active torsions:
REMARK  status: ('A' for Active; 'I' for Inactive)
REMARK       I    between atoms: C_2  and  N_4 
REMARK    1  A    between atoms: C_8  and  C_10 
REMARK       I    between atoms: C_10  and  N_12 
REMARK    2  A    between atoms: N_12  and  C_13 
REMARK    3  A    between atoms: C_13  and  C_14 
REMARK    4  A    between atoms: C_14  and  C_15 
ROOT
HETATM    1  C   UNL     1       3.701  -4.762   0.961  1.00  0.00     0.223 C 
HETATM    2  O   UNL     1       4.140  -4.480   2.071  1.00  0.00    -0.273 OA
HETATM    3  N   UNL     1       3.488  -6.062   0.556  1.00  0.00    -0.360 N 
HETATM    4  H   UNL     1       3.036  -6.241  -0.331  1.00  0.00     0.162 HD
ENDROOT
BRANCH   1   5
HETATM    5  C   UNL     1       3.317  -3.709  -0.073  1.00  0.00     0.096 C 
HETATM    6  C   UNL     1       4.169  -3.825  -1.344  1.00  0.00     0.017 C 
HETATM    7  C   UNL     1       3.896  -2.668  -2.306  1.00  0.00     0.021 C 
HETATM    8  C   UNL     1       4.049  -1.314  -1.619  1.00  0.00     0.126 C 
HETATM    9  N   UNL     1       3.216  -1.252  -0.424  1.00  0.00    -0.352 N 
HETATM   10  C   UNL     1       2.646  -0.028  -0.084  1.00  0.00     0.215 C 
HETATM   11  C   UNL     1       3.456  -2.317   0.552  1.00  0.00     0.139 C 
HETATM   12  C   UNL     1       1.635  -0.034   1.035  1.00  0.00     0.117 C 
HETATM   13  O   UNL     1       2.867   1.007  -0.713  1.00  0.00    -0.274 OA
ENDBRANCH   1   5
BRANCH   3  14
HETATM   14  C   UNL     1       3.763  -7.167   1.458  1.00  0.00     0.127 C 
BRANCH  14  15
HETATM   15  C   UNL     1       3.455  -8.521   0.823  1.00  0.00     0.059 C 
BRANCH  15  16
HETATM   16  C   UNL     1       3.783  -9.666   1.740  1.00  0.00    -0.041 A 
HETATM   17  C   UNL     1       2.830 -10.205   2.608  1.00  0.00     0.010 A 
HETATM   18  C   UNL     1       3.180 -11.257   3.449  1.00  0.00     0.018 A 
HETATM   19  C   UNL     1       4.478 -11.738   3.396  1.00  0.00     0.087 A 
HETATM   20  N   UNL     1       5.428 -11.238   2.577  1.00  0.00    -0.375 N 
HETATM   21  C   UNL     1       5.062 -10.215   1.774  1.00  0.00     0.094 A 
ATOM     22  HN  UNL     1       6.376 -11.614   2.565  1.00  0.00     0.164 HD
ENDBRANCH  15  16
ENDBRANCH  14  15
ENDBRANCH   3  14
TORSDOF 4
