REMARK  4 active torsions:
REMARK  status: ('A' for Active; 'I' for Inactive)
REMARK    1  A    between atoms: C_2  and  C_3 
REMARK    2  A    between atoms: C_2  and  N_10 
REMARK    3  A    between atoms: C_3  and  N_4 
REMARK       I    between atoms: N_10  and  C_11 
REMARK    4  A    between atoms: C_11  and  C_13 
REMARK       I    between atoms: N_17  and  C_19 
REMARK       I    between atoms: C_19  and  N_21 
ROOT
HETATM    1  N   UNL     1       3.019  -1.518  -0.269  1.00  0.00    -0.355 N 
HETATM    2  C   UNL     1       4.296  -1.602  -0.772  1.00  0.00     0.223 C 
HETATM    3  O   UNL     1       4.773  -0.697  -1.461  1.00  0.00    -0.273 OA
HETATM    4  H   UNL     1       2.724  -2.171   0.444  1.00  0.00     0.162 HD
ENDROOT
BRANCH   2   5
HETATM    5  C   UNL     1       5.160  -2.813  -0.420  1.00  0.00     0.096 C 
HETATM    6  C   UNL     1       4.475  -4.177  -0.222  1.00  0.00     0.017 C 
HETATM    7  C   UNL     1       4.105  -4.526   1.226  1.00  0.00     0.021 C 
HETATM    8  C   UNL     1       5.201  -4.145   2.215  1.00  0.00     0.127 C 
HETATM    9  N   UNL     1       5.561  -2.745   2.021  1.00  0.00    -0.338 N 
HETATM   10  C   UNL     1       6.132  -2.456   0.709  1.00  0.00     0.141 C 
HETATM   11  C   UNL     1       5.156  -1.692   2.805  1.00  0.00     0.294 C 
HETATM   12  O   UNL     1       5.304  -0.511   2.515  1.00  0.00    -0.254 OA
HETATM   13  N   UNL     1       4.511  -2.005   3.953  1.00  0.00    -0.254 NA
HETATM   14  H   UNL     1       4.878  -2.774   4.491  1.00  0.00     0.128 HD
HETATM   15  H   UNL     1       4.326  -1.181   4.513  1.00  0.00     0.128 HD
ENDBRANCH   2   5
BRANCH   1  16
HETATM   16  C   UNL     1       2.247  -0.269  -0.425  1.00  0.00     0.100 C 
HETATM   17  C   UNL     1       0.752  -0.578  -0.501  1.00  0.00     0.034 C 
BRANCH  16  18
HETATM   18  C   UNL     1       2.597   0.735   0.690  1.00  0.00     0.172 C 
BRANCH  18  19
HETATM   19  N   UNL     1       2.006   2.048   0.497  1.00  0.00    -0.302 N 
HETATM   20  C   UNL     1       2.579   3.119  -0.127  1.00  0.00     0.111 A 
HETATM   21  C   UNL     1       1.661   4.139  -0.059  1.00  0.00     0.037 A 
HETATM   22  C   UNL     1       0.567   3.591   0.639  1.00  0.00     0.108 A 
HETATM   23  N   UNL     1       0.781   2.319   0.991  1.00  0.00    -0.310 N 
ATOM     24  HN  UNL     1       0.162   1.698   1.512  1.00  0.00     0.186 HD
ENDBRANCH  18  19
ENDBRANCH  16  18
ENDBRANCH   1  16
TORSDOF 4
