REMARK  4 active torsions:
REMARK  status: ('A' for Active; 'I' for Inactive)
REMARK    1  A    between atoms: C_2  and  N_4 
REMARK       I    between atoms: N_7  and  C_10 
REMARK       I    between atoms: C_10  and  N_12 
REMARK    2  A    between atoms: N_12  and  C_13 
REMARK    3  A    between atoms: C_13  and  C_14 
REMARK    4  A    between atoms: C_14  and  C_15 
ROOT
HETATM    1  N   UNL     1       3.124  -0.023   1.327  1.00  0.00     0.095 N 
HETATM    2  C   UNL     1       4.226   0.951   1.541  1.00  0.00     0.292 C 
HETATM    3  C   UNL     1       5.569   0.590   0.865  1.00  0.00     0.158 C 
HETATM    4  N   UNL     1       5.989  -0.781   1.181  1.00  0.00    -0.331 N 
HETATM    5  C   UNL     1       4.935  -1.788   1.039  1.00  0.00     0.158 C 
HETATM    6  C   UNL     1       3.639  -1.353   1.748  1.00  0.00     0.292 C 
HETATM    7  C   UNL     1       7.235  -1.182   1.626  1.00  0.00     0.318 C 
HETATM    8  O   UNL     1       7.479  -2.327   1.997  1.00  0.00    -0.247 OA
HETATM    9  N   UNL     1       8.194  -0.200   1.634  1.00  0.00    -0.343 N 
HETATM   10  H   UNL     1       8.127   0.425   0.846  1.00  0.00     0.164 HD
ENDROOT
BRANCH   9  11
HETATM   11  C   UNL     1       9.552  -0.521   2.061  1.00  0.00     0.130 C 
BRANCH  11  12
HETATM   12  C   UNL     1      10.423   0.731   2.138  1.00  0.00     0.077 C 
BRANCH  12  13
HETATM   13  C   UNL     1      11.817   0.444   2.593  1.00  0.00     0.018 A 
HETATM   14  C   UNL     1      12.281   0.468   3.894  1.00  0.00     0.076 A 
HETATM   15  S   UNL     1      13.957   0.123   3.930  1.00  0.00    -0.087 SA
HETATM   16  C   UNL     1      13.949  -0.037   2.220  1.00  0.00     0.046 A 
HETATM   17  C   UNL     1      15.203  -0.360   1.485  1.00  0.00     0.076 C 
HETATM   18  N   UNL     1      12.782   0.151   1.641  1.00  0.00    -0.357 N 
ATOM     19  HN  UNL     1      12.612   0.090   0.637  1.00  0.00     0.166 HD
ENDBRANCH  12  13
ENDBRANCH  11  12
ENDBRANCH   9  11
BRANCH   1  20
HETATM   20  C   UNL     1       2.561  -0.011  -0.045  1.00  0.00     0.215 C 
HETATM   21  C   UNL     1       1.382  -0.993  -0.181  1.00  0.00     0.042 C 
HETATM   22  C   UNL     1       2.026   1.375  -0.450  1.00  0.00     0.042 C 
ENDBRANCH   1  20
TORSDOF 4
