REMARK  5 active torsions:
REMARK  status: ('A' for Active; 'I' for Inactive)
REMARK    1  A    between atoms: C_7  and  N_8 
REMARK       I    between atoms: N_8  and  C_9 
REMARK       I    between atoms: C_9  and  N_11 
REMARK    2  A    between atoms: N_11  and  C_12 
REMARK    3  A    between atoms: C_12  and  C_17 
REMARK       I    between atoms: C_17  and  N_19 
REMARK    4  A    between atoms: N_19  and  C_20 
REMARK    5  A    between atoms: C_20  and  C_21 
ROOT
HETATM    1  N   UNL     1       5.557   2.501  -0.311  1.00  0.00    -0.308 N 
HETATM    2  C   UNL     1       6.925   2.504  -0.448  1.00  0.00     0.321 C 
HETATM    3  O   UNL     1       7.599   1.597  -0.918  1.00  0.00    -0.247 OA
HETATM    4  N   UNL     1       7.512   3.652   0.038  1.00  0.00    -0.325 N 
HETATM    5  H   UNL     1       5.118   3.355  -0.001  1.00  0.00     0.170 HD
HETATM    6  H   UNL     1       7.006   4.509  -0.133  1.00  0.00     0.165 HD
ENDROOT
BRANCH   4   7
HETATM    7  C   UNL     1       8.984   3.782   0.039  1.00  0.00     0.115 C 
HETATM    8  C   UNL     1       9.690   2.607   0.757  1.00  0.00     0.041 C 
HETATM    9  C   UNL     1      10.873   3.185   1.530  1.00  0.00     0.003 C 
HETATM   10  C   UNL     1      10.841   4.685   1.299  1.00  0.00     0.003 C 
HETATM   11  C   UNL     1       9.400   4.985   0.910  1.00  0.00     0.041 C 
BRANCH   7  12
HETATM   12  C   UNL     1       9.459   4.037  -1.429  1.00  0.00     0.246 C 
HETATM   13  O   UNL     1       9.462   5.166  -1.926  1.00  0.00    -0.271 OA
HETATM   14  N   UNL     1       9.750   2.914  -2.169  1.00  0.00    -0.359 N 
HETATM   15  H   UNL     1       9.280   2.055  -1.883  1.00  0.00     0.162 HD
BRANCH  14  16
HETATM   16  C   UNL     1      10.219   3.000  -3.531  1.00  0.00     0.127 C 
BRANCH  16  17
HETATM   17  C   UNL     1      11.170   1.876  -3.808  1.00  0.00     0.003 A 
HETATM   18  C   UNL     1      12.445   1.720  -3.012  1.00  0.00     0.007 A 
HETATM   19  C   UNL     1      12.510   2.158  -4.446  1.00  0.00     0.007 A 
ENDBRANCH  16  17
ENDBRANCH  14  16
ENDBRANCH   7  12
ENDBRANCH   4   7
BRANCH   1  20
HETATM   20  C   UNL     1       4.715   1.408  -0.632  1.00  0.00     0.052 A 
HETATM   21  C   UNL     1       5.176   0.123  -0.920  1.00  0.00     0.117 A 
HETATM   22  N   UNL     1       4.383  -0.924  -1.253  1.00  0.00    -0.373 N 
HETATM   23  C   UNL     1       3.060  -0.686  -1.310  1.00  0.00     0.094 A 
ATOM     24  HN  UNL     1       4.770  -1.847  -1.451  1.00  0.00     0.164 HD
HETATM   25  C   UNL     1       2.480   0.545  -1.028  1.00  0.00    -0.044 A 
HETATM   26  C   UNL     1       0.998   0.725  -1.129  1.00  0.00     0.049 C 
HETATM   27  C   UNL     1       3.330   1.601  -0.666  1.00  0.00     0.039 A 
ENDBRANCH   1  20
TORSDOF 5
