REMARK  6 active torsions:
REMARK  status: ('A' for Active; 'I' for Inactive)
REMARK    1  A    between atoms: C_2  and  C_4 
REMARK    2  A    between atoms: C_4  and  O_5 
REMARK    3  A    between atoms: C_4  and  C_12 
REMARK    4  A    between atoms: O_5  and  C_6 
REMARK    5  A    between atoms: C_6  and  C_7 
REMARK       I    between atoms: C_12  and  N_14 
REMARK    6  A    between atoms: N_14  and  C_15 
ROOT
HETATM    1  C   UNL     1       3.185  -1.475   0.147  1.00  0.00     0.216 C 
ENDROOT
BRANCH   1   2
HETATM    2  C   UNL     1       2.583  -0.036   0.173  1.00  0.00     0.016 C 
HETATM    3  C   UNL     1       1.053  -0.015   0.174  1.00  0.00     0.012 C 
HETATM    4  C   UNL     1       3.088   0.758   1.391  1.00  0.00     0.012 C 
ENDBRANCH   1   2
BRANCH   1   5
HETATM    5  O   UNL     1       2.617  -2.228  -0.945  1.00  0.00    -0.374 OA
BRANCH   5   6
HETATM    6  C   UNL     1       3.061  -3.588  -0.979  1.00  0.00     0.200 C 
BRANCH   6   7
HETATM    7  C   UNL     1       2.498  -4.404  -2.138  1.00  0.00     0.145 C 
HETATM    8  C   UNL     1       0.995  -4.606  -2.126  1.00  0.00     0.036 C 
HETATM    9  C   UNL     1       0.800  -6.031  -2.615  1.00  0.00     0.029 C 
HETATM   10  C   UNL     1       2.196  -6.565  -2.852  1.00  0.00     0.168 C 
HETATM   11  O   UNL     1       3.062  -5.730  -2.084  1.00  0.00    -0.384 OA
ENDBRANCH   6   7
ENDBRANCH   5   6
ENDBRANCH   1   5
BRANCH   1  12
HETATM   12  C   UNL     1       4.737  -1.340   0.063  1.00  0.00     0.252 C 
HETATM   13  O   UNL     1       5.278  -0.389  -0.496  1.00  0.00    -0.270 OA
HETATM   14  N   UNL     1       5.427  -2.391   0.646  1.00  0.00    -0.311 N 
HETATM   15  H   UNL     1       4.977  -3.294   0.651  1.00  0.00     0.170 HD
BRANCH  14  16
HETATM   16  C   UNL     1       6.807  -2.504   0.467  1.00  0.00     0.107 A 
HETATM   17  C   UNL     1       7.659  -1.458   0.791  1.00  0.00     0.048 A 
HETATM   18  C   UNL     1       9.019  -1.619   0.558  1.00  0.00     0.005 A 
HETATM   19  C   UNL     1       9.469  -2.794  -0.029  1.00  0.00     0.017 A 
HETATM   20  C   UNL     1       8.541  -3.784  -0.313  1.00  0.00     0.089 A 
HETATM   21  N   UNL     1       7.224  -3.684  -0.030  1.00  0.00    -0.352 N 
ATOM     22  HN  UNL     1       6.580  -4.460  -0.184  1.00  0.00     0.166 HD
ENDBRANCH  14  16
ENDBRANCH   1  12
TORSDOF 6
