REMARK  6 active torsions:
REMARK  status: ('A' for Active; 'I' for Inactive)
REMARK    1  A    between atoms: C_2  and  C_3 
REMARK    2  A    between atoms: C_2  and  N_11 
REMARK    3  A    between atoms: C_3  and  N_4 
REMARK    4  A    between atoms: N_11  and  C_12 
REMARK    5  A    between atoms: C_12  and  C_13 
REMARK    6  A    between atoms: C_13  and  O_14 
ROOT
HETATM    1  N   UNL     1       2.878   1.024   0.953  1.00  0.00     0.092 N 
HETATM    2  H   UNL     1       2.557   0.758   1.881  1.00  0.00     0.316 HD
ENDROOT
BRANCH   1   3
HETATM    3  C   UNL     1       2.367   0.050  -0.050  1.00  0.00     0.236 C 
HETATM    4  C   UNL     1       2.684  -1.389   0.382  1.00  0.00     0.044 C 
BRANCH   3   5
HETATM    5  C   UNL     1       0.839   0.163  -0.246  1.00  0.00     0.183 C 
BRANCH   5   6
HETATM    6  N   UNL     1       0.410   1.432  -0.801  1.00  0.00    -0.301 N 
HETATM    7  C   UNL     1       0.008   2.526  -0.091  1.00  0.00     0.118 A 
HETATM    8  C   UNL     1      -0.394   3.467  -1.013  1.00  0.00    -0.028 A 
HETATM    9  C   UNL     1      -0.901   4.832  -0.764  1.00  0.00     0.051 C 
HETATM   10  C   UNL     1      -0.213   2.820  -2.258  1.00  0.00     0.115 A 
HETATM   11  N   UNL     1       0.264   1.579  -2.131  1.00  0.00    -0.310 N 
ATOM     12  HN  UNL     1       0.469   0.903  -2.867  1.00  0.00     0.186 HD
ENDBRANCH   5   6
ENDBRANCH   3   5
ENDBRANCH   1   3
BRANCH   1  13
HETATM   13  C   UNL     1       4.353   1.049   0.959  1.00  0.00     0.307 C 
BRANCH  13  14
HETATM   14  C   UNL     1       4.971   2.136   1.883  1.00  0.00     0.084 C 
HETATM   15  C   UNL     1       4.665   3.577   1.441  1.00  0.00     0.039 C 
HETATM   16  C   UNL     1       5.345   3.951   0.128  1.00  0.00     0.003 C 
HETATM   17  C   UNL     1       6.849   3.678   0.157  1.00  0.00     0.000 C 
HETATM   18  C   UNL     1       7.193   2.271   0.638  1.00  0.00     0.003 C 
HETATM   19  C   UNL     1       6.497   1.941   1.958  1.00  0.00     0.039 C 
BRANCH  14  20
HETATM   20  O   UNL     1       4.445   1.946   3.206  1.00  0.00    -0.388 OA
HETATM   21  H   UNL     1       3.518   2.240   3.172  1.00  0.00     0.210 HD
ENDBRANCH  14  20
ENDBRANCH  13  14
ENDBRANCH   1  13
TORSDOF 6
