REMARK  4 active torsions:
REMARK  status: ('A' for Active; 'I' for Inactive)
REMARK    1  A    between atoms: C_2  and  C_4 
REMARK    2  A    between atoms: N_9  and  C_10 
REMARK    3  A    between atoms: C_10  and  C_11 
REMARK       I    between atoms: C_11  and  N_13 
REMARK       I    between atoms: N_13  and  C_14 
REMARK       I    between atoms: C_14  and  N_16 
REMARK    4  A    between atoms: N_16  and  C_17 
ROOT
HETATM    1  C   UNL     1       1.982  -2.876   0.071  1.00  0.00     0.243 C 
HETATM    2  O   UNL     1       1.527  -1.949  -0.589  1.00  0.00    -0.271 OA
HETATM    3  N   UNL     1       1.696  -4.181  -0.302  1.00  0.00    -0.278 N 
HETATM    4  C   UNL     1       2.163  -5.320   0.303  1.00  0.00     0.323 C 
HETATM    5  O   UNL     1       3.028  -5.325   1.171  1.00  0.00    -0.247 OA
HETATM    6  N   UNL     1       1.552  -6.482  -0.108  1.00  0.00    -0.338 N 
HETATM    7  H   UNL     1       1.098  -4.257  -1.112  1.00  0.00     0.173 HD
HETATM    8  H   UNL     1       1.057  -6.511  -0.987  1.00  0.00     0.164 HD
ENDROOT
BRANCH   1   9
HETATM    9  C   UNL     1       2.846  -2.710   1.317  1.00  0.00     0.232 C 
BRANCH   9  10
HETATM   10  N   UNL     1       3.126  -1.341   1.712  1.00  0.00    -0.336 N 
HETATM   11  C   UNL     1       2.540  -0.625   2.736  1.00  0.00     0.087 A 
HETATM   12  N   UNL     1       3.214   0.488   2.955  1.00  0.00    -0.354 N 
HETATM   13  C   UNL     1       4.263   0.480   2.077  1.00  0.00     0.106 A 
ATOM     14  HN  UNL     1       2.996   1.210   3.642  1.00  0.00     0.166 HD
HETATM   15  C   UNL     1       4.238  -0.650   1.302  1.00  0.00     0.110 A 
BRANCH  11  16
HETATM   16  C   UNL     1       1.334  -1.079   3.517  1.00  0.00     0.045 C 
HETATM   17  C   UNL     1       1.755  -1.883   4.749  1.00  0.00     0.017 C 
HETATM   18  C   UNL     1       0.486   0.120   3.949  1.00  0.00     0.017 C 
ENDBRANCH  11  16
ENDBRANCH   9  10
ENDBRANCH   1   9
BRANCH   6  19
HETATM   19  C   UNL     1       1.942  -7.721   0.501  1.00  0.00     0.086 A 
HETATM   20  C   UNL     1       1.237  -9.014   0.229  1.00  0.00     0.027 A 
HETATM   21  C   UNL     1       1.074  -8.342   1.563  1.00  0.00     0.027 A 
ENDBRANCH   6  19
TORSDOF 4
