REMARK  3 active torsions:
REMARK  status: ('A' for Active; 'I' for Inactive)
REMARK    1  A    between atoms: C_5  and  C_6 
REMARK    2  A    between atoms: C_6  and  C_7 
REMARK    3  A    between atoms: C_7  and  N_8 
REMARK       I    between atoms: N_8  and  C_9 
REMARK       I    between atoms: C_9  and  N_11 
ROOT
HETATM    1  N   UNL     1       8.734  -1.440  -0.864  1.00  0.00    -0.343 N 
HETATM    2  C   UNL     1       9.406  -2.624  -1.000  1.00  0.00     0.318 C 
HETATM    3  O   UNL     1       8.842  -3.700  -0.830  1.00  0.00    -0.247 OA
HETATM    4  N   UNL     1      10.741  -2.531  -1.324  1.00  0.00    -0.329 N 
HETATM    5  C   UNL     1      11.543  -1.329  -1.561  1.00  0.00     0.165 C 
HETATM    6  C   UNL     1      12.177  -1.353  -2.975  1.00  0.00     0.071 C 
HETATM    7  C   UNL     1      11.160  -0.974  -4.059  1.00  0.00     0.047 C 
HETATM    8  C   UNL     1      13.313  -0.317  -3.027  1.00  0.00     0.047 C 
HETATM    9  O   UNL     1      12.809  -2.616  -3.272  1.00  0.00    -0.367 OA
HETATM   10  C   UNL     1      12.095  -3.827  -2.936  1.00  0.00     0.071 C 
HETATM   11  C   UNL     1      11.012  -4.150  -3.975  1.00  0.00     0.047 C 
HETATM   12  C   UNL     1      13.147  -4.945  -2.995  1.00  0.00     0.047 C 
HETATM   13  C   UNL     1      11.511  -3.761  -1.510  1.00  0.00     0.165 C 
HETATM   14  H   UNL     1       9.092  -0.631  -1.339  1.00  0.00     0.164 HD
ENDROOT
BRANCH   1  15
HETATM   15  C   UNL     1       7.320  -1.421  -0.526  1.00  0.00     0.129 C 
BRANCH  15  16
HETATM   16  C   UNL     1       6.429  -1.545  -1.766  1.00  0.00     0.060 C 
BRANCH  16  17
HETATM   17  C   UNL     1       4.971  -1.597  -1.403  1.00  0.00    -0.041 A 
HETATM   18  C   UNL     1       4.328  -2.814  -1.173  1.00  0.00     0.010 A 
HETATM   19  C   UNL     1       2.990  -2.828  -0.786  1.00  0.00     0.025 A 
HETATM   20  C   UNL     1       2.322  -1.618  -0.632  1.00  0.00     0.005 A 
HETATM   21  C   UNL     1       0.901  -1.580  -0.157  1.00  0.00     0.068 C 
HETATM   22  N   UNL     1       2.921  -0.424  -0.858  1.00  0.00    -0.369 N 
HETATM   23  C   UNL     1       4.219  -0.440  -1.236  1.00  0.00     0.095 A 
ATOM     24  HN  UNL     1       2.412   0.453  -0.747  1.00  0.00     0.165 HD
ENDBRANCH  16  17
ENDBRANCH  15  16
ENDBRANCH   1  15
TORSDOF 3
