REMARK  2 active torsions:
REMARK  status: ('A' for Active; 'I' for Inactive)
REMARK    1  A    between atoms: C_4  and  N_5 
REMARK       I    between atoms: N_5  and  C_6 
REMARK       I    between atoms: C_6  and  N_8 
REMARK    2  A    between atoms: N_8  and  C_9 
ROOT
HETATM    1  N   UNL     1       5.967   1.580  -0.021  1.00  0.00    -0.293 N 
HETATM    2  C   UNL     1       5.699   2.913   0.010  1.00  0.00     0.322 C 
HETATM    3  O   UNL     1       4.531   3.287   0.116  1.00  0.00    -0.247 OA
HETATM    4  N   UNL     1       6.748   3.772  -0.120  1.00  0.00    -0.338 N 
HETATM    5  H   UNL     1       5.140   1.001   0.017  1.00  0.00     0.172 HD
HETATM    6  H   UNL     1       7.679   3.376  -0.021  1.00  0.00     0.164 HD
ENDROOT
BRANCH   1   7
HETATM    7  C   UNL     1       7.189   0.955  -0.121  1.00  0.00     0.132 A 
HETATM    8  C   UNL     1       7.362  -0.445  -0.202  1.00  0.00     0.084 A 
HETATM    9  C   UNL     1       8.722  -0.618  -0.278  1.00  0.00     0.076 A 
HETATM   10  C   UNL     1       9.615  -1.783  -0.380  1.00  0.00     0.079 C 
HETATM   11  O   UNL     1       9.328   0.596  -0.245  1.00  0.00    -0.241 OA
HETATM   12  N   UNL     1       8.370   1.582  -0.144  1.00  0.00    -0.245 N 
ATOM     13  HN  UNL     1       8.530   2.588  -0.096  1.00  0.00     0.196 HD
ENDBRANCH   1   7
BRANCH   4  14
HETATM   14  C   UNL     1       6.572   5.198  -0.122  1.00  0.00     0.086 C 
HETATM   15  C   UNL     1       7.694   5.961  -0.819  1.00  0.00     0.025 C 
HETATM   16  C   UNL     1       7.552   7.394  -0.293  1.00  0.00     0.002 C 
HETATM   17  C   UNL     1       6.625   7.307   0.922  1.00  0.00     0.002 C 
HETATM   18  C   UNL     1       6.576   5.825   1.267  1.00  0.00     0.025 C 
ENDBRANCH   4  14
TORSDOF 2
