REMARK  5 active torsions:
REMARK  status: ('A' for Active; 'I' for Inactive)
REMARK    1  A    between atoms: N_2  and  C_4 
REMARK    2  A    between atoms: C_4  and  C_5 
REMARK    3  A    between atoms: C_5  and  N_6 
REMARK       I    between atoms: N_6  and  C_7 
REMARK       I    between atoms: C_7  and  N_9 
REMARK    4  A    between atoms: N_9  and  C_10 
REMARK    5  A    between atoms: C_16  and  N_17 
ROOT
HETATM    1  N   UNL     1       3.770  -3.045  -2.149  1.00  0.00    -0.340 N 
HETATM    2  C   UNL     1       4.050  -3.284  -3.477  1.00  0.00     0.320 C 
HETATM    3  O   UNL     1       3.788  -2.452  -4.340  1.00  0.00    -0.247 OA
HETATM    4  N   UNL     1       4.617  -4.513  -3.693  1.00  0.00    -0.306 N 
HETATM    5  H   UNL     1       4.363  -3.473  -1.450  1.00  0.00     0.164 HD
HETATM    6  H   UNL     1       4.916  -5.062  -2.897  1.00  0.00     0.171 HD
ENDROOT
BRANCH   1   7
HETATM    7  C   UNL     1       3.231  -1.740  -1.800  1.00  0.00     0.166 C 
BRANCH   7   8
HETATM    8  C   UNL     1       3.029  -1.503  -0.260  1.00  0.00     0.178 C 
HETATM    9  C   UNL     1       2.472  -0.052  -0.136  1.00  0.00     0.069 C 
HETATM   10  C   UNL     1       1.732   0.231   1.159  1.00  0.00     0.170 C 
HETATM   11  O   UNL     1       0.685  -0.716   1.351  1.00  0.00    -0.391 OA
HETATM   12  C   UNL     1       1.187  -2.040   1.483  1.00  0.00     0.170 C 
HETATM   13  C   UNL     1       1.906  -2.478   0.207  1.00  0.00     0.069 C 
BRANCH   8  14
HETATM   14  N   UNL     1       4.352  -1.785   0.403  1.00  0.00     0.091 N 
HETATM   15  C   UNL     1       5.428  -0.843   0.070  1.00  0.00     0.310 C 
HETATM   16  C   UNL     1       4.366  -2.034   1.838  1.00  0.00     0.310 C 
ENDBRANCH   8  14
ENDBRANCH   7   8
ENDBRANCH   1   7
BRANCH   4  17
HETATM   17  C   UNL     1       4.943  -5.076  -4.957  1.00  0.00     0.075 A 
HETATM   18  C   UNL     1       4.403  -4.585  -6.148  1.00  0.00     0.034 A 
HETATM   19  C   UNL     1       4.722  -5.185  -7.360  1.00  0.00     0.019 A 
HETATM   20  C   UNL     1       5.568  -6.275  -7.332  1.00  0.00     0.089 A 
HETATM   21  N   UNL     1       6.106  -6.784  -6.203  1.00  0.00    -0.355 N 
HETATM   22  C   UNL     1       5.813  -6.192  -5.018  1.00  0.00     0.109 A 
ATOM     23  HN  UNL     1       6.720  -7.597  -6.240  1.00  0.00     0.166 HD
BRANCH  22  24
HETATM   24  N   UNL     1       6.437  -6.672  -3.838  1.00  0.00    -0.267 NA
HETATM   25  C   UNL     1       7.062  -8.005  -3.972  1.00  0.00     0.097 C 
HETATM   26  C   UNL     1       8.358  -7.923  -3.170  1.00  0.00     0.016 C 
HETATM   27  C   UNL     1       8.762  -6.470  -3.306  1.00  0.00     0.016 C 
HETATM   28  C   UNL     1       7.435  -5.723  -3.310  1.00  0.00     0.097 C 
ENDBRANCH  22  24
ENDBRANCH   4  17
TORSDOF 5
