REMARK  5 active torsions:
REMARK  status: ('A' for Active; 'I' for Inactive)
REMARK    1  A    between atoms: N_5  and  C_6 
REMARK    2  A    between atoms: C_6  and  C_7 
REMARK    3  A    between atoms: C_7  and  O_8 
REMARK    4  A    between atoms: C_7  and  C_9 
REMARK    5  A    between atoms: C_9  and  N_10 
ROOT
HETATM    1  C   UNL     1       6.116  -0.926  -4.687  1.00  0.00     0.070 C 
HETATM    2  C   UNL     1       6.635  -1.614  -3.443  1.00  0.00     0.029 A 
HETATM    3  N   UNL     1       5.843  -1.644  -2.421  1.00  0.00    -0.300 N 
ATOM      4  HN  UNL     1       4.908  -1.239  -2.475  1.00  0.00     0.187 HD
HETATM    5  N   UNL     1       6.284  -2.230  -1.266  1.00  0.00    -0.254 N 
HETATM    6  C   UNL     1       7.533  -2.809  -1.122  1.00  0.00     0.283 A 
HETATM    7  O   UNL     1       7.910  -3.342  -0.080  1.00  0.00    -0.265 OA
HETATM    8  C   UNL     1       8.405  -2.785  -2.323  1.00  0.00     0.121 A 
HETATM    9  C   UNL     1       9.674  -3.411  -2.204  1.00  0.00     0.105 C 
HETATM   10  N   UNL     1      10.719  -3.916  -2.166  1.00  0.00    -0.191 NA
HETATM   11  C   UNL     1       8.000  -2.208  -3.469  1.00  0.00    -0.012 A 
HETATM   12  C   UNL     1       8.791  -2.139  -4.741  1.00  0.00     0.052 C 
ENDROOT
BRANCH   5  13
HETATM   13  C   UNL     1       5.345  -2.227  -0.144  1.00  0.00     0.186 C 
BRANCH  13  14
HETATM   14  C   UNL     1       4.395  -3.437  -0.131  1.00  0.00     0.166 C 
BRANCH  14  15
HETATM   15  O   UNL     1       3.569  -3.426  -1.303  1.00  0.00    -0.392 OA
HETATM   16  H   UNL     1       4.167  -3.539  -2.063  1.00  0.00     0.210 HD
ENDBRANCH  14  15
BRANCH  14  17
HETATM   17  C   UNL     1       5.120  -4.803   0.025  1.00  0.00     0.306 C 
BRANCH  17  18
HETATM   18  N   UNL     1       4.220  -5.974   0.013  1.00  0.00     0.095 N 
HETATM   19  C   UNL     1       3.248  -5.956   1.114  1.00  0.00     0.277 C 
HETATM   20  C   UNL     1       2.180  -7.027   0.880  1.00  0.00     0.069 C 
HETATM   21  C   UNL     1       2.784  -8.378   0.613  1.00  0.00    -0.049 A 
HETATM   22  C   UNL     1       1.998  -9.530   0.739  1.00  0.00     0.007 A 
HETATM   23  C   UNL     1       4.120  -8.475   0.182  1.00  0.00    -0.024 A 
HETATM   24  C   UNL     1       2.544 -10.783   0.474  1.00  0.00     0.001 A 
HETATM   25  C   UNL     1       3.874 -10.891   0.075  1.00  0.00     0.001 A 
HETATM   26  C   UNL     1       4.660  -9.744  -0.070  1.00  0.00     0.009 A 
HETATM   27  C   UNL     1       4.989  -7.236   0.055  1.00  0.00     0.311 C 
ENDBRANCH  17  18
ENDBRANCH  14  17
ENDBRANCH  13  14
ENDBRANCH   5  13
TORSDOF 5
