REMARK  7 active torsions:
REMARK  status: ('A' for Active; 'I' for Inactive)
REMARK    1  A    between atoms: C_2  and  C_3 
REMARK    2  A    between atoms: C_3  and  C_4 
REMARK    3  A    between atoms: C_4  and  C_5 
REMARK    4  A    between atoms: C_5  and  N_6 
REMARK       I    between atoms: N_6  and  C_7 
REMARK    5  A    between atoms: C_7  and  C_9 
REMARK    6  A    between atoms: C_9  and  C_10 
REMARK    7  A    between atoms: C_13  and  N_16 
ROOT
HETATM    1  C   UNL     1       9.095   1.972   3.957  1.00  0.00     0.026 A 
HETATM    2  C   UNL     1       8.750   1.966   5.297  1.00  0.00     0.078 A 
HETATM    3  S   UNL     1       9.388   0.582   6.057  1.00  0.00    -0.064 SA
HETATM    4  C   UNL     1      10.144   0.121   4.593  1.00  0.00     0.155 A 
HETATM    5  N   UNL     1       9.947   0.938   3.577  1.00  0.00    -0.339 N 
ATOM      6  HN  UNL     1      10.358   0.829   2.650  1.00  0.00     0.168 HD
ENDROOT
BRANCH   1   7
HETATM    7  C   UNL     1       8.642   2.971   2.946  1.00  0.00     0.160 C 
BRANCH   7   8
HETATM    8  C   UNL     1       7.124   3.049   2.914  1.00  0.00     0.223 C 
HETATM    9  N   UNL     1       6.523   2.146   2.062  1.00  0.00    -0.361 N 
HETATM   10  H   UNL     1       7.102   1.521   1.517  1.00  0.00     0.162 HD
HETATM   11  O   UNL     1       6.494   3.834   3.618  1.00  0.00    -0.273 OA
BRANCH   9  12
HETATM   12  C   UNL     1       5.083   2.047   1.933  1.00  0.00     0.122 C 
BRANCH  12  13
HETATM   13  C   UNL     1       4.514   3.049   0.929  1.00  0.00     0.020 C 
BRANCH  13  14
HETATM   14  C   UNL     1       5.018   2.789  -0.493  1.00  0.00     0.001 C 
BRANCH  14  15
HETATM   15  C   UNL     1       4.416   3.775  -1.492  1.00  0.00    -0.004 C 
HETATM   16  C   UNL     1       4.935   3.517  -2.898  1.00  0.00     0.005 C 
ENDBRANCH  14  15
ENDBRANCH  13  14
ENDBRANCH  12  13
ENDBRANCH   9  12
ENDBRANCH   7   8
ENDBRANCH   1   7
BRANCH   4  17
HETATM   17  N   UNL     1      10.970  -0.983   4.553  1.00  0.00    -0.278 N 
HETATM   18  C   UNL     1      11.901  -1.273   3.487  1.00  0.00     0.155 C 
HETATM   19  C   UNL     1      12.742  -2.417   4.040  1.00  0.00     0.145 C 
HETATM   20  N   UNL     1      11.947  -2.934   5.113  1.00  0.00    -0.341 N 
HETATM   21  C   UNL     1      10.955  -2.030   5.484  1.00  0.00     0.324 C 
HETATM   22  H   UNL     1      12.197  -3.682   5.748  1.00  0.00     0.164 HD
HETATM   23  O   UNL     1      10.246  -2.223   6.456  1.00  0.00    -0.247 OA
ENDBRANCH   4  17
TORSDOF 7
