REMARK  4 active torsions:
REMARK  status: ('A' for Active; 'I' for Inactive)
REMARK    1  A    between atoms: C_2  and  C_3 
REMARK    2  A    between atoms: C_3  and  N_4 
REMARK       I    between atoms: N_4  and  C_5 
REMARK    3  A    between atoms: C_5  and  C_7 
REMARK    4  A    between atoms: C_7  and  C_8 
ROOT
HETATM    1  N   UNL     1       2.760  -0.967   2.394  1.00  0.00    -0.360 N 
HETATM    2  C   UNL     1       1.616  -0.957   3.162  1.00  0.00     0.223 C 
HETATM    3  O   UNL     1       0.842  -0.009   3.239  1.00  0.00    -0.273 OA
HETATM    4  H   UNL     1       3.420  -1.724   2.520  1.00  0.00     0.162 HD
ENDROOT
BRANCH   1   5
HETATM    5  C   UNL     1       3.134   0.121   1.508  1.00  0.00     0.131 C 
BRANCH   5   6
HETATM    6  C   UNL     1       2.632  -0.066   0.048  1.00  0.00    -0.028 C 
HETATM    7  C   UNL     1       1.080  -0.093   0.040  1.00  0.00     0.016 C 
HETATM    8  C   UNL     1       3.046   1.137  -0.845  1.00  0.00     0.011 C 
HETATM    9  C   UNL     1       4.502   1.591  -0.802  1.00  0.00     0.001 C 
HETATM   10  C   UNL     1       5.561   0.697  -1.442  1.00  0.00     0.000 C 
HETATM   11  C   UNL     1       5.159  -0.700  -1.890  1.00  0.00     0.000 C 
HETATM   12  C   UNL     1       4.602  -1.586  -0.783  1.00  0.00     0.001 C 
HETATM   13  C   UNL     1       3.103  -1.410  -0.559  1.00  0.00     0.011 C 
ENDBRANCH   5   6
ENDBRANCH   1   5
BRANCH   2  14
HETATM   14  C   UNL     1       1.402  -2.233   3.963  1.00  0.00     0.161 C 
BRANCH  14  15
HETATM   15  C   UNL     1       2.013  -2.073   5.305  1.00  0.00     0.035 A 
HETATM   16  C   UNL     1       3.021  -2.753   5.953  1.00  0.00     0.045 A 
HETATM   17  C   UNL     1       3.166  -2.088   7.181  1.00  0.00     0.109 A 
HETATM   18  N   UNL     1       2.311  -1.072   7.316  1.00  0.00    -0.312 N 
HETATM   19  N   UNL     1       1.621  -1.078   6.165  1.00  0.00    -0.305 N 
ATOM     20  HN  UNL     1       2.206  -0.439   8.109  1.00  0.00     0.186 HD
HETATM   21  H   UNL     1       0.910  -0.365   6.015  1.00  0.00     0.186 HD
ENDBRANCH  14  15
ENDBRANCH   2  14
TORSDOF 4
