REMARK  4 active torsions:
REMARK  status: ('A' for Active; 'I' for Inactive)
REMARK    1  A    between atoms: N_1  and  C_3 
REMARK    2  A    between atoms: C_2  and  C_4 
REMARK    3  A    between atoms: C_4  and  O_15 
REMARK    4  A    between atoms: C_11  and  O_16 
ROOT
HETATM    1  N   UNL     1      -0.792  -1.106   0.092  1.00  0.00    -0.350 N 
HETATM    2  C   UNL     1       0.629  -1.202   0.452  1.00  0.00     0.186 C 
HETATM    3  C   UNL     1       1.007   0.255   0.793  1.00  0.00     0.069 C 
HETATM    4  C   UNL     1      -1.275   0.236   0.313  1.00  0.00     0.157 C 
HETATM    5  C   UNL     1      -0.052   1.091   0.059  1.00  0.00     0.138 C 
ENDROOT
BRANCH   1   6
HETATM    6  C   UNL     1      -1.607  -2.125  -0.495  1.00  0.00     0.106 A 
HETATM    7  N   UNL     1      -2.855  -1.795  -0.945  1.00  0.00    -0.339 N 
HETATM    8  C   UNL     1      -3.668  -2.697  -1.543  1.00  0.00     0.181 A 
ATOM      9  HN  UNL     1      -3.185  -0.837  -0.826  1.00  0.00     0.168 HD
HETATM   10  N   UNL     1      -3.254  -3.980  -1.701  1.00  0.00    -0.362 N 
HETATM   11  C   UNL     1      -2.030  -4.372  -1.267  1.00  0.00     0.092 A 
ATOM     12  HN  UNL     1      -3.870  -4.657  -2.151  1.00  0.00     0.165 HD
HETATM   13  C   UNL     1      -1.177  -3.456  -0.649  1.00  0.00     0.065 A 
ENDBRANCH   1   6
BRANCH   2  14
HETATM   14  C   UNL     1       1.531  -1.717  -0.656  1.00  0.00     0.163 C 
HETATM   15  O   UNL     1       1.089  -2.046  -1.742  1.00  0.00    -0.648 OA
BRANCH  14  16
HETATM   16  O   UNL     1       2.854  -1.854  -0.416  1.00  0.00    -0.775 OA
HETATM   17  H   UNL     1       3.244  -1.638   0.446  1.00  0.00     0.167 HD
ENDBRANCH  14  16
ENDBRANCH   2  14
BRANCH   5  18
HETATM   18  O   UNL     1       0.225   1.127  -1.317  1.00  0.00    -0.394 OA
HETATM   19  H   UNL     1      -0.595   1.462  -1.772  1.00  0.00     0.210 HD
ENDBRANCH   5  18
TORSDOF 4
