REMARK  4 active torsions:
REMARK  status: ('A' for Active; 'I' for Inactive)
REMARK    1  A    between atoms: C_2  and  S_5 
REMARK    2  A    between atoms: S_5  and  C_8 
REMARK    3  A    between atoms: C_11  and  N_12 
REMARK    4  A    between atoms: N_12  and  C_13 
ROOT
HETATM    1  C   UNL     1       5.002   1.617   1.102  1.00  0.00     0.129 A 
HETATM    2  C   UNL     1       5.619   2.380   0.126  1.00  0.00     0.043 A 
HETATM    3  C   UNL     1       7.009   2.308   0.036  1.00  0.00     0.028 A 
HETATM    4  C   UNL     1       7.754   1.517   0.921  1.00  0.00     0.024 A 
HETATM    5  C   UNL     1       7.020   0.848   1.904  1.00  0.00     0.112 A 
HETATM    6  N   UNL     1       5.663   0.858   2.007  1.00  0.00    -0.355 N 
ATOM      7  HN  UNL     1       5.172   0.324   2.725  1.00  0.00     0.166 HD
ENDROOT
BRANCH   4   8
HETATM    8  N   UNL     1       9.136   1.422   0.699  1.00  0.00    -0.285 NA
HETATM    9  H   UNL     1       9.287   1.000  -0.219  1.00  0.00     0.128 HD
BRANCH   8  10
HETATM   10  C   UNL     1      10.016   0.842   1.715  1.00  0.00     0.091 C 
HETATM   11  C   UNL     1      10.352   1.843   2.829  1.00  0.00     0.054 C 
HETATM   12  C   UNL     1      11.881   1.778   2.880  1.00  0.00     0.123 C 
HETATM   13  C   UNL     1      12.490   2.558   1.718  1.00  0.00     0.034 C 
HETATM   14  O   UNL     1      12.146   0.417   2.464  1.00  0.00    -0.379 OA
HETATM   15  C   UNL     1      12.160   1.653   0.530  1.00  0.00     0.036 C 
HETATM   16  C   UNL     1      11.430   0.489   1.202  1.00  0.00     0.140 C 
ENDBRANCH   8  10
ENDBRANCH   4   8
BRANCH   1  17
HETATM   17  S   UNL     1       3.213   1.510   1.172  1.00  0.00     0.198 S 
HETATM   18  O   UNL     1       2.709   2.333   0.079  1.00  0.00    -0.220 OA
HETATM   19  O   UNL     1       2.799   1.810   2.530  1.00  0.00    -0.220 OA
BRANCH  17  20
HETATM   20  C   UNL     1       2.791  -0.224   0.776  1.00  0.00     0.059 C 
HETATM   21  C   UNL     1       3.448  -0.640  -0.548  1.00  0.00     0.031 C 
HETATM   22  C   UNL     1       1.260  -0.330   0.620  1.00  0.00     0.031 C 
HETATM   23  C   UNL     1       3.217  -1.175   1.902  1.00  0.00     0.031 C 
ENDBRANCH  17  20
ENDBRANCH   1  17
TORSDOF 4
