REMARK  5 active torsions:
REMARK  status: ('A' for Active; 'I' for Inactive)
REMARK    1  A    between atoms: N_1  and  C_8 
REMARK    2  A    between atoms: N_2  and  C_7 
REMARK    3  A    between atoms: C_8  and  C_9 
REMARK       I    between atoms: C_9  and  N_11 
REMARK    4  A    between atoms: C_10  and  C_15 
REMARK    5  A    between atoms: N_11  and  C_15 
ROOT
HETATM    1  N   UNL     1      -0.332   1.018  -0.632  1.00  0.00    -0.255 N 
HETATM    2  N   UNL     1      -0.169  -1.334  -0.503  1.00  0.00    -0.279 N 
HETATM    3  C   UNL     1      -0.878  -0.223  -0.948  1.00  0.00     0.334 C 
HETATM    4  C   UNL     1       0.933   1.196  -0.078  1.00  0.00     0.292 C 
HETATM    5  C   UNL     1       1.708  -0.043   0.136  1.00  0.00     0.200 C 
HETATM    6  C   UNL     1       1.122  -1.225  -0.028  1.00  0.00     0.146 C 
HETATM    7  O   UNL     1      -1.959  -0.334  -1.529  1.00  0.00    -0.246 OA
HETATM    8  O   UNL     1       1.379   2.286   0.271  1.00  0.00    -0.264 OA
HETATM    9  F   UNL     1       2.950   0.080   0.642  1.00  0.00    -0.199 F 
ENDROOT
BRANCH   1  10
HETATM   10  C   UNL     1      -1.262   2.130  -0.504  1.00  0.00     0.240 C 
BRANCH  10  11
HETATM   11  C   UNL     1      -1.134   3.334  -1.428  1.00  0.00     0.236 C 
HETATM   12  N   UNL     1      -0.623   3.142  -2.689  1.00  0.00    -0.349 N 
HETATM   13  H   UNL     1      -0.418   2.214  -3.038  1.00  0.00     0.163 HD
HETATM   14  O   UNL     1      -1.617   4.416  -1.086  1.00  0.00    -0.272 OA
BRANCH  12  15
HETATM   15  C   UNL     1      -0.630   4.253  -3.628  1.00  0.00     0.137 C 
HETATM   16  C   UNL     1      -2.008   4.476  -4.256  1.00  0.00     0.039 C 
BRANCH  15  17
HETATM   17  C   UNL     1       0.394   4.046  -4.691  1.00  0.00     0.074 A 
HETATM   18  O   UNL     1       0.419   2.837  -5.329  1.00  0.00    -0.325 OA
HETATM   19  C   UNL     1       1.350   2.932  -6.315  1.00  0.00     0.142 A 
HETATM   20  C   UNL     1       1.933   4.177  -6.314  1.00  0.00     0.027 A 
HETATM   21  C   UNL     1       1.328   4.893  -5.255  1.00  0.00     0.037 A 
ENDBRANCH  15  17
ENDBRANCH  12  15
ENDBRANCH  10  11
ENDBRANCH   1  10
BRANCH   2  22
HETATM   22  C   UNL     1      -0.904  -2.585  -0.404  1.00  0.00     0.232 C 
HETATM   23  O   UNL     1      -0.462  -3.354   0.731  1.00  0.00    -0.366 OA
HETATM   24  C   UNL     1      -0.653  -4.743   0.421  1.00  0.00     0.170 C 
HETATM   25  C   UNL     1      -1.283  -4.812  -0.957  1.00  0.00     0.031 C 
HETATM   26  C   UNL     1      -0.807  -3.524  -1.593  1.00  0.00     0.056 C 
ENDBRANCH   2  22
TORSDOF 5
