REMARK  4 active torsions:
REMARK  status: ('A' for Active; 'I' for Inactive)
REMARK    1  A    between atoms: O_2  and  C_3 
REMARK    2  A    between atoms: C_3  and  C_4 
REMARK    3  A    between atoms: C_4  and  N_5 
REMARK    4  A    between atoms: C_6  and  N_18 
ROOT
HETATM    1  N   UNL     1       4.884  -1.984  -1.863  1.00  0.00    -0.172 N 
HETATM    2  C   UNL     1       5.544  -1.654  -3.047  1.00  0.00     0.685 A 
HETATM    3  N   UNL     1       5.697  -2.752  -3.781  1.00  0.00    -0.174 N 
ATOM      4  HN  UNL     1       6.104  -2.811  -4.715  1.00  0.00     0.186 HD
HETATM    5  C   UNL     1       5.203  -3.784  -3.040  1.00  0.00     0.160 A 
HETATM    6  N   UNL     1       5.095  -5.113  -3.410  1.00  0.00    -0.287 N 
HETATM    7  C   UNL     1       5.509  -5.607  -4.705  1.00  0.00     0.163 C 
HETATM    8  C   UNL     1       4.523  -6.019  -2.522  1.00  0.00     0.330 A 
HETATM    9  O   UNL     1       4.365  -7.217  -2.772  1.00  0.00    -0.246 OA
HETATM   10  N   UNL     1       4.108  -5.533  -1.304  1.00  0.00    -0.273 N 
HETATM   11  C   UNL     1       4.176  -4.234  -0.865  1.00  0.00     0.280 A 
HETATM   12  O   UNL     1       3.775  -3.924   0.251  1.00  0.00    -0.265 OA
HETATM   13  C   UNL     1       4.742  -3.350  -1.832  1.00  0.00     0.164 A 
HETATM   14  H   UNL     1       3.699  -6.201  -0.670  1.00  0.00     0.173 HD
ENDROOT
BRANCH   2  15
HETATM   15  N   UNL     1       5.823  -0.380  -3.464  1.00  0.00    -0.213 N 
HETATM   16  C   UNL     1       6.236   0.732  -2.592  1.00  0.00     0.167 C 
HETATM   17  C   UNL     1       5.679   2.039  -3.188  1.00  0.00     0.188 C 
HETATM   18  O   UNL     1       6.220   2.268  -4.496  1.00  0.00    -0.388 OA
HETATM   19  C   UNL     1       5.898   1.172  -5.374  1.00  0.00     0.188 C 
HETATM   20  C   UNL     1       6.379  -0.188  -4.823  1.00  0.00     0.167 C 
ENDBRANCH   2  15
BRANCH   1  21
HETATM   21  C   UNL     1       4.242  -1.099  -0.913  1.00  0.00     0.174 C 
BRANCH  21  22
HETATM   22  C   UNL     1       3.132  -0.259  -1.531  1.00  0.00     0.187 C 
BRANCH  22  23
HETATM   23  O   UNL     1       2.699   0.702  -0.566  1.00  0.00    -0.394 OA
HETATM   24  C   UNL     1       1.653   1.517  -1.078  1.00  0.00     0.201 C 
ENDBRANCH  22  23
ENDBRANCH  21  22
ENDBRANCH   1  21
TORSDOF 4
