REMARK  7 active torsions:
REMARK  status: ('A' for Active; 'I' for Inactive)
REMARK    1  A    between atoms: O_2  and  C_3 
REMARK    2  A    between atoms: C_8  and  O_9 
REMARK    3  A    between atoms: O_9  and  C_10 
REMARK    4  A    between atoms: C_10  and  C_11 
REMARK    5  A    between atoms: C_11  and  N_12 
REMARK    6  A    between atoms: C_13  and  C_14 
REMARK    7  A    between atoms: C_14  and  O_15 
ROOT
HETATM    1  N   UNL     1      -1.324  -0.397  -2.106  1.00  0.00    -0.331 N 
HETATM    2  C   UNL     1      -2.476  -0.363  -2.883  1.00  0.00     0.108 A 
HETATM    3  N   UNL     1      -2.980   0.854  -2.927  1.00  0.00    -0.342 N 
ATOM      4  HN  UNL     1      -3.828   1.151  -3.411  1.00  0.00     0.167 HD
HETATM    5  C   UNL     1      -2.135   1.637  -2.192  1.00  0.00     0.060 A 
HETATM    6  C   UNL     1      -2.246   3.002  -1.890  1.00  0.00     0.032 A 
HETATM    7  C   UNL     1      -1.251   3.618  -1.127  1.00  0.00     0.002 A 
HETATM    8  C   UNL     1      -0.145   2.892  -0.701  1.00  0.00     0.002 A 
HETATM    9  C   UNL     1      -0.016   1.530  -0.996  1.00  0.00     0.032 A 
HETATM   10  C   UNL     1      -1.049   0.899  -1.713  1.00  0.00     0.062 A 
ENDROOT
BRANCH   1  11
HETATM   11  C   UNL     1      -0.652  -1.634  -1.741  1.00  0.00     0.157 C 
BRANCH  11  12
HETATM   12  C   UNL     1       0.462  -1.564  -0.697  1.00  0.00     0.196 C 
BRANCH  12  13
HETATM   13  O   UNL     1       0.854  -2.877  -0.280  1.00  0.00    -0.347 OA
BRANCH  13  14
HETATM   14  C   UNL     1       0.615  -3.166   1.040  1.00  0.00     0.102 A 
HETATM   15  C   UNL     1      -0.617  -2.992   1.695  1.00  0.00     0.101 A 
HETATM   16  C   UNL     1      -0.771  -3.471   3.001  1.00  0.00     0.039 A 
HETATM   17  C   UNL     1       0.304  -4.050   3.677  1.00  0.00     0.003 A 
HETATM   18  C   UNL     1       1.538  -4.178   3.042  1.00  0.00     0.003 A 
HETATM   19  C   UNL     1       1.685  -3.756   1.721  1.00  0.00     0.039 A 
BRANCH  15  20
HETATM   20  O   UNL     1      -1.652  -2.427   1.002  1.00  0.00    -0.353 OA
HETATM   21  C   UNL     1      -2.547  -1.608   1.751  1.00  0.00     0.210 C 
ENDBRANCH  15  20
ENDBRANCH  13  14
ENDBRANCH  12  13
ENDBRANCH  11  12
ENDBRANCH   1  11
BRANCH   2  22
HETATM   22  C   UNL     1      -3.088  -1.552  -3.544  1.00  0.00     0.240 C 
BRANCH  22  23
HETATM   23  O   UNL     1      -2.180  -2.031  -4.529  1.00  0.00    -0.393 OA
HETATM   24  H   UNL     1      -2.203  -1.377  -5.251  1.00  0.00     0.209 HD
ENDBRANCH  22  23
ENDBRANCH   2  22
TORSDOF 7
