REMARK  6 active torsions:
REMARK  status: ('A' for Active; 'I' for Inactive)
REMARK    1  A    between atoms: N_6  and  C_7 
REMARK    2  A    between atoms: C_7  and  C_8 
REMARK    3  A    between atoms: C_8  and  N_9 
REMARK    4  A    between atoms: N_9  and  C_10 
REMARK    5  A    between atoms: C_10  and  C_11 
REMARK    6  A    between atoms: C_11  and  N_12 
ROOT
HETATM    1  N   UNL     1       6.360  -3.856   0.037  1.00  0.00     0.086 N 
HETATM    2  H   UNL     1       6.938  -3.738   0.871  1.00  0.00     0.316 HD
ENDROOT
BRANCH   1   3
HETATM    3  C   UNL     1       5.271  -2.863   0.069  1.00  0.00     0.291 C 
BRANCH   3   4
HETATM    4  C   UNL     1       4.289  -2.997   1.239  1.00  0.00     0.178 C 
BRANCH   4   5
HETATM    5  N   UNL     1       3.193  -2.056   1.119  1.00  0.00    -0.302 N 
HETATM    6  N   UNL     1       3.313  -0.812   1.613  1.00  0.00    -0.310 N 
HETATM    7  C   UNL     1       2.130  -0.255   1.342  1.00  0.00     0.115 A 
ATOM      8  HN  UNL     1       4.116  -0.393   2.083  1.00  0.00     0.186 HD
HETATM    9  C   UNL     1       1.252  -1.134   0.666  1.00  0.00    -0.028 A 
HETATM   10  C   UNL     1      -0.127  -0.871   0.203  1.00  0.00     0.051 C 
HETATM   11  C   UNL     1       1.981  -2.297   0.538  1.00  0.00     0.118 A 
ENDBRANCH   4   5
ENDBRANCH   3   4
ENDBRANCH   1   3
BRANCH   1  12
HETATM   12  C   UNL     1       5.893  -5.246  -0.019  1.00  0.00     0.289 C 
BRANCH  12  13
HETATM   13  C   UNL     1       5.005  -5.592  -1.234  1.00  0.00     0.155 C 
BRANCH  13  14
HETATM   14  N   UNL     1       4.506  -6.957  -1.161  1.00  0.00    -0.350 N 
HETATM   15  C   UNL     1       5.274  -8.067  -1.656  1.00  0.00     0.126 C 
HETATM   16  C   UNL     1       4.503  -9.296  -1.215  1.00  0.00     0.029 C 
HETATM   17  C   UNL     1       3.587  -8.826  -0.093  1.00  0.00     0.104 C 
HETATM   18  C   UNL     1       3.552  -7.329  -0.234  1.00  0.00     0.219 C 
HETATM   19  O   UNL     1       2.857  -6.575   0.431  1.00  0.00    -0.273 OA
ENDBRANCH  13  14
ENDBRANCH  12  13
ENDBRANCH   1  12
TORSDOF 6
