REMARK  6 active torsions:
REMARK  status: ('A' for Active; 'I' for Inactive)
REMARK    1  A    between atoms: C_2  and  C_5 
REMARK       I    between atoms: C_5  and  N_7 
REMARK    2  A    between atoms: N_7  and  C_8 
REMARK    3  A    between atoms: C_8  and  C_9 
REMARK       I    between atoms: C_9  and  N_11 
REMARK    4  A    between atoms: N_11  and  C_12 
REMARK    5  A    between atoms: C_12  and  C_13 
REMARK    6  A    between atoms: C_16  and  N_20 
ROOT
HETATM    1  C   UNL     1       8.611  -4.264   1.407  1.00  0.00     0.162 C 
ENDROOT
BRANCH   1   2
HETATM    2  N   UNL     1       7.174  -4.181   1.332  1.00  0.00    -0.355 N 
HETATM    3  C   UNL     1       6.586  -2.985   0.966  1.00  0.00     0.235 C 
HETATM    4  O   UNL     1       7.230  -1.963   0.733  1.00  0.00    -0.272 OA
HETATM    5  H   UNL     1       6.599  -4.839   1.856  1.00  0.00     0.162 HD
BRANCH   3   6
HETATM    6  C   UNL     1       5.059  -3.001   0.938  1.00  0.00     0.225 C 
BRANCH   6   7
HETATM    7  N   UNL     1       4.493  -2.587   2.207  1.00  0.00    -0.352 N 
HETATM    8  C   UNL     1       4.283  -3.496   3.218  1.00  0.00     0.225 C 
HETATM    9  O   UNL     1       4.617  -4.673   3.091  1.00  0.00    -0.273 OA
HETATM   10  H   UNL     1       4.406  -1.595   2.385  1.00  0.00     0.162 HD
BRANCH   8  11
HETATM   11  C   UNL     1       3.639  -2.934   4.501  1.00  0.00     0.030 C 
HETATM   12  C   UNL     1       3.392  -4.085   5.492  1.00  0.00     0.024 C 
HETATM   13  C   UNL     1       2.291  -2.267   4.185  1.00  0.00     0.024 C 
HETATM   14  C   UNL     1       4.585  -1.915   5.150  1.00  0.00     0.024 C 
ENDBRANCH   8  11
ENDBRANCH   6   7
ENDBRANCH   3   6
ENDBRANCH   1   2
BRANCH   1  15
HETATM   15  C   UNL     1       9.129  -5.592   1.866  1.00  0.00    -0.025 A 
HETATM   16  C   UNL     1       9.318  -5.879   3.212  1.00  0.00     0.014 A 
HETATM   17  C   UNL     1       9.918  -7.085   3.593  1.00  0.00     0.049 A 
HETATM   18  C   UNL     1      10.335  -8.004   2.630  1.00  0.00     0.103 A 
HETATM   19  N   UNL     1      10.106  -7.740   1.323  1.00  0.00    -0.352 N 
HETATM   20  C   UNL     1       9.511  -6.575   0.969  1.00  0.00     0.098 A 
ATOM     21  HN  UNL     1      10.380  -8.414   0.608  1.00  0.00     0.166 HD
BRANCH  18  22
HETATM   22  N   UNL     1      10.930  -9.211   2.947  1.00  0.00    -0.363 N 
HETATM   23  C   UNL     1      11.878  -9.755   1.955  1.00  0.00     0.150 C 
HETATM   24  C   UNL     1      11.952 -11.281   2.108  1.00  0.00     0.187 C 
HETATM   25  O   UNL     1      12.319 -11.659   3.447  1.00  0.00    -0.388 OA
HETATM   26  C   UNL     1      11.353 -11.153   4.382  1.00  0.00     0.187 C 
HETATM   27  C   UNL     1      11.243  -9.618   4.322  1.00  0.00     0.150 C 
ENDBRANCH  18  22
ENDBRANCH   1  15
TORSDOF 6
