REMARK  6 active torsions:
REMARK  status: ('A' for Active; 'I' for Inactive)
REMARK    1  A    between atoms: C_5  and  C_6 
REMARK    2  A    between atoms: C_6  and  C_7 
REMARK       I    between atoms: C_7  and  N_9 
REMARK    3  A    between atoms: N_9  and  C_10 
REMARK    4  A    between atoms: C_10  and  C_11 
REMARK    5  A    between atoms: C_11  and  C_12 
REMARK    6  A    between atoms: C_12  and  N_13 
ROOT
HETATM    1  C   UNL     1       9.000  -2.811  -0.501  1.00  0.00     0.133 C 
ENDROOT
BRANCH   1   2
HETATM    2  N   UNL     1       8.688  -1.581   0.209  1.00  0.00    -0.360 N 
HETATM    3  C   UNL     1       7.498  -1.526   0.925  1.00  0.00     0.221 C 
HETATM    4  O   UNL     1       6.759  -2.493   1.073  1.00  0.00    -0.273 OA
HETATM    5  H   UNL     1       9.070  -0.705  -0.125  1.00  0.00     0.162 HD
BRANCH   3   6
HETATM    6  C   UNL     1       7.157  -0.167   1.508  1.00  0.00     0.142 C 
BRANCH   6   7
HETATM    7  C   UNL     1       6.477   0.773   0.546  1.00  0.00    -0.034 A 
HETATM    8  C   UNL     1       6.613   2.155   0.706  1.00  0.00     0.011 A 
HETATM    9  C   UNL     1       6.010   3.024  -0.201  1.00  0.00     0.025 A 
HETATM   10  C   UNL     1       5.266   2.491  -1.246  1.00  0.00     0.005 A 
HETATM   11  C   UNL     1       4.695   3.375  -2.313  1.00  0.00     0.068 C 
HETATM   12  N   UNL     1       5.071   1.160  -1.390  1.00  0.00    -0.369 N 
HETATM   13  C   UNL     1       5.657   0.337  -0.489  1.00  0.00     0.095 A 
ATOM     14  HN  UNL     1       4.502   0.789  -2.151  1.00  0.00     0.165 HD
ENDBRANCH   6   7
ENDBRANCH   3   6
ENDBRANCH   1   2
BRANCH   1  15
HETATM   15  C   UNL     1      10.379  -2.913  -1.246  1.00  0.00     0.002 C 
HETATM   16  C   UNL     1      10.444  -1.822  -2.360  1.00  0.00     0.013 C 
HETATM   17  C   UNL     1       9.793  -2.183  -3.690  1.00  0.00     0.001 C 
HETATM   18  C   UNL     1      10.254  -3.547  -4.168  1.00  0.00     0.000 C 
HETATM   19  C   UNL     1       9.815  -4.608  -3.177  1.00  0.00     0.001 C 
HETATM   20  C   UNL     1      10.402  -4.382  -1.787  1.00  0.00     0.013 C 
BRANCH  15  21
HETATM   21  C   UNL     1      11.566  -2.690  -0.216  1.00  0.00     0.283 C 
BRANCH  21  22
HETATM   22  N   UNL     1      12.925  -2.441  -0.761  1.00  0.00     0.093 N 
HETATM   23  C   UNL     1      13.673  -3.584  -1.326  1.00  0.00     0.298 C 
HETATM   24  C   UNL     1      14.294  -4.533  -0.285  1.00  0.00     0.198 C 
HETATM   25  O   UNL     1      15.171  -3.813   0.595  1.00  0.00    -0.388 OA
HETATM   26  C   UNL     1      14.458  -2.756   1.247  1.00  0.00     0.198 C 
HETATM   27  C   UNL     1      13.820  -1.791   0.229  1.00  0.00     0.298 C 
ENDBRANCH  21  22
ENDBRANCH  15  21
ENDBRANCH   1  15
TORSDOF 6
