REMARK  6 active torsions:
REMARK  status: ('A' for Active; 'I' for Inactive)
REMARK    1  A    between atoms: C_2  and  O_3 
REMARK    2  A    between atoms: O_3  and  C_4 
REMARK    3  A    between atoms: C_4  and  C_5 
REMARK    4  A    between atoms: C_4  and  C_7 
REMARK       I    between atoms: C_7  and  N_9 
REMARK    5  A    between atoms: N_9  and  C_10 
REMARK    6  A    between atoms: C_16  and  O_17 
ROOT
HETATM    1  C   UNL     1       4.872  -1.971  -1.773  1.00  0.00     0.251 C 
HETATM    2  O   UNL     1       6.080  -2.185  -1.868  1.00  0.00    -0.270 OA
HETATM    3  N   UNL     1       3.904  -2.494  -2.617  1.00  0.00    -0.322 N 
HETATM    4  H   UNL     1       2.959  -2.505  -2.234  1.00  0.00     0.169 HD
ENDROOT
BRANCH   3   5
HETATM    5  C   UNL     1       4.167  -3.390  -3.672  1.00  0.00     0.070 A 
HETATM    6  C   UNL     1       5.329  -3.323  -4.436  1.00  0.00     0.049 A 
HETATM    7  C   UNL     1       5.519  -4.271  -5.428  1.00  0.00     0.090 A 
HETATM    8  N   UNL     1       4.648  -5.270  -5.693  1.00  0.00    -0.372 N 
HETATM    9  C   UNL     1       3.525  -5.307  -4.943  1.00  0.00     0.126 A 
ATOM     10  HN  UNL     1       4.829  -5.960  -6.422  1.00  0.00     0.164 HD
HETATM   11  C   UNL     1       3.231  -4.384  -3.948  1.00  0.00     0.107 A 
BRANCH  11  12
HETATM   12  O   UNL     1       2.089  -4.456  -3.198  1.00  0.00    -0.357 OA
HETATM   13  H   UNL     1       1.608  -5.266  -3.438  1.00  0.00     0.217 HD
ENDBRANCH  11  12
ENDBRANCH   3   5
BRANCH   1  14
HETATM   14  C   UNL     1       4.289  -1.057  -0.675  1.00  0.00     0.213 C 
BRANCH  14  15
HETATM   15  O   UNL     1       2.861  -1.152  -0.602  1.00  0.00    -0.377 OA
BRANCH  15  16
HETATM   16  C   UNL     1       2.271  -0.143   0.220  1.00  0.00     0.164 C 
HETATM   17  C   UNL     1       0.764  -0.211   0.075  1.00  0.00     0.033 C 
ENDBRANCH  15  16
ENDBRANCH  14  15
BRANCH  14  18
HETATM   18  C   UNL     1       4.970  -1.351   0.675  1.00  0.00     0.037 C 
HETATM   19  C   UNL     1       4.600  -2.713   1.255  1.00  0.00     0.008 C 
ENDBRANCH  14  18
ENDBRANCH   1  14
TORSDOF 6
