MODEL 1
REMARK VINA RESULT:      -6.4      0.000      0.000
REMARK  4 active torsions:
REMARK  status: ('A' for Active; 'I' for Inactive)
REMARK       I    between atoms: C_2  and  N_3 
REMARK       I    between atoms: C_2  and  N_13 
REMARK    1  A    between atoms: N_3  and  C_4 
REMARK    2  A    between atoms: C_4  and  C_5 
REMARK    3  A    between atoms: N_8  and  C_10 
REMARK    4  A    between atoms: N_13  and  C_14 
ROOT
HETATM    1  O   UNL     1     -40.920 -50.947  13.166  1.00  0.00    -0.247 OA
HETATM    2  C   UNL     1     -40.989 -51.264  11.987  1.00  0.00     0.320 C 
HETATM    3  N   UNL     1     -41.171 -52.570  11.587  1.00  0.00    -0.342 N 
HETATM    4  N   UNL     1     -40.865 -50.413  10.908  1.00  0.00    -0.308 N 
HETATM    5  H   UNL     1     -41.530 -52.728  10.657  1.00  0.00     0.164 HD
HETATM    6  H   UNL     1     -40.640 -50.845  10.024  1.00  0.00     0.170 HD
ENDROOT
BRANCH   3   7
HETATM    7  C   UNL     1     -41.360 -53.629  12.569  1.00  0.00     0.130 C 
BRANCH   7   8
HETATM    8  C   UNL     1     -42.638 -53.424  13.371  1.00  0.00     0.033 C 
HETATM    9  C   UNL     1     -43.005 -54.608  14.258  1.00  0.00     0.038 C 
HETATM   10  C   UNL     1     -44.527 -54.687  14.211  1.00  0.00     0.273 C 
HETATM   11  N   UNL     1     -45.004 -53.582  13.366  1.00  0.00     0.093 N 
HETATM   12  C   UNL     1     -43.868 -53.254  12.487  1.00  0.00     0.279 C 
BRANCH  11  13
HETATM   13  C   UNL     1     -45.476 -52.418  14.141  1.00  0.00     0.223 A 
HETATM   14  C   UNL     1     -46.836 -52.442  14.788  1.00  0.00     0.038 A 
HETATM   15  C   UNL     1     -46.607 -51.605  13.566  1.00  0.00     0.038 A 
ENDBRANCH  11  13
ENDBRANCH   7   8
ENDBRANCH   3   7
BRANCH   4  16
HETATM   16  C   UNL     1     -40.750 -49.005  10.985  1.00  0.00     0.051 A 
HETATM   17  C   UNL     1     -39.757 -48.349  11.707  1.00  0.00     0.032 A 
HETATM   18  C   UNL     1     -39.698 -46.956  11.710  1.00  0.00     0.019 A 
HETATM   19  C   UNL     1     -40.652 -46.256  10.994  1.00  0.00     0.088 A 
HETATM   20  N   UNL     1     -41.650 -46.847  10.304  1.00  0.00    -0.373 N 
HETATM   21  C   UNL     1     -41.675 -48.203  10.319  1.00  0.00     0.117 A 
ATOM     22  HN  UNL     1     -42.348 -46.302   9.797  1.00  0.00     0.164 HD
ENDBRANCH   4  16
TORSDOF 4
ENDMDL
MODEL 2
REMARK VINA RESULT:      -6.4      1.687      6.943
REMARK  4 active torsions:
REMARK  status: ('A' for Active; 'I' for Inactive)
REMARK       I    between atoms: C_2  and  N_3 
REMARK       I    between atoms: C_2  and  N_13 
REMARK    1  A    between atoms: N_3  and  C_4 
REMARK    2  A    between atoms: C_4  and  C_5 
REMARK    3  A    between atoms: N_8  and  C_10 
REMARK    4  A    between atoms: N_13  and  C_14 
ROOT
HETATM    1  O   UNL     1     -42.304 -50.782  13.423  1.00  0.00    -0.247 OA
HETATM    2  C   UNL     1     -42.168 -51.324  12.334  1.00  0.00     0.320 C 
HETATM    3  N   UNL     1     -41.407 -50.770  11.329  1.00  0.00    -0.342 N 
HETATM    4  N   UNL     1     -42.756 -52.507  11.937  1.00  0.00    -0.308 N 
HETATM    5  H   UNL     1     -41.077 -51.386  10.600  1.00  0.00     0.164 HD
HETATM    6  H   UNL     1     -42.802 -52.668  10.942  1.00  0.00     0.170 HD
ENDROOT
BRANCH   3   7
HETATM    7  C   UNL     1     -40.667 -49.535  11.549  1.00  0.00     0.130 C 
BRANCH   7   8
HETATM    8  C   UNL     1     -41.289 -48.370  10.791  1.00  0.00     0.033 C 
HETATM    9  C   UNL     1     -40.614 -47.030  11.058  1.00  0.00     0.038 C 
HETATM   10  C   UNL     1     -41.743 -46.006  11.063  1.00  0.00     0.273 C 
HETATM   11  N   UNL     1     -42.995 -46.724  10.779  1.00  0.00     0.093 N 
HETATM   12  C   UNL     1     -42.740 -48.117  11.185  1.00  0.00     0.279 C 
BRANCH  11  13
HETATM   13  C   UNL     1     -43.423 -46.613   9.371  1.00  0.00     0.223 A 
HETATM   14  C   UNL     1     -44.223 -45.421   8.916  1.00  0.00     0.038 A 
HETATM   15  C   UNL     1     -44.894 -46.752   9.071  1.00  0.00     0.038 A 
ENDBRANCH  11  13
ENDBRANCH   7   8
ENDBRANCH   3   7
BRANCH   4  16
HETATM   16  C   UNL     1     -43.529 -53.355  12.764  1.00  0.00     0.051 A 
HETATM   17  C   UNL     1     -42.984 -54.212  13.718  1.00  0.00     0.032 A 
HETATM   18  C   UNL     1     -43.818 -54.997  14.512  1.00  0.00     0.019 A 
HETATM   19  C   UNL     1     -45.185 -54.909  14.317  1.00  0.00     0.088 A 
HETATM   20  N   UNL     1     -45.757 -54.116  13.387  1.00  0.00    -0.373 N 
HETATM   21  C   UNL     1     -44.917 -53.363  12.635  1.00  0.00     0.117 A 
ATOM     22  HN  UNL     1     -46.769 -54.085  13.257  1.00  0.00     0.164 HD
ENDBRANCH   4  16
TORSDOF 4
ENDMDL
MODEL 3
REMARK VINA RESULT:      -6.4      2.182      3.775
REMARK  4 active torsions:
REMARK  status: ('A' for Active; 'I' for Inactive)
REMARK       I    between atoms: C_2  and  N_3 
REMARK       I    between atoms: C_2  and  N_13 
REMARK    1  A    between atoms: N_3  and  C_4 
REMARK    2  A    between atoms: C_4  and  C_5 
REMARK    3  A    between atoms: N_8  and  C_10 
REMARK    4  A    between atoms: N_13  and  C_14 
ROOT
HETATM    1  O   UNL     1     -41.486 -48.110  11.819  1.00  0.00    -0.247 OA
HETATM    2  C   UNL     1     -41.333 -48.716  10.767  1.00  0.00     0.320 C 
HETATM    3  N   UNL     1     -40.446 -49.763  10.645  1.00  0.00    -0.342 N 
HETATM    4  N   UNL     1     -41.967 -48.442   9.573  1.00  0.00    -0.308 N 
HETATM    5  H   UNL     1     -40.588 -50.409   9.882  1.00  0.00     0.164 HD
HETATM    6  H   UNL     1     -41.528 -48.811   8.742  1.00  0.00     0.170 HD
ENDROOT
BRANCH   3   7
HETATM    7  C   UNL     1     -39.695 -50.241  11.798  1.00  0.00     0.130 C 
BRANCH   7   8
HETATM    8  C   UNL     1     -40.507 -51.232  12.621  1.00  0.00     0.033 C 
HETATM    9  C   UNL     1     -39.676 -52.040  13.609  1.00  0.00     0.038 C 
HETATM   10  C   UNL     1     -40.300 -53.431  13.616  1.00  0.00     0.273 C 
HETATM   11  N   UNL     1     -41.451 -53.405  12.702  1.00  0.00     0.093 N 
HETATM   12  C   UNL     1     -41.173 -52.303  11.764  1.00  0.00     0.279 C 
BRANCH  11  13
HETATM   13  C   UNL     1     -42.744 -53.246  13.397  1.00  0.00     0.223 A 
HETATM   14  C   UNL     1     -43.266 -54.346  14.283  1.00  0.00     0.038 A 
HETATM   15  C   UNL     1     -43.895 -54.106  12.944  1.00  0.00     0.038 A 
ENDBRANCH  11  13
ENDBRANCH   7   8
ENDBRANCH   3   7
BRANCH   4  16
HETATM   16  C   UNL     1     -42.990 -47.483   9.390  1.00  0.00     0.051 A 
HETATM   17  C   UNL     1     -44.253 -47.784   8.887  1.00  0.00     0.032 A 
HETATM   18  C   UNL     1     -45.215 -46.783   8.762  1.00  0.00     0.019 A 
HETATM   19  C   UNL     1     -44.875 -45.495   9.138  1.00  0.00     0.088 A 
HETATM   20  N   UNL     1     -43.656 -45.150   9.603  1.00  0.00    -0.373 N 
HETATM   21  C   UNL     1     -42.747 -46.149   9.715  1.00  0.00     0.117 A 
ATOM     22  HN  UNL     1     -43.432 -44.188   9.858  1.00  0.00     0.164 HD
ENDBRANCH   4  16
TORSDOF 4
ENDMDL
MODEL 4
REMARK VINA RESULT:      -6.2      1.389      7.004
REMARK  4 active torsions:
REMARK  status: ('A' for Active; 'I' for Inactive)
REMARK       I    between atoms: C_2  and  N_3 
REMARK       I    between atoms: C_2  and  N_13 
REMARK    1  A    between atoms: N_3  and  C_4 
REMARK    2  A    between atoms: C_4  and  C_5 
REMARK    3  A    between atoms: N_8  and  C_10 
REMARK    4  A    between atoms: N_13  and  C_14 
ROOT
HETATM    1  O   UNL     1     -41.795 -51.887  13.690  1.00  0.00    -0.247 OA
HETATM    2  C   UNL     1     -42.000 -52.072  12.499  1.00  0.00     0.320 C 
HETATM    3  N   UNL     1     -41.138 -51.617  11.526  1.00  0.00    -0.342 N 
HETATM    4  N   UNL     1     -43.098 -52.706  11.953  1.00  0.00    -0.308 N 
HETATM    5  H   UNL     1     -41.183 -52.058  10.619  1.00  0.00     0.164 HD
HETATM    6  H   UNL     1     -43.280 -52.518  10.978  1.00  0.00     0.170 HD
ENDROOT
BRANCH   3   7
HETATM    7  C   UNL     1     -39.895 -50.949  11.886  1.00  0.00     0.130 C 
BRANCH   7   8
HETATM    8  C   UNL     1     -39.942 -49.465  11.549  1.00  0.00     0.033 C 
HETATM    9  C   UNL     1     -38.920 -48.627  12.309  1.00  0.00     0.038 C 
HETATM   10  C   UNL     1     -39.624 -47.308  12.605  1.00  0.00     0.273 C 
HETATM   11  N   UNL     1     -40.968 -47.379  12.013  1.00  0.00     0.093 N 
HETATM   12  C   UNL     1     -41.271 -48.817  11.920  1.00  0.00     0.279 C 
BRANCH  11  13
HETATM   13  C   UNL     1     -41.067 -46.692  10.710  1.00  0.00     0.223 A 
HETATM   14  C   UNL     1     -40.331 -45.398  10.480  1.00  0.00     0.038 A 
HETATM   15  C   UNL     1     -41.819 -45.387  10.660  1.00  0.00     0.038 A 
ENDBRANCH  11  13
ENDBRANCH   7   8
ENDBRANCH   3   7
BRANCH   4  16
HETATM   16  C   UNL     1     -44.119 -53.352  12.687  1.00  0.00     0.051 A 
HETATM   17  C   UNL     1     -43.933 -54.539  13.391  1.00  0.00     0.032 A 
HETATM   18  C   UNL     1     -44.987 -55.098  14.113  1.00  0.00     0.019 A 
HETATM   19  C   UNL     1     -46.210 -54.452  14.097  1.00  0.00     0.088 A 
HETATM   20  N   UNL     1     -46.446 -53.316  13.406  1.00  0.00    -0.373 N 
HETATM   21  C   UNL     1     -45.398 -52.798  12.719  1.00  0.00     0.117 A 
ATOM     22  HN  UNL     1     -47.364 -52.871  13.402  1.00  0.00     0.164 HD
ENDBRANCH   4  16
TORSDOF 4
ENDMDL
MODEL 5
REMARK VINA RESULT:      -6.1      1.456      2.187
REMARK  4 active torsions:
REMARK  status: ('A' for Active; 'I' for Inactive)
REMARK       I    between atoms: C_2  and  N_3 
REMARK       I    between atoms: C_2  and  N_13 
REMARK    1  A    between atoms: N_3  and  C_4 
REMARK    2  A    between atoms: C_4  and  C_5 
REMARK    3  A    between atoms: N_8  and  C_10 
REMARK    4  A    between atoms: N_13  and  C_14 
ROOT
HETATM    1  O   UNL     1     -40.648 -49.142  12.827  1.00  0.00    -0.247 OA
HETATM    2  C   UNL     1     -40.906 -49.433  11.668  1.00  0.00     0.320 C 
HETATM    3  N   UNL     1     -40.960 -50.739  11.233  1.00  0.00    -0.342 N 
HETATM    4  N   UNL     1     -41.140 -48.543  10.639  1.00  0.00    -0.308 N 
HETATM    5  H   UNL     1     -41.473 -50.928  10.384  1.00  0.00     0.164 HD
HETATM    6  H   UNL     1     -41.036 -48.908   9.704  1.00  0.00     0.170 HD
ENDROOT
BRANCH   3   7
HETATM    7  C   UNL     1     -40.777 -51.842  12.166  1.00  0.00     0.130 C 
BRANCH   7   8
HETATM    8  C   UNL     1     -42.110 -52.347  12.702  1.00  0.00     0.033 C 
HETATM    9  C   UNL     1     -42.487 -51.768  14.060  1.00  0.00     0.038 C 
HETATM   10  C   UNL     1     -43.176 -52.907  14.804  1.00  0.00     0.273 C 
HETATM   11  N   UNL     1     -43.219 -54.066  13.900  1.00  0.00     0.093 N 
HETATM   12  C   UNL     1     -42.115 -53.851  12.948  1.00  0.00     0.279 C 
BRANCH  11  13
HETATM   13  C   UNL     1     -44.523 -54.233  13.229  1.00  0.00     0.223 A 
HETATM   14  C   UNL     1     -45.791 -53.828  13.932  1.00  0.00     0.038 A 
HETATM   15  C   UNL     1     -45.461 -55.281  13.770  1.00  0.00     0.038 A 
ENDBRANCH  11  13
ENDBRANCH   7   8
ENDBRANCH   3   7
BRANCH   4  16
HETATM   16  C   UNL     1     -41.233 -47.139  10.778  1.00  0.00     0.051 A 
HETATM   17  C   UNL     1     -40.131 -46.288  10.795  1.00  0.00     0.032 A 
HETATM   18  C   UNL     1     -40.311 -44.910  10.909  1.00  0.00     0.019 A 
HETATM   19  C   UNL     1     -41.601 -44.423  11.016  1.00  0.00     0.088 A 
HETATM   20  N   UNL     1     -42.698 -45.209  11.033  1.00  0.00    -0.373 N 
HETATM   21  C   UNL     1     -42.487 -46.544  10.917  1.00  0.00     0.117 A 
ATOM     22  HN  UNL     1     -43.636 -44.820  11.129  1.00  0.00     0.164 HD
ENDBRANCH   4  16
TORSDOF 4
ENDMDL
MODEL 6
REMARK VINA RESULT:      -6.0      2.410      7.135
REMARK  4 active torsions:
REMARK  status: ('A' for Active; 'I' for Inactive)
REMARK       I    between atoms: C_2  and  N_3 
REMARK       I    between atoms: C_2  and  N_13 
REMARK    1  A    between atoms: N_3  and  C_4 
REMARK    2  A    between atoms: C_4  and  C_5 
REMARK    3  A    between atoms: N_8  and  C_10 
REMARK    4  A    between atoms: N_13  and  C_14 
ROOT
HETATM    1  O   UNL     1     -42.480 -50.713  12.675  1.00  0.00    -0.247 OA
HETATM    2  C   UNL     1     -41.749 -51.515  12.112  1.00  0.00     0.320 C 
HETATM    3  N   UNL     1     -40.683 -51.118  11.336  1.00  0.00    -0.342 N 
HETATM    4  N   UNL     1     -41.884 -52.889  12.130  1.00  0.00    -0.308 N 
HETATM    5  H   UNL     1     -39.951 -51.793  11.168  1.00  0.00     0.164 HD
HETATM    6  H   UNL     1     -41.410 -53.391  11.394  1.00  0.00     0.170 HD
ENDROOT
BRANCH   3   7
HETATM    7  C   UNL     1     -40.339 -49.709  11.209  1.00  0.00     0.130 C 
BRANCH   7   8
HETATM    8  C   UNL     1     -39.198 -49.327  12.143  1.00  0.00     0.033 C 
HETATM    9  C   UNL     1     -38.101 -50.380  12.238  1.00  0.00     0.038 C 
HETATM   10  C   UNL     1     -37.643 -50.351  13.692  1.00  0.00     0.273 C 
HETATM   11  N   UNL     1     -38.418 -49.308  14.381  1.00  0.00     0.093 N 
HETATM   12  C   UNL     1     -39.651 -49.160  13.589  1.00  0.00     0.279 C 
BRANCH  11  13
HETATM   13  C   UNL     1     -37.682 -48.037  14.529  1.00  0.00     0.223 A 
HETATM   14  C   UNL     1     -36.518 -47.945  15.480  1.00  0.00     0.038 A 
HETATM   15  C   UNL     1     -37.821 -47.294  15.833  1.00  0.00     0.038 A 
ENDBRANCH  11  13
ENDBRANCH   7   8
ENDBRANCH   3   7
BRANCH   4  16
HETATM   16  C   UNL     1     -42.829 -53.608  12.899  1.00  0.00     0.051 A 
HETATM   17  C   UNL     1     -42.506 -54.323  14.050  1.00  0.00     0.032 A 
HETATM   18  C   UNL     1     -43.503 -54.985  14.766  1.00  0.00     0.019 A 
HETATM   19  C   UNL     1     -44.802 -54.920  14.296  1.00  0.00     0.088 A 
HETATM   20  N   UNL     1     -45.159 -54.264  13.171  1.00  0.00    -0.373 N 
HETATM   21  C   UNL     1     -44.165 -53.629  12.502  1.00  0.00     0.117 A 
ATOM     22  HN  UNL     1     -46.124 -54.247  12.842  1.00  0.00     0.164 HD
ENDBRANCH   4  16
TORSDOF 4
ENDMDL
MODEL 7
REMARK VINA RESULT:      -5.7      2.423      4.056
REMARK  4 active torsions:
REMARK  status: ('A' for Active; 'I' for Inactive)
REMARK       I    between atoms: C_2  and  N_3 
REMARK       I    between atoms: C_2  and  N_13 
REMARK    1  A    between atoms: N_3  and  C_4 
REMARK    2  A    between atoms: C_4  and  C_5 
REMARK    3  A    between atoms: N_8  and  C_10 
REMARK    4  A    between atoms: N_13  and  C_14 
ROOT
HETATM    1  O   UNL     1     -42.288 -50.873  12.779  1.00  0.00    -0.247 OA
HETATM    2  C   UNL     1     -41.440 -51.284  11.999  1.00  0.00     0.320 C 
HETATM    3  N   UNL     1     -41.194 -52.628  11.825  1.00  0.00    -0.342 N 
HETATM    4  N   UNL     1     -40.602 -50.507  11.227  1.00  0.00    -0.308 N 
HETATM    5  H   UNL     1     -40.734 -52.911  10.972  1.00  0.00     0.164 HD
HETATM    6  H   UNL     1     -39.772 -50.962  10.877  1.00  0.00     0.170 HD
ENDROOT
BRANCH   3   7
HETATM    7  C   UNL     1     -41.992 -53.628  12.520  1.00  0.00     0.130 C 
BRANCH   7   8
HETATM    8  C   UNL     1     -41.253 -54.192  13.727  1.00  0.00     0.033 C 
HETATM    9  C   UNL     1     -41.713 -53.611  15.058  1.00  0.00     0.038 C 
HETATM   10  C   UNL     1     -40.449 -53.499  15.904  1.00  0.00     0.273 C 
HETATM   11  N   UNL     1     -39.332 -54.022  15.105  1.00  0.00     0.093 N 
HETATM   12  C   UNL     1     -39.761 -53.878  13.704  1.00  0.00     0.279 C 
BRANCH  11  13
HETATM   13  C   UNL     1     -38.971 -55.413  15.448  1.00  0.00     0.223 A 
HETATM   14  C   UNL     1     -39.244 -55.945  16.830  1.00  0.00     0.038 A 
HETATM   15  C   UNL     1     -37.839 -55.625  16.419  1.00  0.00     0.038 A 
ENDBRANCH  11  13
ENDBRANCH   7   8
ENDBRANCH   3   7
BRANCH   4  16
HETATM   16  C   UNL     1     -40.659 -49.098  11.121  1.00  0.00     0.051 A 
HETATM   17  C   UNL     1     -39.781 -48.236  11.774  1.00  0.00     0.032 A 
HETATM   18  C   UNL     1     -39.889 -46.858  11.595  1.00  0.00     0.019 A 
HETATM   19  C   UNL     1     -40.890 -46.379  10.770  1.00  0.00     0.088 A 
HETATM   20  N   UNL     1     -41.782 -47.172  10.139  1.00  0.00    -0.373 N 
HETATM   21  C   UNL     1     -41.646 -48.507  10.332  1.00  0.00     0.117 A 
ATOM     22  HN  UNL     1     -42.519 -46.787   9.549  1.00  0.00     0.164 HD
ENDBRANCH   4  16
TORSDOF 4
ENDMDL
MODEL 8
REMARK VINA RESULT:      -5.5      2.611      3.171
REMARK  4 active torsions:
REMARK  status: ('A' for Active; 'I' for Inactive)
REMARK       I    between atoms: C_2  and  N_3 
REMARK       I    between atoms: C_2  and  N_13 
REMARK    1  A    between atoms: N_3  and  C_4 
REMARK    2  A    between atoms: C_4  and  C_5 
REMARK    3  A    between atoms: N_8  and  C_10 
REMARK    4  A    between atoms: N_13  and  C_14 
ROOT
HETATM    1  O   UNL     1     -40.088 -52.191  15.222  1.00  0.00    -0.247 OA
HETATM    2  C   UNL     1     -39.900 -52.172  14.013  1.00  0.00     0.320 C 
HETATM    3  N   UNL     1     -40.442 -53.117  13.170  1.00  0.00    -0.342 N 
HETATM    4  N   UNL     1     -39.121 -51.263  13.327  1.00  0.00    -0.308 N 
HETATM    5  H   UNL     1     -40.522 -52.880  12.192  1.00  0.00     0.164 HD
HETATM    6  H   UNL     1     -38.817 -51.544  12.406  1.00  0.00     0.170 HD
ENDROOT
BRANCH   3   7
HETATM    7  C   UNL     1     -41.329 -54.151  13.684  1.00  0.00     0.130 C 
BRANCH   7   8
HETATM    8  C   UNL     1     -42.762 -53.650  13.801  1.00  0.00     0.033 C 
HETATM    9  C   UNL     1     -43.730 -54.677  14.376  1.00  0.00     0.038 C 
HETATM   10  C   UNL     1     -45.037 -54.464  13.619  1.00  0.00     0.273 C 
HETATM   11  N   UNL     1     -44.832 -53.348  12.685  1.00  0.00     0.093 N 
HETATM   12  C   UNL     1     -43.378 -53.305  12.450  1.00  0.00     0.279 C 
BRANCH  11  13
HETATM   13  C   UNL     1     -45.363 -52.064  13.185  1.00  0.00     0.223 A 
HETATM   14  C   UNL     1     -46.653 -52.032  13.962  1.00  0.00     0.038 A 
HETATM   15  C   UNL     1     -46.622 -51.531  12.550  1.00  0.00     0.038 A 
ENDBRANCH  11  13
ENDBRANCH   7   8
ENDBRANCH   3   7
BRANCH   4  16
HETATM   16  C   UNL     1     -38.495 -50.128  13.894  1.00  0.00     0.051 A 
HETATM   17  C   UNL     1     -38.883 -48.818  13.627  1.00  0.00     0.032 A 
HETATM   18  C   UNL     1     -38.230 -47.754  14.249  1.00  0.00     0.019 A 
HETATM   19  C   UNL     1     -37.192 -48.037  15.118  1.00  0.00     0.088 A 
HETATM   20  N   UNL     1     -36.763 -49.289  15.386  1.00  0.00    -0.373 N 
HETATM   21  C   UNL     1     -37.422 -50.299  14.767  1.00  0.00     0.117 A 
ATOM     22  HN  UNL     1     -35.984 -49.465  16.021  1.00  0.00     0.164 HD
ENDBRANCH   4  16
TORSDOF 4
ENDMDL
MODEL 9
REMARK VINA RESULT:      -5.5      2.045      3.528
REMARK  4 active torsions:
REMARK  status: ('A' for Active; 'I' for Inactive)
REMARK       I    between atoms: C_2  and  N_3 
REMARK       I    between atoms: C_2  and  N_13 
REMARK    1  A    between atoms: N_3  and  C_4 
REMARK    2  A    between atoms: C_4  and  C_5 
REMARK    3  A    between atoms: N_8  and  C_10 
REMARK    4  A    between atoms: N_13  and  C_14 
ROOT
HETATM    1  O   UNL     1     -39.909 -47.412  13.314  1.00  0.00    -0.247 OA
HETATM    2  C   UNL     1     -39.954 -47.813  12.159  1.00  0.00     0.320 C 
HETATM    3  N   UNL     1     -39.593 -49.096  11.812  1.00  0.00    -0.342 N 
HETATM    4  N   UNL     1     -40.322 -47.071  11.055  1.00  0.00    -0.308 N 
HETATM    5  H   UNL     1     -39.942 -49.460  10.937  1.00  0.00     0.164 HD
HETATM    6  H   UNL     1     -40.025 -47.429  10.160  1.00  0.00     0.170 HD
ENDROOT
BRANCH   3   7
HETATM    7  C   UNL     1     -39.203 -50.061  12.831  1.00  0.00     0.130 C 
BRANCH   7   8
HETATM    8  C   UNL     1     -40.306 -51.079  13.086  1.00  0.00     0.033 C 
HETATM    9  C   UNL     1     -39.792 -52.463  13.467  1.00  0.00     0.038 C 
HETATM   10  C   UNL     1     -40.754 -53.443  12.806  1.00  0.00     0.273 C 
HETATM   11  N   UNL     1     -41.783 -52.657  12.111  1.00  0.00     0.093 N 
HETATM   12  C   UNL     1     -41.157 -51.349  11.850  1.00  0.00     0.279 C 
BRANCH  11  13
HETATM   13  C   UNL     1     -43.041 -52.540  12.875  1.00  0.00     0.223 A 
HETATM   14  C   UNL     1     -43.519 -53.689  13.723  1.00  0.00     0.038 A 
HETATM   15  C   UNL     1     -44.212 -53.378  12.431  1.00  0.00     0.038 A 
ENDBRANCH  11  13
ENDBRANCH   7   8
ENDBRANCH   3   7
BRANCH   4  16
HETATM   16  C   UNL     1     -40.821 -45.748  11.088  1.00  0.00     0.051 A 
HETATM   17  C   UNL     1     -40.010 -44.616  11.103  1.00  0.00     0.032 A 
HETATM   18  C   UNL     1     -40.583 -43.344  11.109  1.00  0.00     0.019 A 
HETATM   19  C   UNL     1     -41.962 -43.245  11.112  1.00  0.00     0.088 A 
HETATM   20  N   UNL     1     -42.788 -44.312  11.127  1.00  0.00    -0.373 N 
HETATM   21  C   UNL     1     -42.198 -45.533  11.117  1.00  0.00     0.117 A 
ATOM     22  HN  UNL     1     -43.803 -44.206  11.144  1.00  0.00     0.164 HD
ENDBRANCH   4  16
TORSDOF 4
ENDMDL
