MODEL 1
REMARK VINA RESULT:      -6.0      0.000      0.000
REMARK  7 active torsions:
REMARK  status: ('A' for Active; 'I' for Inactive)
REMARK    1  A    between atoms: C_2  and  N_4 
REMARK    2  A    between atoms: N_4  and  C_5 
REMARK    3  A    between atoms: N_4  and  C_23 
REMARK    4  A    between atoms: C_5  and  C_6 
REMARK    5  A    between atoms: C_6  and  N_7 
REMARK       I    between atoms: N_7  and  C_8 
REMARK    6  A    between atoms: C_8  and  C_10 
REMARK    7  A    between atoms: C_16  and  N_17 
ROOT
HETATM    1  C   UNL     1     -42.690 -48.477  12.169  1.00  0.00     0.075 A 
HETATM    2  C   UNL     1     -43.709 -47.760  11.518  1.00  0.00     0.022 A 
HETATM    3  C   UNL     1     -43.602 -47.453  10.169  1.00  0.00     0.018 A 
HETATM    4  C   UNL     1     -42.457 -47.849   9.519  1.00  0.00     0.089 A 
HETATM    5  N   UNL     1     -41.455 -48.537  10.111  1.00  0.00    -0.352 N 
ATOM      6  HN  UNL     1     -40.629 -48.805   9.575  1.00  0.00     0.166 HD
HETATM    7  C   UNL     1     -41.555 -48.870  11.429  1.00  0.00     0.119 A 
ENDROOT
BRANCH   1   8
HETATM    8  C   UNL     1     -42.952 -48.768  13.607  1.00  0.00     0.255 C 
HETATM    9  N   UNL     1     -43.425 -50.020  13.933  1.00  0.00    -0.355 N 
HETATM   10  H   UNL     1     -43.565 -50.689  13.180  1.00  0.00     0.162 HD
HETATM   11  O   UNL     1     -42.774 -47.891  14.450  1.00  0.00    -0.268 OA
BRANCH   9  12
HETATM   12  C   UNL     1     -43.540 -50.445  15.320  1.00  0.00     0.153 C 
BRANCH  12  13
HETATM   13  C   UNL     1     -44.451 -51.682  15.510  1.00  0.00     0.293 C 
BRANCH  13  14
HETATM   14  N   UNL     1     -44.788 -52.445  14.277  1.00  0.00     0.097 N 
BRANCH  14  15
HETATM   15  C   UNL     1     -46.238 -52.297  13.931  1.00  0.00     0.215 C 
HETATM   16  C   UNL     1     -47.002 -51.489  15.009  1.00  0.00     0.042 C 
HETATM   17  C   UNL     1     -46.556 -51.600  12.598  1.00  0.00     0.042 C 
ENDBRANCH  14  15
BRANCH  14  18
HETATM   18  C   UNL     1     -44.238 -53.841  14.320  1.00  0.00     0.215 C 
HETATM   19  C   UNL     1     -45.190 -54.964  13.867  1.00  0.00     0.042 C 
HETATM   20  C   UNL     1     -42.989 -54.002  13.416  1.00  0.00     0.042 C 
ENDBRANCH  14  18
ENDBRANCH  13  14
ENDBRANCH  12  13
ENDBRANCH   9  12
ENDBRANCH   1   8
BRANCH   7  21
HETATM   21  N   UNL     1     -40.564 -49.712  11.929  1.00  0.00    -0.362 N 
HETATM   22  C   UNL     1     -40.845 -51.164  11.832  1.00  0.00     0.150 C 
HETATM   23  C   UNL     1     -39.974 -51.859  12.891  1.00  0.00     0.187 C 
HETATM   24  O   UNL     1     -38.573 -51.595  12.683  1.00  0.00    -0.388 OA
HETATM   25  C   UNL     1     -38.304 -50.179  12.660  1.00  0.00     0.187 C 
HETATM   26  C   UNL     1     -39.149 -49.460  11.582  1.00  0.00     0.150 C 
ENDBRANCH   7  21
TORSDOF 7
ENDMDL
MODEL 2
REMARK VINA RESULT:      -5.9      1.695      2.761
REMARK  7 active torsions:
REMARK  status: ('A' for Active; 'I' for Inactive)
REMARK    1  A    between atoms: C_2  and  N_4 
REMARK    2  A    between atoms: N_4  and  C_5 
REMARK    3  A    between atoms: N_4  and  C_23 
REMARK    4  A    between atoms: C_5  and  C_6 
REMARK    5  A    between atoms: C_6  and  N_7 
REMARK       I    between atoms: N_7  and  C_8 
REMARK    6  A    between atoms: C_8  and  C_10 
REMARK    7  A    between atoms: C_16  and  N_17 
ROOT
HETATM    1  C   UNL     1     -41.588 -49.087  12.016  1.00  0.00     0.075 A 
HETATM    2  C   UNL     1     -42.547 -48.388  11.264  1.00  0.00     0.022 A 
HETATM    3  C   UNL     1     -42.194 -47.245  10.561  1.00  0.00     0.018 A 
HETATM    4  C   UNL     1     -40.890 -46.819  10.660  1.00  0.00     0.089 A 
HETATM    5  N   UNL     1     -39.940 -47.463  11.375  1.00  0.00    -0.352 N 
ATOM      6  HN  UNL     1     -38.988 -47.099  11.408  1.00  0.00     0.166 HD
HETATM    7  C   UNL     1     -40.264 -48.602  12.050  1.00  0.00     0.119 A 
ENDROOT
BRANCH   1   8
HETATM    8  C   UNL     1     -42.097 -50.316  12.690  1.00  0.00     0.255 C 
HETATM    9  N   UNL     1     -42.242 -51.454  11.927  1.00  0.00    -0.355 N 
HETATM   10  H   UNL     1     -41.987 -51.406  10.944  1.00  0.00     0.162 HD
HETATM   11  O   UNL     1     -42.399 -50.277  13.881  1.00  0.00    -0.268 OA
BRANCH   9  12
HETATM   12  C   UNL     1     -42.563 -52.735  12.538  1.00  0.00     0.153 C 
BRANCH  12  13
HETATM   13  C   UNL     1     -44.082 -53.028  12.589  1.00  0.00     0.293 C 
BRANCH  13  14
HETATM   14  N   UNL     1     -44.792 -52.604  13.828  1.00  0.00     0.097 N 
BRANCH  14  15
HETATM   15  C   UNL     1     -45.225 -53.790  14.634  1.00  0.00     0.215 C 
HETATM   16  C   UNL     1     -45.353 -55.060  13.756  1.00  0.00     0.042 C 
HETATM   17  C   UNL     1     -44.313 -54.194  15.803  1.00  0.00     0.042 C 
ENDBRANCH  14  15
BRANCH  14  18
HETATM   18  C   UNL     1     -45.830 -51.559  13.542  1.00  0.00     0.215 C 
HETATM   19  C   UNL     1     -46.708 -51.792  12.298  1.00  0.00     0.042 C 
HETATM   20  C   UNL     1     -46.840 -51.410  14.709  1.00  0.00     0.042 C 
ENDBRANCH  14  18
ENDBRANCH  13  14
ENDBRANCH  12  13
ENDBRANCH   9  12
ENDBRANCH   1   8
BRANCH   7  21
HETATM   21  N   UNL     1     -39.204 -49.296  12.631  1.00  0.00    -0.362 N 
HETATM   22  C   UNL     1     -38.158 -49.773  11.696  1.00  0.00     0.150 C 
HETATM   23  C   UNL     1     -37.435 -50.938  12.390  1.00  0.00     0.187 C 
HETATM   24  O   UNL     1     -36.852 -50.531  13.643  1.00  0.00    -0.388 OA
HETATM   25  C   UNL     1     -37.842 -49.957  14.520  1.00  0.00     0.187 C 
HETATM   26  C   UNL     1     -38.565 -48.763  13.853  1.00  0.00     0.150 C 
ENDBRANCH   7  21
TORSDOF 7
ENDMDL
MODEL 3
REMARK VINA RESULT:      -5.9      1.721      4.136
REMARK  7 active torsions:
REMARK  status: ('A' for Active; 'I' for Inactive)
REMARK    1  A    between atoms: C_2  and  N_4 
REMARK    2  A    between atoms: N_4  and  C_5 
REMARK    3  A    between atoms: N_4  and  C_23 
REMARK    4  A    between atoms: C_5  and  C_6 
REMARK    5  A    between atoms: C_6  and  N_7 
REMARK       I    between atoms: N_7  and  C_8 
REMARK    6  A    between atoms: C_8  and  C_10 
REMARK    7  A    between atoms: C_16  and  N_17 
ROOT
HETATM    1  C   UNL     1     -40.258 -50.225  12.523  1.00  0.00     0.075 A 
HETATM    2  C   UNL     1     -39.213 -51.093  12.881  1.00  0.00     0.022 A 
HETATM    3  C   UNL     1     -37.916 -50.844  12.458  1.00  0.00     0.018 A 
HETATM    4  C   UNL     1     -37.710 -49.744  11.659  1.00  0.00     0.089 A 
HETATM    5  N   UNL     1     -38.690 -48.887  11.292  1.00  0.00    -0.352 N 
ATOM      6  HN  UNL     1     -38.476 -48.086  10.698  1.00  0.00     0.166 HD
HETATM    7  C   UNL     1     -39.967 -49.103  11.720  1.00  0.00     0.119 A 
ENDROOT
BRANCH   1   8
HETATM    8  C   UNL     1     -41.593 -50.593  13.076  1.00  0.00     0.255 C 
HETATM    9  N   UNL     1     -41.777 -50.483  14.437  1.00  0.00    -0.355 N 
HETATM   10  H   UNL     1     -40.999 -50.148  14.999  1.00  0.00     0.162 HD
HETATM   11  O   UNL     1     -42.471 -51.009  12.324  1.00  0.00    -0.268 OA
BRANCH   9  12
HETATM   12  C   UNL     1     -43.093 -50.652  15.036  1.00  0.00     0.153 C 
BRANCH  12  13
HETATM   13  C   UNL     1     -43.447 -52.129  15.333  1.00  0.00     0.293 C 
BRANCH  13  14
HETATM   14  N   UNL     1     -44.713 -52.635  14.731  1.00  0.00     0.097 N 
BRANCH  14  15
HETATM   15  C   UNL     1     -44.439 -53.700  13.715  1.00  0.00     0.215 C 
HETATM   16  C   UNL     1     -42.958 -54.154  13.749  1.00  0.00     0.042 C 
HETATM   17  C   UNL     1     -45.263 -54.993  13.839  1.00  0.00     0.042 C 
ENDBRANCH  14  15
BRANCH  14  18
HETATM   18  C   UNL     1     -45.615 -51.511  14.312  1.00  0.00     0.215 C 
HETATM   19  C   UNL     1     -46.112 -51.542  12.855  1.00  0.00     0.042 C 
HETATM   20  C   UNL     1     -46.910 -51.458  15.164  1.00  0.00     0.042 C 
ENDBRANCH  14  18
ENDBRANCH  13  14
ENDBRANCH  12  13
ENDBRANCH   9  12
ENDBRANCH   1   8
BRANCH   7  21
HETATM   21  N   UNL     1     -40.889 -48.097  11.437  1.00  0.00    -0.362 N 
HETATM   22  C   UNL     1     -40.361 -46.713  11.469  1.00  0.00     0.150 C 
HETATM   23  C   UNL     1     -41.563 -45.782  11.701  1.00  0.00     0.187 C 
HETATM   24  O   UNL     1     -42.555 -45.927  10.666  1.00  0.00    -0.388 OA
HETATM   25  C   UNL     1     -42.992 -47.295  10.547  1.00  0.00     0.187 C 
HETATM   26  C   UNL     1     -41.804 -48.250  10.285  1.00  0.00     0.150 C 
ENDBRANCH   7  21
TORSDOF 7
ENDMDL
MODEL 4
REMARK VINA RESULT:      -5.6      1.908      3.984
REMARK  7 active torsions:
REMARK  status: ('A' for Active; 'I' for Inactive)
REMARK    1  A    between atoms: C_2  and  N_4 
REMARK    2  A    between atoms: N_4  and  C_5 
REMARK    3  A    between atoms: N_4  and  C_23 
REMARK    4  A    between atoms: C_5  and  C_6 
REMARK    5  A    between atoms: C_6  and  N_7 
REMARK       I    between atoms: N_7  and  C_8 
REMARK    6  A    between atoms: C_8  and  C_10 
REMARK    7  A    between atoms: C_16  and  N_17 
ROOT
HETATM    1  C   UNL     1     -39.664 -50.004  13.038  1.00  0.00     0.075 A 
HETATM    2  C   UNL     1     -38.581 -50.856  13.318  1.00  0.00     0.022 A 
HETATM    3  C   UNL     1     -37.467 -50.871  12.491  1.00  0.00     0.018 A 
HETATM    4  C   UNL     1     -37.486 -50.051  11.388  1.00  0.00     0.089 A 
HETATM    5  N   UNL     1     -38.510 -49.221  11.085  1.00  0.00    -0.352 N 
ATOM      6  HN  UNL     1     -38.465 -48.634  10.252  1.00  0.00     0.166 HD
HETATM    7  C   UNL     1     -39.602 -49.174  11.900  1.00  0.00     0.119 A 
ENDROOT
BRANCH   1   8
HETATM    8  C   UNL     1     -40.778 -50.065  14.028  1.00  0.00     0.255 C 
HETATM    9  N   UNL     1     -41.952 -50.672  13.638  1.00  0.00    -0.355 N 
HETATM   10  H   UNL     1     -42.001 -51.057  12.698  1.00  0.00     0.162 HD
HETATM   11  O   UNL     1     -40.637 -49.554  15.137  1.00  0.00    -0.268 OA
BRANCH   9  12
HETATM   12  C   UNL     1     -43.020 -50.930  14.592  1.00  0.00     0.153 C 
BRANCH  12  13
HETATM   13  C   UNL     1     -43.456 -52.414  14.640  1.00  0.00     0.293 C 
BRANCH  13  14
HETATM   14  N   UNL     1     -43.194 -53.215  13.412  1.00  0.00     0.097 N 
BRANCH  14  15
HETATM   15  C   UNL     1     -44.473 -53.703  12.804  1.00  0.00     0.215 C 
HETATM   16  C   UNL     1     -45.103 -54.845  13.639  1.00  0.00     0.042 C 
HETATM   17  C   UNL     1     -45.591 -52.661  12.632  1.00  0.00     0.042 C 
ENDBRANCH  14  15
BRANCH  14  18
HETATM   18  C   UNL     1     -42.115 -54.234  13.634  1.00  0.00     0.215 C 
HETATM   19  C   UNL     1     -40.765 -53.959  12.945  1.00  0.00     0.042 C 
HETATM   20  C   UNL     1     -41.761 -54.388  15.136  1.00  0.00     0.042 C 
ENDBRANCH  14  18
ENDBRANCH  13  14
ENDBRANCH  12  13
ENDBRANCH   9  12
ENDBRANCH   1   8
BRANCH   7  21
HETATM   21  N   UNL     1     -40.541 -48.185  11.615  1.00  0.00    -0.362 N 
HETATM   22  C   UNL     1     -40.000 -46.818  11.430  1.00  0.00     0.150 C 
HETATM   23  C   UNL     1     -41.156 -45.840  11.695  1.00  0.00     0.187 C 
HETATM   24  O   UNL     1     -42.265 -46.075  10.805  1.00  0.00    -0.388 OA
HETATM   25  C   UNL     1     -42.726 -47.438  10.892  1.00  0.00     0.187 C 
HETATM   26  C   UNL     1     -41.586 -48.442  10.602  1.00  0.00     0.150 C 
ENDBRANCH   7  21
TORSDOF 7
ENDMDL
MODEL 5
REMARK VINA RESULT:      -5.6      1.928      4.190
REMARK  7 active torsions:
REMARK  status: ('A' for Active; 'I' for Inactive)
REMARK    1  A    between atoms: C_2  and  N_4 
REMARK    2  A    between atoms: N_4  and  C_5 
REMARK    3  A    between atoms: N_4  and  C_23 
REMARK    4  A    between atoms: C_5  and  C_6 
REMARK    5  A    between atoms: C_6  and  N_7 
REMARK       I    between atoms: N_7  and  C_8 
REMARK    6  A    between atoms: C_8  and  C_10 
REMARK    7  A    between atoms: C_16  and  N_17 
ROOT
HETATM    1  C   UNL     1     -40.343 -49.994  12.595  1.00  0.00     0.075 A 
HETATM    2  C   UNL     1     -39.327 -50.891  12.968  1.00  0.00     0.022 A 
HETATM    3  C   UNL     1     -38.051 -50.769  12.438  1.00  0.00     0.018 A 
HETATM    4  C   UNL     1     -37.838 -49.766  11.522  1.00  0.00     0.089 A 
HETATM    5  N   UNL     1     -38.790 -48.886  11.137  1.00  0.00    -0.352 N 
ATOM      6  HN  UNL     1     -38.571 -48.160  10.454  1.00  0.00     0.166 HD
HETATM    7  C   UNL     1     -40.043 -48.974  11.667  1.00  0.00     0.119 A 
ENDROOT
BRANCH   1   8
HETATM    8  C   UNL     1     -41.654 -50.219  13.267  1.00  0.00     0.255 C 
HETATM    9  N   UNL     1     -42.675 -50.762  12.518  1.00  0.00    -0.355 N 
HETATM   10  H   UNL     1     -42.484 -50.992  11.546  1.00  0.00     0.162 HD
HETATM   11  O   UNL     1     -41.801 -49.893  14.443  1.00  0.00    -0.268 OA
BRANCH   9  12
HETATM   12  C   UNL     1     -43.925 -51.177  13.137  1.00  0.00     0.153 C 
BRANCH  12  13
HETATM   13  C   UNL     1     -44.082 -52.713  13.237  1.00  0.00     0.293 C 
BRANCH  13  14
HETATM   14  N   UNL     1     -43.721 -53.327  14.545  1.00  0.00     0.097 N 
BRANCH  14  15
HETATM   15  C   UNL     1     -42.284 -53.747  14.566  1.00  0.00     0.215 C 
HETATM   16  C   UNL     1     -42.058 -54.958  15.506  1.00  0.00     0.042 C 
HETATM   17  C   UNL     1     -41.671 -54.160  13.217  1.00  0.00     0.042 C 
ENDBRANCH  14  15
BRANCH  14  18
HETATM   18  C   UNL     1     -44.734 -54.345  14.979  1.00  0.00     0.215 C 
HETATM   19  C   UNL     1     -45.944 -53.810  15.768  1.00  0.00     0.042 C 
HETATM   20  C   UNL     1     -45.358 -55.094  13.773  1.00  0.00     0.042 C 
ENDBRANCH  14  18
ENDBRANCH  13  14
ENDBRANCH  12  13
ENDBRANCH   9  12
ENDBRANCH   1   8
BRANCH   7  21
HETATM   21  N   UNL     1     -40.922 -47.942  11.346  1.00  0.00    -0.362 N 
HETATM   22  C   UNL     1     -40.324 -46.589  11.270  1.00  0.00     0.150 C 
HETATM   23  C   UNL     1     -41.468 -45.582  11.477  1.00  0.00     0.187 C 
HETATM   24  O   UNL     1     -42.500 -45.740  10.485  1.00  0.00    -0.388 OA
HETATM   25  C   UNL     1     -43.010 -47.089  10.470  1.00  0.00     0.187 C 
HETATM   26  C   UNL     1     -41.881 -48.119  10.235  1.00  0.00     0.150 C 
ENDBRANCH   7  21
TORSDOF 7
ENDMDL
MODEL 6
REMARK VINA RESULT:      -5.6      2.557      3.645
REMARK  7 active torsions:
REMARK  status: ('A' for Active; 'I' for Inactive)
REMARK    1  A    between atoms: C_2  and  N_4 
REMARK    2  A    between atoms: N_4  and  C_5 
REMARK    3  A    between atoms: N_4  and  C_23 
REMARK    4  A    between atoms: C_5  and  C_6 
REMARK    5  A    between atoms: C_6  and  N_7 
REMARK       I    between atoms: N_7  and  C_8 
REMARK    6  A    between atoms: C_8  and  C_10 
REMARK    7  A    between atoms: C_16  and  N_17 
ROOT
HETATM    1  C   UNL     1     -43.066 -47.320  10.790  1.00  0.00     0.075 A 
HETATM    2  C   UNL     1     -43.896 -47.722   9.730  1.00  0.00     0.022 A 
HETATM    3  C   UNL     1     -44.429 -46.784   8.858  1.00  0.00     0.018 A 
HETATM    4  C   UNL     1     -44.137 -45.462   9.095  1.00  0.00     0.089 A 
HETATM    5  N   UNL     1     -43.345 -45.035  10.105  1.00  0.00    -0.352 N 
ATOM      6  HN  UNL     1     -43.163 -44.040  10.229  1.00  0.00     0.166 HD
HETATM    7  C   UNL     1     -42.792 -45.946  10.956  1.00  0.00     0.119 A 
ENDROOT
BRANCH   1   8
HETATM    8  C   UNL     1     -42.535 -48.434  11.626  1.00  0.00     0.255 C 
HETATM    9  N   UNL     1     -43.440 -49.332  12.149  1.00  0.00    -0.355 N 
HETATM   10  H   UNL     1     -44.425 -49.198  11.934  1.00  0.00     0.162 HD
HETATM   11  O   UNL     1     -41.329 -48.507  11.851  1.00  0.00    -0.268 OA
BRANCH   9  12
HETATM   12  C   UNL     1     -42.997 -50.541  12.826  1.00  0.00     0.153 C 
BRANCH  12  13
HETATM   13  C   UNL     1     -44.072 -51.157  13.752  1.00  0.00     0.293 C 
BRANCH  13  14
HETATM   14  N   UNL     1     -44.710 -52.415  13.273  1.00  0.00     0.097 N 
BRANCH  14  15
HETATM   15  C   UNL     1     -46.202 -52.285  13.242  1.00  0.00     0.215 C 
HETATM   16  C   UNL     1     -46.720 -51.390  14.395  1.00  0.00     0.042 C 
HETATM   17  C   UNL     1     -46.812 -51.692  11.962  1.00  0.00     0.042 C 
ENDBRANCH  14  15
BRANCH  14  18
HETATM   18  C   UNL     1     -44.146 -53.621  13.965  1.00  0.00     0.215 C 
HETATM   19  C   UNL     1     -45.012 -54.895  13.929  1.00  0.00     0.042 C 
HETATM   20  C   UNL     1     -42.788 -54.057  13.357  1.00  0.00     0.042 C 
ENDBRANCH  14  18
ENDBRANCH  13  14
ENDBRANCH  12  13
ENDBRANCH   9  12
ENDBRANCH   1   8
BRANCH   7  21
HETATM   21  N   UNL     1     -41.864 -45.450  11.870  1.00  0.00    -0.362 N 
HETATM   22  C   UNL     1     -40.739 -44.680  11.290  1.00  0.00     0.150 C 
HETATM   23  C   UNL     1     -39.593 -44.723  12.315  1.00  0.00     0.187 C 
HETATM   24  O   UNL     1     -39.994 -44.166  13.582  1.00  0.00    -0.388 OA
HETATM   25  C   UNL     1     -41.161 -44.833  14.102  1.00  0.00     0.187 C 
HETATM   26  C   UNL     1     -42.338 -44.780  13.100  1.00  0.00     0.150 C 
ENDBRANCH   7  21
TORSDOF 7
ENDMDL
MODEL 7
REMARK VINA RESULT:      -5.4      3.159      5.111
REMARK  7 active torsions:
REMARK  status: ('A' for Active; 'I' for Inactive)
REMARK    1  A    between atoms: C_2  and  N_4 
REMARK    2  A    between atoms: N_4  and  C_5 
REMARK    3  A    between atoms: N_4  and  C_23 
REMARK    4  A    between atoms: C_5  and  C_6 
REMARK    5  A    between atoms: C_6  and  N_7 
REMARK       I    between atoms: N_7  and  C_8 
REMARK    6  A    between atoms: C_8  and  C_10 
REMARK    7  A    between atoms: C_16  and  N_17 
ROOT
HETATM    1  C   UNL     1     -39.872 -52.794  14.891  1.00  0.00     0.075 A 
HETATM    2  C   UNL     1     -40.177 -53.553  16.034  1.00  0.00     0.022 A 
HETATM    3  C   UNL     1     -39.532 -53.306  17.236  1.00  0.00     0.018 A 
HETATM    4  C   UNL     1     -38.573 -52.321  17.249  1.00  0.00     0.089 A 
HETATM    5  N   UNL     1     -38.249 -51.571  16.171  1.00  0.00    -0.352 N 
ATOM      6  HN  UNL     1     -37.529 -50.852  16.243  1.00  0.00     0.166 HD
HETATM    7  C   UNL     1     -38.892 -51.783  14.988  1.00  0.00     0.119 A 
ENDROOT
BRANCH   1   8
HETATM    8  C   UNL     1     -40.666 -53.143  13.678  1.00  0.00     0.255 C 
HETATM    9  N   UNL     1     -41.906 -52.561  13.534  1.00  0.00    -0.355 N 
HETATM   10  H   UNL     1     -42.218 -51.915  14.254  1.00  0.00     0.162 HD
HETATM   11  O   UNL     1     -40.217 -53.950  12.867  1.00  0.00    -0.268 OA
BRANCH   9  12
HETATM   12  C   UNL     1     -42.668 -52.708  12.303  1.00  0.00     0.153 C 
BRANCH  12  13
HETATM   13  C   UNL     1     -44.146 -53.102  12.539  1.00  0.00     0.293 C 
BRANCH  13  14
HETATM   14  N   UNL     1     -44.756 -52.631  13.813  1.00  0.00     0.097 N 
BRANCH  14  15
HETATM   15  C   UNL     1     -45.171 -53.786  14.672  1.00  0.00     0.215 C 
HETATM   16  C   UNL     1     -45.412 -55.064  13.830  1.00  0.00     0.042 C 
HETATM   17  C   UNL     1     -44.187 -54.207  15.776  1.00  0.00     0.042 C 
ENDBRANCH  14  15
BRANCH  14  18
HETATM   18  C   UNL     1     -45.779 -51.559  13.576  1.00  0.00     0.215 C 
HETATM   19  C   UNL     1     -46.651 -51.714  12.317  1.00  0.00     0.042 C 
HETATM   20  C   UNL     1     -46.795 -51.456  14.743  1.00  0.00     0.042 C 
ENDBRANCH  14  18
ENDBRANCH  13  14
ENDBRANCH  12  13
ENDBRANCH   9  12
ENDBRANCH   1   8
BRANCH   7  21
HETATM   21  N   UNL     1     -38.623 -50.872  13.968  1.00  0.00    -0.362 N 
HETATM   22  C   UNL     1     -38.626 -49.445  14.365  1.00  0.00     0.150 C 
HETATM   23  C   UNL     1     -38.880 -48.627  13.088  1.00  0.00     0.187 C 
HETATM   24  O   UNL     1     -37.873 -48.877  12.089  1.00  0.00    -0.388 OA
HETATM   25  C   UNL     1     -37.780 -50.281  11.778  1.00  0.00     0.187 C 
HETATM   26  C   UNL     1     -37.497 -51.124  13.044  1.00  0.00     0.150 C 
ENDBRANCH   7  21
TORSDOF 7
ENDMDL
MODEL 8
REMARK VINA RESULT:      -5.4      3.830      5.838
REMARK  7 active torsions:
REMARK  status: ('A' for Active; 'I' for Inactive)
REMARK    1  A    between atoms: C_2  and  N_4 
REMARK    2  A    between atoms: N_4  and  C_5 
REMARK    3  A    between atoms: N_4  and  C_23 
REMARK    4  A    between atoms: C_5  and  C_6 
REMARK    5  A    between atoms: C_6  and  N_7 
REMARK       I    between atoms: N_7  and  C_8 
REMARK    6  A    between atoms: C_8  and  C_10 
REMARK    7  A    between atoms: C_16  and  N_17 
ROOT
HETATM    1  C   UNL     1     -43.444 -47.221  10.620  1.00  0.00     0.075 A 
HETATM    2  C   UNL     1     -44.557 -47.785   9.973  1.00  0.00     0.022 A 
HETATM    3  C   UNL     1     -45.313 -47.030   9.088  1.00  0.00     0.018 A 
HETATM    4  C   UNL     1     -44.947 -45.717   8.902  1.00  0.00     0.089 A 
HETATM    5  N   UNL     1     -43.885 -45.140   9.509  1.00  0.00    -0.352 N 
ATOM      6  HN  UNL     1     -43.662 -44.161   9.329  1.00  0.00     0.166 HD
HETATM    7  C   UNL     1     -43.116 -45.875  10.361  1.00  0.00     0.119 A 
ENDROOT
BRANCH   1   8
HETATM    8  C   UNL     1     -42.703 -48.156  11.516  1.00  0.00     0.255 C 
HETATM    9  N   UNL     1     -41.915 -49.120  10.926  1.00  0.00    -0.355 N 
HETATM   10  H   UNL     1     -41.867 -49.143   9.911  1.00  0.00     0.162 HD
HETATM   11  O   UNL     1     -42.836 -48.067  12.734  1.00  0.00    -0.268 OA
BRANCH   9  12
HETATM   12  C   UNL     1     -41.025 -49.954  11.720  1.00  0.00     0.153 C 
BRANCH  12  13
HETATM   13  C   UNL     1     -39.604 -49.361  11.878  1.00  0.00     0.293 C 
BRANCH  13  14
HETATM   14  N   UNL     1     -39.112 -49.198  13.274  1.00  0.00     0.097 N 
BRANCH  14  15
HETATM   15  C   UNL     1     -38.717 -47.779  13.544  1.00  0.00     0.215 C 
HETATM   16  C   UNL     1     -39.855 -46.993  14.241  1.00  0.00     0.042 C 
HETATM   17  C   UNL     1     -37.477 -47.569  14.428  1.00  0.00     0.042 C 
ENDBRANCH  14  15
BRANCH  14  18
HETATM   18  C   UNL     1     -38.119 -50.262  13.640  1.00  0.00     0.215 C 
HETATM   19  C   UNL     1     -38.682 -51.501  14.361  1.00  0.00     0.042 C 
HETATM   20  C   UNL     1     -37.394 -50.833  12.394  1.00  0.00     0.042 C 
ENDBRANCH  14  18
ENDBRANCH  13  14
ENDBRANCH  12  13
ENDBRANCH   9  12
ENDBRANCH   1   8
BRANCH   7  21
HETATM   21  N   UNL     1     -41.952 -45.263  10.823  1.00  0.00    -0.362 N 
HETATM   22  C   UNL     1     -42.006 -44.742  12.210  1.00  0.00     0.150 C 
HETATM   23  C   UNL     1     -40.920 -43.660  12.323  1.00  0.00     0.187 C 
HETATM   24  O   UNL     1     -39.613 -44.186  12.026  1.00  0.00    -0.388 OA
HETATM   25  C   UNL     1     -39.579 -44.800  10.722  1.00  0.00     0.187 C 
HETATM   26  C   UNL     1     -40.645 -45.913  10.592  1.00  0.00     0.150 C 
ENDBRANCH   7  21
TORSDOF 7
ENDMDL
MODEL 9
REMARK VINA RESULT:      -5.4      1.495      1.853
REMARK  7 active torsions:
REMARK  status: ('A' for Active; 'I' for Inactive)
REMARK    1  A    between atoms: C_2  and  N_4 
REMARK    2  A    between atoms: N_4  and  C_5 
REMARK    3  A    between atoms: N_4  and  C_23 
REMARK    4  A    between atoms: C_5  and  C_6 
REMARK    5  A    between atoms: C_6  and  N_7 
REMARK       I    between atoms: N_7  and  C_8 
REMARK    6  A    between atoms: C_8  and  C_10 
REMARK    7  A    between atoms: C_16  and  N_17 
ROOT
HETATM    1  C   UNL     1     -41.917 -47.934  12.046  1.00  0.00     0.075 A 
HETATM    2  C   UNL     1     -42.785 -47.145  11.272  1.00  0.00     0.022 A 
HETATM    3  C   UNL     1     -42.279 -46.211  10.380  1.00  0.00     0.018 A 
HETATM    4  C   UNL     1     -40.913 -46.074  10.314  1.00  0.00     0.089 A 
HETATM    5  N   UNL     1     -40.046 -46.812  11.043  1.00  0.00    -0.352 N 
ATOM      6  HN  UNL     1     -39.041 -46.666  10.949  1.00  0.00     0.166 HD
HETATM    7  C   UNL     1     -40.525 -47.753  11.906  1.00  0.00     0.119 A 
ENDROOT
BRANCH   1   8
HETATM    8  C   UNL     1     -42.595 -48.920  12.936  1.00  0.00     0.255 C 
HETATM    9  N   UNL     1     -42.604 -50.240  12.541  1.00  0.00    -0.355 N 
HETATM   10  H   UNL     1     -42.140 -50.482  11.669  1.00  0.00     0.162 HD
HETATM   11  O   UNL     1     -43.148 -48.536  13.964  1.00  0.00    -0.268 OA
BRANCH   9  12
HETATM   12  C   UNL     1     -43.086 -51.288  13.428  1.00  0.00     0.153 C 
BRANCH  12  13
HETATM   13  C   UNL     1     -43.507 -52.578  12.683  1.00  0.00     0.293 C 
BRANCH  13  14
HETATM   14  N   UNL     1     -44.880 -53.081  12.966  1.00  0.00     0.097 N 
BRANCH  14  15
HETATM   15  C   UNL     1     -45.857 -51.950  13.075  1.00  0.00     0.215 C 
HETATM   16  C   UNL     1     -46.852 -51.940  11.888  1.00  0.00     0.042 C 
HETATM   17  C   UNL     1     -46.732 -51.921  14.339  1.00  0.00     0.042 C 
ENDBRANCH  14  15
BRANCH  14  18
HETATM   18  C   UNL     1     -44.884 -54.092  14.074  1.00  0.00     0.215 C 
HETATM   19  C   UNL     1     -45.713 -55.367  13.832  1.00  0.00     0.042 C 
HETATM   20  C   UNL     1     -43.457 -54.611  14.392  1.00  0.00     0.042 C 
ENDBRANCH  14  18
ENDBRANCH  13  14
ENDBRANCH  12  13
ENDBRANCH   9  12
ENDBRANCH   1   8
BRANCH   7  21
HETATM   21  N   UNL     1     -39.576 -48.581  12.503  1.00  0.00    -0.362 N 
HETATM   22  C   UNL     1     -38.988 -49.620  11.627  1.00  0.00     0.150 C 
HETATM   23  C   UNL     1     -38.448 -50.727  12.547  1.00  0.00     0.187 C 
HETATM   24  O   UNL     1     -37.464 -50.219  13.468  1.00  0.00    -0.388 OA
HETATM   25  C   UNL     1     -37.990 -49.127  14.248  1.00  0.00     0.187 C 
HETATM   26  C   UNL     1     -38.515 -47.987  13.344  1.00  0.00     0.150 C 
ENDBRANCH   7  21
TORSDOF 7
ENDMDL
