MODEL 1
REMARK VINA RESULT:      -6.9      0.000      0.000
REMARK  5 active torsions:
REMARK  status: ('A' for Active; 'I' for Inactive)
REMARK    1  A    between atoms: C_2  and  C_4 
REMARK    2  A    between atoms: C_4  and  C_5 
REMARK    3  A    between atoms: C_4  and  N_18 
REMARK    4  A    between atoms: C_5  and  N_6 
REMARK       I    between atoms: N_6  and  C_7 
REMARK       I    between atoms: C_7  and  N_9 
REMARK    5  A    between atoms: N_9  and  C_10 
ROOT
HETATM    1  N   UNL     1     -41.174 -51.897  11.737  1.00  0.00    -0.341 N 
HETATM    2  C   UNL     1     -42.134 -52.230  12.658  1.00  0.00     0.320 C 
HETATM    3  O   UNL     1     -41.924 -52.158  13.866  1.00  0.00    -0.247 OA
HETATM    4  N   UNL     1     -43.310 -52.658  12.086  1.00  0.00    -0.306 N 
HETATM    5  H   UNL     1     -41.399 -51.782  10.758  1.00  0.00     0.164 HD
HETATM    6  H   UNL     1     -43.473 -52.392  11.123  1.00  0.00     0.171 HD
ENDROOT
BRANCH   1   7
HETATM    7  C   UNL     1     -39.931 -51.303  12.198  1.00  0.00     0.149 C 
BRANCH   7   8
HETATM    8  C   UNL     1     -39.617 -49.890  11.597  1.00  0.00     0.100 C 
BRANCH   8   9
HETATM    9  C   UNL     1     -38.064 -49.608  11.761  1.00  0.00     0.001 C 
HETATM   10  C   UNL     1     -37.475 -50.324  12.998  1.00  0.00     0.011 C 
HETATM   11  C   UNL     1     -37.171 -50.022  10.586  1.00  0.00     0.011 C 
ENDBRANCH   8   9
BRANCH   8  12
HETATM   12  N   UNL     1     -40.658 -48.928  12.057  1.00  0.00    -0.403 N 
HETATM   13  C   UNL     1     -41.884 -48.809  11.261  1.00  0.00     0.147 C 
HETATM   14  C   UNL     1     -41.932 -47.671  10.204  1.00  0.00     0.291 C 
HETATM   15  N   UNL     1     -41.266 -46.396  10.527  1.00  0.00     0.087 N 
HETATM   16  C   UNL     1     -42.206 -45.449  11.109  1.00  0.00     0.310 C 
HETATM   17  C   UNL     1     -40.072 -46.583  11.370  1.00  0.00     0.291 C 
HETATM   18  C   UNL     1     -40.238 -47.596  12.509  1.00  0.00     0.147 C 
ENDBRANCH   8  12
ENDBRANCH   7   8
ENDBRANCH   1   7
BRANCH   4  19
HETATM   19  C   UNL     1     -44.412 -53.202  12.789  1.00  0.00     0.077 A 
HETATM   20  C   UNL     1     -44.512 -54.548  13.139  1.00  0.00     0.050 A 
HETATM   21  C   UNL     1     -45.631 -54.976  13.839  1.00  0.00     0.090 A 
HETATM   22  N   UNL     1     -46.649 -54.166  14.205  1.00  0.00    -0.372 N 
HETATM   23  C   UNL     1     -46.538 -52.867  13.840  1.00  0.00     0.132 A 
ATOM     24  HN  UNL     1     -47.454 -54.513  14.725  1.00  0.00     0.164 HD
HETATM   25  C   UNL     1     -45.463 -52.354  13.136  1.00  0.00     0.158 A 
HETATM   26  F   UNL     1     -45.425 -51.052  12.813  1.00  0.00    -0.202 F 
ENDBRANCH   4  19
TORSDOF 5
ENDMDL
MODEL 2
REMARK VINA RESULT:      -6.2      1.554      3.300
REMARK  5 active torsions:
REMARK  status: ('A' for Active; 'I' for Inactive)
REMARK    1  A    between atoms: C_2  and  C_4 
REMARK    2  A    between atoms: C_4  and  C_5 
REMARK    3  A    between atoms: C_4  and  N_18 
REMARK    4  A    between atoms: C_5  and  N_6 
REMARK       I    between atoms: N_6  and  C_7 
REMARK       I    between atoms: C_7  and  N_9 
REMARK    5  A    between atoms: N_9  and  C_10 
ROOT
HETATM    1  N   UNL     1     -41.870 -51.349  11.754  1.00  0.00    -0.341 N 
HETATM    2  C   UNL     1     -42.656 -51.899  12.734  1.00  0.00     0.320 C 
HETATM    3  O   UNL     1     -42.287 -51.953  13.905  1.00  0.00    -0.247 OA
HETATM    4  N   UNL     1     -43.853 -52.385  12.261  1.00  0.00    -0.306 N 
HETATM    5  H   UNL     1     -42.239 -51.142  10.836  1.00  0.00     0.164 HD
HETATM    6  H   UNL     1     -44.174 -52.023  11.372  1.00  0.00     0.171 HD
ENDROOT
BRANCH   1   7
HETATM    7  C   UNL     1     -40.638 -50.679  12.132  1.00  0.00     0.149 C 
BRANCH   7   8
HETATM    8  C   UNL     1     -40.798 -49.160  12.480  1.00  0.00     0.100 C 
BRANCH   8   9
HETATM    9  C   UNL     1     -41.914 -48.543  11.535  1.00  0.00     0.001 C 
HETATM   10  C   UNL     1     -43.066 -47.902  12.343  1.00  0.00     0.011 C 
HETATM   11  C   UNL     1     -41.451 -47.461  10.553  1.00  0.00     0.011 C 
ENDBRANCH   8   9
BRANCH   8  12
HETATM   12  N   UNL     1     -39.445 -48.553  12.623  1.00  0.00    -0.403 N 
HETATM   13  C   UNL     1     -38.303 -49.453  12.813  1.00  0.00     0.147 C 
HETATM   14  C   UNL     1     -37.851 -49.722  14.274  1.00  0.00     0.291 C 
HETATM   15  N   UNL     1     -37.946 -48.615  15.245  1.00  0.00     0.087 N 
HETATM   16  C   UNL     1     -36.687 -47.890  15.335  1.00  0.00     0.310 C 
HETATM   17  C   UNL     1     -39.084 -47.720  14.967  1.00  0.00     0.291 C 
HETATM   18  C   UNL     1     -39.287 -47.375  13.486  1.00  0.00     0.147 C 
ENDBRANCH   8  12
ENDBRANCH   7   8
ENDBRANCH   1   7
BRANCH   4  19
HETATM   19  C   UNL     1     -44.789 -53.132  13.017  1.00  0.00     0.077 A 
HETATM   20  C   UNL     1     -44.713 -54.514  13.186  1.00  0.00     0.050 A 
HETATM   21  C   UNL     1     -45.676 -55.149  13.956  1.00  0.00     0.090 A 
HETATM   22  N   UNL     1     -46.703 -54.509  14.559  1.00  0.00    -0.372 N 
HETATM   23  C   UNL     1     -46.767 -53.171  14.368  1.00  0.00     0.132 A 
ATOM     24  HN  UNL     1     -47.390 -55.006  15.124  1.00  0.00     0.164 HD
HETATM   25  C   UNL     1     -45.855 -52.457  13.611  1.00  0.00     0.158 A 
HETATM   26  F   UNL     1     -45.985 -51.129  13.471  1.00  0.00    -0.202 F 
ENDBRANCH   4  19
TORSDOF 5
ENDMDL
MODEL 3
REMARK VINA RESULT:      -6.2      3.126      5.927
REMARK  5 active torsions:
REMARK  status: ('A' for Active; 'I' for Inactive)
REMARK    1  A    between atoms: C_2  and  C_4 
REMARK    2  A    between atoms: C_4  and  C_5 
REMARK    3  A    between atoms: C_4  and  N_18 
REMARK    4  A    between atoms: C_5  and  N_6 
REMARK       I    between atoms: N_6  and  C_7 
REMARK       I    between atoms: C_7  and  N_9 
REMARK    5  A    between atoms: N_9  and  C_10 
ROOT
HETATM    1  N   UNL     1     -41.312 -50.571  11.600  1.00  0.00    -0.341 N 
HETATM    2  C   UNL     1     -42.025 -49.400  11.581  1.00  0.00     0.320 C 
HETATM    3  O   UNL     1     -42.729 -49.056  12.527  1.00  0.00    -0.247 OA
HETATM    4  N   UNL     1     -41.879 -48.695  10.409  1.00  0.00    -0.306 N 
HETATM    5  H   UNL     1     -40.599 -50.767  10.910  1.00  0.00     0.164 HD
HETATM    6  H   UNL     1     -41.065 -48.907   9.846  1.00  0.00     0.171 HD
ENDROOT
BRANCH   1   7
HETATM    7  C   UNL     1     -41.268 -51.350  12.826  1.00  0.00     0.149 C 
BRANCH   7   8
HETATM    8  C   UNL     1     -39.988 -52.239  12.992  1.00  0.00     0.100 C 
BRANCH   8   9
HETATM    9  C   UNL     1     -40.447 -53.737  13.243  1.00  0.00     0.001 C 
HETATM   10  C   UNL     1     -39.423 -54.519  14.099  1.00  0.00     0.011 C 
HETATM   11  C   UNL     1     -41.796 -53.926  13.946  1.00  0.00     0.011 C 
ENDBRANCH   8   9
BRANCH   8  12
HETATM   12  N   UNL     1     -39.026 -51.535  13.886  1.00  0.00    -0.403 N 
HETATM   13  C   UNL     1     -39.561 -50.562  14.843  1.00  0.00     0.147 C 
HETATM   14  C   UNL     1     -39.563 -49.071  14.408  1.00  0.00     0.291 C 
HETATM   15  N   UNL     1     -38.441 -48.587  13.582  1.00  0.00     0.087 N 
HETATM   16  C   UNL     1     -37.396 -48.004  14.410  1.00  0.00     0.310 C 
HETATM   17  C   UNL     1     -37.918 -49.629  12.680  1.00  0.00     0.291 C 
HETATM   18  C   UNL     1     -37.776 -51.018  13.312  1.00  0.00     0.147 C 
ENDBRANCH   8  12
ENDBRANCH   7   8
ENDBRANCH   1   7
BRANCH   4  19
HETATM   19  C   UNL     1     -42.609 -47.534  10.056  1.00  0.00     0.077 A 
HETATM   20  C   UNL     1     -43.744 -47.556   9.247  1.00  0.00     0.050 A 
HETATM   21  C   UNL     1     -44.394 -46.362   8.970  1.00  0.00     0.090 A 
HETATM   22  N   UNL     1     -43.990 -45.158   9.434  1.00  0.00    -0.372 N 
HETATM   23  C   UNL     1     -42.877 -45.158  10.203  1.00  0.00     0.132 A 
ATOM     24  HN  UNL     1     -44.495 -44.300   9.217  1.00  0.00     0.164 HD
HETATM   25  C   UNL     1     -42.162 -46.299  10.525  1.00  0.00     0.158 A 
HETATM   26  F   UNL     1     -41.068 -46.217  11.296  1.00  0.00    -0.202 F 
ENDBRANCH   4  19
TORSDOF 5
ENDMDL
MODEL 4
REMARK VINA RESULT:      -6.2      1.695      2.267
REMARK  5 active torsions:
REMARK  status: ('A' for Active; 'I' for Inactive)
REMARK    1  A    between atoms: C_2  and  C_4 
REMARK    2  A    between atoms: C_4  and  C_5 
REMARK    3  A    between atoms: C_4  and  N_18 
REMARK    4  A    between atoms: C_5  and  N_6 
REMARK       I    between atoms: N_6  and  C_7 
REMARK       I    between atoms: C_7  and  N_9 
REMARK    5  A    between atoms: N_9  and  C_10 
ROOT
HETATM    1  N   UNL     1     -43.031 -49.727  12.401  1.00  0.00    -0.341 N 
HETATM    2  C   UNL     1     -43.594 -50.644  13.251  1.00  0.00     0.320 C 
HETATM    3  O   UNL     1     -43.228 -50.752  14.419  1.00  0.00    -0.247 OA
HETATM    4  N   UNL     1     -44.566 -51.412  12.655  1.00  0.00    -0.306 N 
HETATM    5  H   UNL     1     -43.448 -49.512  11.505  1.00  0.00     0.164 HD
HETATM    6  H   UNL     1     -44.988 -51.043  11.812  1.00  0.00     0.171 HD
ENDROOT
BRANCH   1   7
HETATM    7  C   UNL     1     -42.086 -48.760  12.933  1.00  0.00     0.149 C 
BRANCH   7   8
HETATM    8  C   UNL     1     -41.141 -48.111  11.864  1.00  0.00     0.100 C 
BRANCH   8   9
HETATM    9  C   UNL     1     -39.638 -48.403  12.279  1.00  0.00     0.001 C 
HETATM   10  C   UNL     1     -39.491 -48.616  13.803  1.00  0.00     0.011 C 
HETATM   11  C   UNL     1     -38.978 -49.625  11.631  1.00  0.00     0.011 C 
ENDBRANCH   8   9
BRANCH   8  12
HETATM   12  N   UNL     1     -41.635 -46.740  11.553  1.00  0.00    -0.403 N 
HETATM   13  C   UNL     1     -41.059 -46.048  10.395  1.00  0.00     0.147 C 
HETATM   14  C   UNL     1     -39.875 -45.080  10.667  1.00  0.00     0.291 C 
HETATM   15  N   UNL     1     -39.886 -44.304  11.920  1.00  0.00     0.087 N 
HETATM   16  C   UNL     1     -40.482 -42.992  11.717  1.00  0.00     0.310 C 
HETATM   17  C   UNL     1     -40.522 -45.037  13.030  1.00  0.00     0.291 C 
HETATM   18  C   UNL     1     -41.807 -45.785  12.656  1.00  0.00     0.147 C 
ENDBRANCH   8  12
ENDBRANCH   7   8
ENDBRANCH   1   7
BRANCH   4  19
HETATM   19  C   UNL     1     -45.206 -52.528  13.247  1.00  0.00     0.077 A 
HETATM   20  C   UNL     1     -44.747 -53.837  13.114  1.00  0.00     0.050 A 
HETATM   21  C   UNL     1     -45.443 -54.859  13.746  1.00  0.00     0.090 A 
HETATM   22  N   UNL     1     -46.556 -54.667  14.488  1.00  0.00    -0.372 N 
HETATM   23  C   UNL     1     -46.993 -53.391  14.590  1.00  0.00     0.132 A 
ATOM     24  HN  UNL     1     -47.039 -55.440  14.945  1.00  0.00     0.164 HD
HETATM   25  C   UNL     1     -46.368 -52.312  13.989  1.00  0.00     0.158 A 
HETATM   26  F   UNL     1     -46.861 -51.074  14.139  1.00  0.00    -0.202 F 
ENDBRANCH   4  19
TORSDOF 5
ENDMDL
MODEL 5
REMARK VINA RESULT:      -6.2      2.511      7.654
REMARK  5 active torsions:
REMARK  status: ('A' for Active; 'I' for Inactive)
REMARK    1  A    between atoms: C_2  and  C_4 
REMARK    2  A    between atoms: C_4  and  C_5 
REMARK    3  A    between atoms: C_4  and  N_18 
REMARK    4  A    between atoms: C_5  and  N_6 
REMARK       I    between atoms: N_6  and  C_7 
REMARK       I    between atoms: C_7  and  N_9 
REMARK    5  A    between atoms: N_9  and  C_10 
ROOT
HETATM    1  N   UNL     1     -43.358 -50.991  12.780  1.00  0.00    -0.341 N 
HETATM    2  C   UNL     1     -42.929 -49.694  12.670  1.00  0.00     0.320 C 
HETATM    3  O   UNL     1     -43.185 -48.853  13.528  1.00  0.00    -0.247 OA
HETATM    4  N   UNL     1     -42.221 -49.452  11.515  1.00  0.00    -0.306 N 
HETATM    5  H   UNL     1     -43.000 -51.719  12.176  1.00  0.00     0.164 HD
HETATM    6  H   UNL     1     -41.818 -50.256  11.050  1.00  0.00     0.171 HD
ENDROOT
BRANCH   1   7
HETATM    7  C   UNL     1     -44.002 -51.418  14.011  1.00  0.00     0.149 C 
BRANCH   7   8
HETATM    8  C   UNL     1     -44.802 -52.761  13.899  1.00  0.00     0.100 C 
BRANCH   8   9
HETATM    9  C   UNL     1     -46.338 -52.414  13.696  1.00  0.00     0.001 C 
HETATM   10  C   UNL     1     -46.843 -51.395  14.743  1.00  0.00     0.011 C 
HETATM   11  C   UNL     1     -46.728 -51.829  12.334  1.00  0.00     0.011 C 
ENDBRANCH   8   9
BRANCH   8  12
HETATM   12  N   UNL     1     -44.326 -53.695  14.958  1.00  0.00    -0.403 N 
HETATM   13  C   UNL     1     -43.804 -53.118  16.201  1.00  0.00     0.147 C 
HETATM   14  C   UNL     1     -42.266 -52.926  16.300  1.00  0.00     0.291 C 
HETATM   15  N   UNL     1     -41.398 -53.934  15.663  1.00  0.00     0.087 N 
HETATM   16  C   UNL     1     -41.001 -54.959  16.616  1.00  0.00     0.310 C 
HETATM   17  C   UNL     1     -42.003 -54.509  14.448  1.00  0.00     0.291 C 
HETATM   18  C   UNL     1     -43.495 -54.842  14.565  1.00  0.00     0.147 C 
ENDBRANCH   8  12
ENDBRANCH   7   8
ENDBRANCH   1   7
BRANCH   4  19
HETATM   19  C   UNL     1     -41.788 -48.179  11.071  1.00  0.00     0.077 A 
HETATM   20  C   UNL     1     -40.530 -47.652  11.359  1.00  0.00     0.050 A 
HETATM   21  C   UNL     1     -40.200 -46.397  10.866  1.00  0.00     0.090 A 
HETATM   22  N   UNL     1     -41.032 -45.638  10.119  1.00  0.00    -0.372 N 
HETATM   23  C   UNL     1     -42.253 -46.162   9.865  1.00  0.00     0.132 A 
ATOM     24  HN  UNL     1     -40.755 -44.723   9.766  1.00  0.00     0.164 HD
HETATM   25  C   UNL     1     -42.670 -47.401  10.321  1.00  0.00     0.158 A 
HETATM   26  F   UNL     1     -43.897 -47.853  10.026  1.00  0.00    -0.202 F 
ENDBRANCH   4  19
TORSDOF 5
ENDMDL
MODEL 6
REMARK VINA RESULT:      -6.1      3.341      5.096
REMARK  5 active torsions:
REMARK  status: ('A' for Active; 'I' for Inactive)
REMARK    1  A    between atoms: C_2  and  C_4 
REMARK    2  A    between atoms: C_4  and  C_5 
REMARK    3  A    between atoms: C_4  and  N_18 
REMARK    4  A    between atoms: C_5  and  N_6 
REMARK       I    between atoms: N_6  and  C_7 
REMARK       I    between atoms: C_7  and  N_9 
REMARK    5  A    between atoms: N_9  and  C_10 
ROOT
HETATM    1  N   UNL     1     -42.265 -49.069  11.173  1.00  0.00    -0.341 N 
HETATM    2  C   UNL     1     -41.277 -49.937  11.562  1.00  0.00     0.320 C 
HETATM    3  O   UNL     1     -40.197 -49.990  10.979  1.00  0.00    -0.247 OA
HETATM    4  N   UNL     1     -41.637 -50.726  12.630  1.00  0.00    -0.306 N 
HETATM    5  H   UNL     1     -43.074 -48.896  11.754  1.00  0.00     0.164 HD
HETATM    6  H   UNL     1     -42.401 -50.395  13.205  1.00  0.00     0.171 HD
ENDROOT
BRANCH   1   7
HETATM    7  C   UNL     1     -41.974 -48.085  10.144  1.00  0.00     0.149 C 
BRANCH   7   8
HETATM    8  C   UNL     1     -42.845 -46.784  10.217  1.00  0.00     0.100 C 
BRANCH   8   9
HETATM    9  C   UNL     1     -43.975 -46.874   9.106  1.00  0.00     0.001 C 
HETATM   10  C   UNL     1     -43.528 -47.726   7.895  1.00  0.00     0.011 C 
HETATM   11  C   UNL     1     -45.318 -47.467   9.548  1.00  0.00     0.011 C 
ENDBRANCH   8   9
BRANCH   8  12
HETATM   12  N   UNL     1     -41.943 -45.606  10.347  1.00  0.00    -0.403 N 
HETATM   13  C   UNL     1     -40.536 -45.851  10.684  1.00  0.00     0.147 C 
HETATM   14  C   UNL     1     -40.143 -45.760  12.183  1.00  0.00     0.291 C 
HETATM   15  N   UNL     1     -40.822 -44.753  13.020  1.00  0.00     0.087 N 
HETATM   16  C   UNL     1     -40.053 -43.520  13.082  1.00  0.00     0.310 C 
HETATM   17  C   UNL     1     -42.215 -44.519  12.597  1.00  0.00     0.291 C 
HETATM   18  C   UNL     1     -42.422 -44.427  11.081  1.00  0.00     0.147 C 
ENDBRANCH   8  12
ENDBRANCH   7   8
ENDBRANCH   1   7
BRANCH   4  19
HETATM   19  C   UNL     1     -40.877 -51.804  13.143  1.00  0.00     0.077 A 
HETATM   20  C   UNL     1     -41.116 -53.138  12.816  1.00  0.00     0.050 A 
HETATM   21  C   UNL     1     -40.304 -54.120  13.366  1.00  0.00     0.090 A 
HETATM   22  N   UNL     1     -39.285 -53.866  14.217  1.00  0.00    -0.372 N 
HETATM   23  C   UNL     1     -39.081 -52.567  14.534  1.00  0.00     0.132 A 
ATOM     24  HN  UNL     1     -38.703 -54.612  14.598  1.00  0.00     0.164 HD
HETATM   25  C   UNL     1     -39.844 -51.524  14.038  1.00  0.00     0.158 A 
HETATM   26  F   UNL     1     -39.578 -50.260  14.399  1.00  0.00    -0.202 F 
ENDBRANCH   4  19
TORSDOF 5
ENDMDL
MODEL 7
REMARK VINA RESULT:      -6.1      3.189      6.441
REMARK  5 active torsions:
REMARK  status: ('A' for Active; 'I' for Inactive)
REMARK    1  A    between atoms: C_2  and  C_4 
REMARK    2  A    between atoms: C_4  and  C_5 
REMARK    3  A    between atoms: C_4  and  N_18 
REMARK    4  A    between atoms: C_5  and  N_6 
REMARK       I    between atoms: N_6  and  C_7 
REMARK       I    between atoms: C_7  and  N_9 
REMARK    5  A    between atoms: N_9  and  C_10 
ROOT
HETATM    1  N   UNL     1     -40.594 -50.459  11.107  1.00  0.00    -0.341 N 
HETATM    2  C   UNL     1     -41.498 -49.431  11.179  1.00  0.00     0.320 C 
HETATM    3  O   UNL     1     -42.333 -49.365  12.078  1.00  0.00    -0.247 OA
HETATM    4  N   UNL     1     -41.375 -48.527  10.149  1.00  0.00    -0.306 N 
HETATM    5  H   UNL     1     -39.800 -50.421  10.483  1.00  0.00     0.164 HD
HETATM    6  H   UNL     1     -40.490 -48.509   9.659  1.00  0.00     0.171 HD
ENDROOT
BRANCH   1   7
HETATM    7  C   UNL     1     -40.523 -51.412  12.201  1.00  0.00     0.149 C 
BRANCH   7   8
HETATM    8  C   UNL     1     -39.589 -50.983  13.385  1.00  0.00     0.100 C 
BRANCH   8   9
HETATM    9  C   UNL     1     -38.360 -50.177  12.787  1.00  0.00     0.001 C 
HETATM   10  C   UNL     1     -37.769 -49.181  13.812  1.00  0.00     0.011 C 
HETATM   11  C   UNL     1     -37.171 -51.013  12.299  1.00  0.00     0.011 C 
ENDBRANCH   8   9
BRANCH   8  12
HETATM   12  N   UNL     1     -39.416 -52.141  14.306  1.00  0.00    -0.403 N 
HETATM   13  C   UNL     1     -39.685 -53.484  13.781  1.00  0.00     0.147 C 
HETATM   14  C   UNL     1     -41.102 -54.068  14.028  1.00  0.00     0.291 C 
HETATM   15  N   UNL     1     -41.775 -53.746  15.300  1.00  0.00     0.087 N 
HETATM   16  C   UNL     1     -41.533 -54.779  16.296  1.00  0.00     0.310 C 
HETATM   17  C   UNL     1     -41.423 -52.403  15.797  1.00  0.00     0.291 C 
HETATM   18  C   UNL     1     -39.938 -52.039  15.675  1.00  0.00     0.147 C 
ENDBRANCH   8  12
ENDBRANCH   7   8
ENDBRANCH   1   7
BRANCH   4  19
HETATM   19  C   UNL     1     -42.264 -47.456   9.889  1.00  0.00     0.077 A 
HETATM   20  C   UNL     1     -43.370 -47.561   9.046  1.00  0.00     0.050 A 
HETATM   21  C   UNL     1     -44.185 -46.453   8.869  1.00  0.00     0.090 A 
HETATM   22  N   UNL     1     -43.973 -45.257   9.462  1.00  0.00    -0.372 N 
HETATM   23  C   UNL     1     -42.886 -45.172  10.263  1.00  0.00     0.132 A 
ATOM     24  HN  UNL     1     -44.597 -44.464   9.315  1.00  0.00     0.164 HD
HETATM   25  C   UNL     1     -42.015 -46.223  10.493  1.00  0.00     0.158 A 
HETATM   26  F   UNL     1     -40.958 -46.061  11.303  1.00  0.00    -0.202 F 
ENDBRANCH   4  19
TORSDOF 5
ENDMDL
MODEL 8
REMARK VINA RESULT:      -6.1      2.433      7.243
REMARK  5 active torsions:
REMARK  status: ('A' for Active; 'I' for Inactive)
REMARK    1  A    between atoms: C_2  and  C_4 
REMARK    2  A    between atoms: C_4  and  C_5 
REMARK    3  A    between atoms: C_4  and  N_18 
REMARK    4  A    between atoms: C_5  and  N_6 
REMARK       I    between atoms: N_6  and  C_7 
REMARK       I    between atoms: C_7  and  N_9 
REMARK    5  A    between atoms: N_9  and  C_10 
ROOT
HETATM    1  N   UNL     1     -43.739 -50.846  12.730  1.00  0.00    -0.341 N 
HETATM    2  C   UNL     1     -43.074 -49.648  12.676  1.00  0.00     0.320 C 
HETATM    3  O   UNL     1     -42.916 -48.950  13.675  1.00  0.00    -0.247 OA
HETATM    4  N   UNL     1     -42.642 -49.324  11.410  1.00  0.00    -0.306 N 
HETATM    5  H   UNL     1     -43.713 -51.499  11.960  1.00  0.00     0.164 HD
HETATM    6  H   UNL     1     -42.556 -50.085  10.748  1.00  0.00     0.171 HD
ENDROOT
BRANCH   1   7
HETATM    7  C   UNL     1     -44.134 -51.375  14.025  1.00  0.00     0.149 C 
BRANCH   7   8
HETATM    8  C   UNL     1     -44.056 -52.935  14.147  1.00  0.00     0.100 C 
BRANCH   8   9
HETATM    9  C   UNL     1     -45.482 -53.476  14.585  1.00  0.00     0.001 C 
HETATM   10  C   UNL     1     -46.623 -52.545  14.114  1.00  0.00     0.011 C 
HETATM   11  C   UNL     1     -45.862 -54.874  14.084  1.00  0.00     0.011 C 
ENDBRANCH   8   9
BRANCH   8  12
HETATM   12  N   UNL     1     -42.804 -53.300  14.869  1.00  0.00    -0.403 N 
HETATM   13  C   UNL     1     -41.849 -52.229  15.175  1.00  0.00     0.147 C 
HETATM   14  C   UNL     1     -40.683 -52.015  14.172  1.00  0.00     0.291 C 
HETATM   15  N   UNL     1     -40.105 -53.203  13.515  1.00  0.00     0.087 N 
HETATM   16  C   UNL     1     -38.949 -53.695  14.249  1.00  0.00     0.310 C 
HETATM   17  C   UNL     1     -41.107 -54.259  13.282  1.00  0.00     0.291 C 
HETATM   18  C   UNL     1     -42.072 -54.502  14.449  1.00  0.00     0.147 C 
ENDBRANCH   8  12
ENDBRANCH   7   8
ENDBRANCH   1   7
BRANCH   4  19
HETATM   19  C   UNL     1     -42.062 -48.088  11.035  1.00  0.00     0.077 A 
HETATM   20  C   UNL     1     -40.736 -47.748  11.299  1.00  0.00     0.050 A 
HETATM   21  C   UNL     1     -40.264 -46.514  10.877  1.00  0.00     0.090 A 
HETATM   22  N   UNL     1     -41.015 -45.602  10.223  1.00  0.00    -0.372 N 
HETATM   23  C   UNL     1     -42.303 -45.945   9.991  1.00  0.00     0.132 A 
ATOM     24  HN  UNL     1     -40.634 -44.706   9.920  1.00  0.00     0.164 HD
HETATM   25  C   UNL     1     -42.862 -47.150  10.381  1.00  0.00     0.158 A 
HETATM   26  F   UNL     1     -44.148 -47.418  10.112  1.00  0.00    -0.202 F 
ENDBRANCH   4  19
TORSDOF 5
ENDMDL
MODEL 9
REMARK VINA RESULT:      -5.7      2.822      7.257
REMARK  5 active torsions:
REMARK  status: ('A' for Active; 'I' for Inactive)
REMARK    1  A    between atoms: C_2  and  C_4 
REMARK    2  A    between atoms: C_4  and  C_5 
REMARK    3  A    between atoms: C_4  and  N_18 
REMARK    4  A    between atoms: C_5  and  N_6 
REMARK       I    between atoms: N_6  and  C_7 
REMARK       I    between atoms: C_7  and  N_9 
REMARK    5  A    between atoms: N_9  and  C_10 
ROOT
HETATM    1  N   UNL     1     -39.993 -48.971  10.880  1.00  0.00    -0.341 N 
HETATM    2  C   UNL     1     -40.045 -47.696  11.380  1.00  0.00     0.320 C 
HETATM    3  O   UNL     1     -39.520 -47.399  12.451  1.00  0.00    -0.247 OA
HETATM    4  N   UNL     1     -40.749 -46.826  10.579  1.00  0.00    -0.306 N 
HETATM    5  H   UNL     1     -40.261 -49.176   9.927  1.00  0.00     0.164 HD
HETATM    6  H   UNL     1     -40.866 -47.092   9.609  1.00  0.00     0.171 HD
ENDROOT
BRANCH   1   7
HETATM    7  C   UNL     1     -39.170 -49.960  11.555  1.00  0.00     0.149 C 
BRANCH   7   8
HETATM    8  C   UNL     1     -39.892 -50.734  12.710  1.00  0.00     0.100 C 
BRANCH   8   9
HETATM    9  C   UNL     1     -38.804 -51.560  13.519  1.00  0.00     0.001 C 
HETATM   10  C   UNL     1     -37.366 -51.106  13.179  1.00  0.00     0.011 C 
HETATM   11  C   UNL     1     -38.902 -51.498  15.047  1.00  0.00     0.011 C 
ENDBRANCH   8   9
BRANCH   8  12
HETATM   12  N   UNL     1     -41.132 -51.359  12.170  1.00  0.00    -0.403 N 
HETATM   13  C   UNL     1     -42.416 -50.961  12.758  1.00  0.00     0.147 C 
HETATM   14  C   UNL     1     -42.985 -51.862  13.888  1.00  0.00     0.291 C 
HETATM   15  N   UNL     1     -42.761 -53.317  13.795  1.00  0.00     0.087 N 
HETATM   16  C   UNL     1     -43.886 -53.978  13.150  1.00  0.00     0.310 C 
HETATM   17  C   UNL     1     -41.478 -53.648  13.149  1.00  0.00     0.291 C 
HETATM   18  C   UNL     1     -41.141 -52.805  11.913  1.00  0.00     0.147 C 
ENDBRANCH   8  12
ENDBRANCH   7   8
ENDBRANCH   1   7
BRANCH   4  19
HETATM   19  C   UNL     1     -41.088 -45.494  10.917  1.00  0.00     0.077 A 
HETATM   20  C   UNL     1     -42.307 -45.132  11.489  1.00  0.00     0.050 A 
HETATM   21  C   UNL     1     -42.535 -43.798  11.792  1.00  0.00     0.090 A 
HETATM   22  N   UNL     1     -41.644 -42.808  11.562  1.00  0.00    -0.372 N 
HETATM   23  C   UNL     1     -40.475 -43.179  10.992  1.00  0.00     0.132 A 
ATOM     24  HN  UNL     1     -41.842 -41.838  11.804  1.00  0.00     0.164 HD
HETATM   25  C   UNL     1     -40.164 -44.484  10.649  1.00  0.00     0.158 A 
HETATM   26  F   UNL     1     -38.981 -44.773  10.088  1.00  0.00    -0.202 F 
ENDBRANCH   4  19
TORSDOF 5
ENDMDL
