MODEL 1
REMARK VINA RESULT:      -6.5      0.000      0.000
REMARK  6 active torsions:
REMARK  status: ('A' for Active; 'I' for Inactive)
REMARK    1  A    between atoms: N_6  and  C_7 
REMARK    2  A    between atoms: C_7  and  C_8 
REMARK    3  A    between atoms: C_8  and  O_9 
REMARK    4  A    between atoms: C_8  and  C_10 
REMARK    5  A    between atoms: C_13  and  O_14 
REMARK    6  A    between atoms: O_14  and  C_15 
ROOT
HETATM    1  C   UNL     1     -41.135 -52.201  11.908  1.00  0.00     0.169 C 
ENDROOT
BRANCH   1   2
HETATM    2  C   UNL     1     -39.978 -51.408  12.556  1.00  0.00     0.169 C 
BRANCH   2   3
HETATM    3  N   UNL     1     -40.018 -49.977  12.279  1.00  0.00    -0.307 N 
HETATM    4  C   UNL     1     -40.556 -49.510  11.111  1.00  0.00     0.186 A 
HETATM    5  N   UNL     1     -40.580 -48.271  10.753  1.00  0.00    -0.355 N 
HETATM    6  C   UNL     1     -40.029 -47.355  11.614  1.00  0.00     0.017 A 
ATOM      7  HN  UNL     1     -40.993 -47.984   9.866  1.00  0.00     0.166 HD
HETATM    8  C   UNL     1     -40.024 -45.941  11.097  1.00  0.00     0.069 C 
HETATM    9  C   UNL     1     -39.521 -47.667  12.822  1.00  0.00     0.028 A 
HETATM   10  C   UNL     1     -39.549 -49.096  13.225  1.00  0.00     0.256 A 
HETATM   11  C   UNL     1     -38.923 -46.679  13.773  1.00  0.00     0.056 C 
HETATM   12  O   UNL     1     -39.152 -49.456  14.332  1.00  0.00    -0.267 OA
ENDBRANCH   2   3
ENDBRANCH   1   2
BRANCH   1  13
HETATM   13  O   UNL     1     -40.636 -53.508  11.581  1.00  0.00    -0.389 OA
HETATM   14  H   UNL     1     -41.402 -54.086  11.421  1.00  0.00     0.210 HD
ENDBRANCH   1  13
BRANCH   1  15
HETATM   15  C   UNL     1     -42.368 -52.377  12.787  1.00  0.00    -0.028 A 
HETATM   16  C   UNL     1     -43.537 -53.011  12.348  1.00  0.00     0.012 A 
HETATM   17  C   UNL     1     -44.657 -53.100  13.179  1.00  0.00     0.037 A 
HETATM   18  C   UNL     1     -44.641 -52.576  14.471  1.00  0.00     0.078 A 
HETATM   19  C   UNL     1     -43.492 -51.933  14.921  1.00  0.00     0.037 A 
HETATM   20  C   UNL     1     -42.361 -51.852  14.093  1.00  0.00     0.012 A 
BRANCH  18  21
HETATM   21  O   UNL     1     -45.817 -52.711  15.139  1.00  0.00    -0.255 OA
BRANCH  21  22
HETATM   22  C   UNL     1     -46.730 -51.628  15.209  1.00  0.00     0.530 C 
HETATM   23  F   UNL     1     -47.017 -51.066  14.018  1.00  0.00    -0.144 F 
HETATM   24  F   UNL     1     -47.876 -52.048  15.786  1.00  0.00    -0.144 F 
HETATM   25  F   UNL     1     -46.189 -50.671  15.998  1.00  0.00    -0.144 F 
ENDBRANCH  21  22
ENDBRANCH  18  21
ENDBRANCH   1  15
TORSDOF 6
ENDMDL
MODEL 2
REMARK VINA RESULT:      -6.5      2.495      3.026
REMARK  6 active torsions:
REMARK  status: ('A' for Active; 'I' for Inactive)
REMARK    1  A    between atoms: N_6  and  C_7 
REMARK    2  A    between atoms: C_7  and  C_8 
REMARK    3  A    between atoms: C_8  and  O_9 
REMARK    4  A    between atoms: C_8  and  C_10 
REMARK    5  A    between atoms: C_13  and  O_14 
REMARK    6  A    between atoms: O_14  and  C_15 
ROOT
HETATM    1  C   UNL     1     -39.552 -54.051  13.880  1.00  0.00     0.169 C 
ENDROOT
BRANCH   1   2
HETATM    2  C   UNL     1     -38.915 -52.860  14.631  1.00  0.00     0.169 C 
BRANCH   2   3
HETATM    3  N   UNL     1     -38.987 -51.599  13.902  1.00  0.00    -0.307 N 
HETATM    4  C   UNL     1     -39.948 -50.674  14.207  1.00  0.00     0.186 A 
HETATM    5  N   UNL     1     -40.127 -49.562  13.579  1.00  0.00    -0.355 N 
HETATM    6  C   UNL     1     -39.286 -49.287  12.529  1.00  0.00     0.017 A 
ATOM      7  HN  UNL     1     -40.864 -48.912  13.852  1.00  0.00     0.166 HD
HETATM    8  C   UNL     1     -39.603 -48.011  11.797  1.00  0.00     0.069 C 
HETATM    9  C   UNL     1     -38.261 -50.079  12.159  1.00  0.00     0.028 A 
HETATM   10  C   UNL     1     -38.052 -51.330  12.931  1.00  0.00     0.256 A 
HETATM   11  C   UNL     1     -37.334 -49.789  11.022  1.00  0.00     0.056 C 
HETATM   12  O   UNL     1     -37.108 -52.079  12.689  1.00  0.00    -0.267 OA
ENDBRANCH   2   3
ENDBRANCH   1   2
BRANCH   1  13
HETATM   13  O   UNL     1     -38.856 -55.241  14.284  1.00  0.00    -0.389 OA
HETATM   14  H   UNL     1     -38.559 -55.113  15.202  1.00  0.00     0.210 HD
ENDBRANCH   1  13
BRANCH   1  15
HETATM   15  C   UNL     1     -41.037 -54.263  14.149  1.00  0.00    -0.028 A 
HETATM   16  C   UNL     1     -41.529 -54.823  15.334  1.00  0.00     0.012 A 
HETATM   17  C   UNL     1     -42.898 -55.041  15.507  1.00  0.00     0.037 A 
HETATM   18  C   UNL     1     -43.816 -54.697  14.515  1.00  0.00     0.078 A 
HETATM   19  C   UNL     1     -43.345 -54.148  13.326  1.00  0.00     0.037 A 
HETATM   20  C   UNL     1     -41.971 -53.916  13.154  1.00  0.00     0.012 A 
BRANCH  18  21
HETATM   21  O   UNL     1     -45.104 -55.004  14.820  1.00  0.00    -0.255 OA
BRANCH  21  22
HETATM   22  C   UNL     1     -45.956 -54.030  15.399  1.00  0.00     0.530 C 
HETATM   23  F   UNL     1     -45.425 -52.792  15.457  1.00  0.00    -0.144 F 
HETATM   24  F   UNL     1     -47.113 -53.981  14.706  1.00  0.00    -0.144 F 
HETATM   25  F   UNL     1     -46.241 -54.417  16.664  1.00  0.00    -0.144 F 
ENDBRANCH  21  22
ENDBRANCH  18  21
ENDBRANCH   1  15
TORSDOF 6
ENDMDL
MODEL 3
REMARK VINA RESULT:      -6.2      2.009      2.318
REMARK  6 active torsions:
REMARK  status: ('A' for Active; 'I' for Inactive)
REMARK    1  A    between atoms: N_6  and  C_7 
REMARK    2  A    between atoms: C_7  and  C_8 
REMARK    3  A    between atoms: C_8  and  O_9 
REMARK    4  A    between atoms: C_8  and  C_10 
REMARK    5  A    between atoms: C_13  and  O_14 
REMARK    6  A    between atoms: O_14  and  C_15 
ROOT
HETATM    1  C   UNL     1     -41.054 -50.754  12.089  1.00  0.00     0.169 C 
ENDROOT
BRANCH   1   2
HETATM    2  C   UNL     1     -40.640 -49.634  13.070  1.00  0.00     0.169 C 
BRANCH   2   3
HETATM    3  N   UNL     1     -40.479 -48.329  12.438  1.00  0.00    -0.307 N 
HETATM    4  C   UNL     1     -40.890 -48.127  11.148  1.00  0.00     0.186 A 
HETATM    5  N   UNL     1     -40.734 -47.030  10.488  1.00  0.00    -0.355 N 
HETATM    6  C   UNL     1     -40.114 -45.988  11.133  1.00  0.00     0.017 A 
ATOM      7  HN  UNL     1     -41.059 -46.939   9.526  1.00  0.00     0.166 HD
HETATM    8  C   UNL     1     -39.898 -44.768  10.277  1.00  0.00     0.069 C 
HETATM    9  C   UNL     1     -39.714 -46.029  12.418  1.00  0.00     0.028 A 
HETATM   10  C   UNL     1     -39.949 -47.291  13.166  1.00  0.00     0.256 A 
HETATM   11  C   UNL     1     -39.044 -44.901  13.135  1.00  0.00     0.056 C 
HETATM   12  O   UNL     1     -39.661 -47.391  14.357  1.00  0.00    -0.267 OA
ENDBRANCH   2   3
ENDBRANCH   1   2
BRANCH   1  13
HETATM   13  O   UNL     1     -39.957 -51.678  11.997  1.00  0.00    -0.389 OA
HETATM   14  H   UNL     1     -39.355 -51.496  12.740  1.00  0.00     0.210 HD
ENDBRANCH   1  13
BRANCH   1  15
HETATM   15  C   UNL     1     -42.296 -51.540  12.495  1.00  0.00    -0.028 A 
HETATM   16  C   UNL     1     -42.519 -52.869  12.116  1.00  0.00     0.012 A 
HETATM   17  C   UNL     1     -43.699 -53.526  12.473  1.00  0.00     0.037 A 
HETATM   18  C   UNL     1     -44.682 -52.886  13.228  1.00  0.00     0.078 A 
HETATM   19  C   UNL     1     -44.482 -51.562  13.605  1.00  0.00     0.037 A 
HETATM   20  C   UNL     1     -43.292 -50.902  13.258  1.00  0.00     0.012 A 
BRANCH  18  21
HETATM   21  O   UNL     1     -45.783 -53.646  13.462  1.00  0.00    -0.255 OA
BRANCH  21  22
HETATM   22  C   UNL     1     -45.703 -54.783  14.307  1.00  0.00     0.530 C 
HETATM   23  F   UNL     1     -45.471 -55.941  13.658  1.00  0.00    -0.144 F 
HETATM   24  F   UNL     1     -44.732 -54.589  15.225  1.00  0.00    -0.144 F 
HETATM   25  F   UNL     1     -46.881 -54.906  14.962  1.00  0.00    -0.144 F 
ENDBRANCH  21  22
ENDBRANCH  18  21
ENDBRANCH   1  15
TORSDOF 6
ENDMDL
MODEL 4
REMARK VINA RESULT:      -6.2      2.576      3.290
REMARK  6 active torsions:
REMARK  status: ('A' for Active; 'I' for Inactive)
REMARK    1  A    between atoms: N_6  and  C_7 
REMARK    2  A    between atoms: C_7  and  C_8 
REMARK    3  A    between atoms: C_8  and  O_9 
REMARK    4  A    between atoms: C_8  and  C_10 
REMARK    5  A    between atoms: C_13  and  O_14 
REMARK    6  A    between atoms: O_14  and  C_15 
ROOT
HETATM    1  C   UNL     1     -42.229 -49.309  13.306  1.00  0.00     0.169 C 
ENDROOT
BRANCH   1   2
HETATM    2  C   UNL     1     -42.885 -48.026  12.746  1.00  0.00     0.169 C 
BRANCH   2   3
HETATM    3  N   UNL     1     -41.953 -47.145  12.051  1.00  0.00    -0.307 N 
HETATM    4  C   UNL     1     -41.886 -47.145  10.684  1.00  0.00     0.186 A 
HETATM    5  N   UNL     1     -41.054 -46.449   9.987  1.00  0.00    -0.355 N 
HETATM    6  C   UNL     1     -40.176 -45.645  10.671  1.00  0.00     0.017 A 
ATOM      7  HN  UNL     1     -41.049 -46.493   8.968  1.00  0.00     0.166 HD
HETATM    8  C   UNL     1     -39.187 -44.921   9.796  1.00  0.00     0.069 C 
HETATM    9  C   UNL     1     -40.172 -45.502  12.010  1.00  0.00     0.028 A 
HETATM   10  C   UNL     1     -41.172 -46.282  12.782  1.00  0.00     0.256 A 
HETATM   11  C   UNL     1     -39.227 -44.625  12.767  1.00  0.00     0.056 C 
HETATM   12  O   UNL     1     -41.268 -46.168  14.002  1.00  0.00    -0.267 OA
ENDBRANCH   2   3
ENDBRANCH   1   2
BRANCH   1  13
HETATM   13  O   UNL     1     -42.040 -49.118  14.718  1.00  0.00    -0.389 OA
HETATM   14  H   UNL     1     -41.465 -49.834  15.039  1.00  0.00     0.210 HD
ENDBRANCH   1  13
BRANCH   1  15
HETATM   15  C   UNL     1     -43.038 -50.585  13.110  1.00  0.00    -0.028 A 
HETATM   16  C   UNL     1     -44.388 -50.698  13.462  1.00  0.00     0.012 A 
HETATM   17  C   UNL     1     -45.068 -51.909  13.308  1.00  0.00     0.037 A 
HETATM   18  C   UNL     1     -44.430 -53.035  12.787  1.00  0.00     0.078 A 
HETATM   19  C   UNL     1     -43.086 -52.944  12.441  1.00  0.00     0.037 A 
HETATM   20  C   UNL     1     -42.403 -51.726  12.584  1.00  0.00     0.012 A 
BRANCH  18  21
HETATM   21  O   UNL     1     -45.216 -54.142  12.733  1.00  0.00    -0.255 OA
BRANCH  21  22
HETATM   22  C   UNL     1     -45.310 -55.010  13.851  1.00  0.00     0.530 C 
HETATM   23  F   UNL     1     -45.932 -56.178  13.596  1.00  0.00    -0.144 F 
HETATM   24  F   UNL     1     -44.071 -55.264  14.323  1.00  0.00    -0.144 F 
HETATM   25  F   UNL     1     -46.007 -54.374  14.821  1.00  0.00    -0.144 F 
ENDBRANCH  21  22
ENDBRANCH  18  21
ENDBRANCH   1  15
TORSDOF 6
ENDMDL
MODEL 5
REMARK VINA RESULT:      -6.1      4.404      5.585
REMARK  6 active torsions:
REMARK  status: ('A' for Active; 'I' for Inactive)
REMARK    1  A    between atoms: N_6  and  C_7 
REMARK    2  A    between atoms: C_7  and  C_8 
REMARK    3  A    between atoms: C_8  and  O_9 
REMARK    4  A    between atoms: C_8  and  C_10 
REMARK    5  A    between atoms: C_13  and  O_14 
REMARK    6  A    between atoms: O_14  and  C_15 
ROOT
HETATM    1  C   UNL     1     -45.114 -52.570  12.683  1.00  0.00     0.169 C 
ENDROOT
BRANCH   1   2
HETATM    2  C   UNL     1     -44.501 -53.987  12.759  1.00  0.00     0.169 C 
BRANCH   2   3
HETATM    3  N   UNL     1     -43.216 -54.036  13.447  1.00  0.00    -0.307 N 
HETATM    4  C   UNL     1     -42.132 -53.370  12.943  1.00  0.00     0.186 A 
HETATM    5  N   UNL     1     -40.946 -53.405  13.446  1.00  0.00    -0.355 N 
HETATM    6  C   UNL     1     -40.761 -54.164  14.575  1.00  0.00     0.017 A 
ATOM      7  HN  UNL     1     -40.175 -52.889  13.023  1.00  0.00     0.166 HD
HETATM    8  C   UNL     1     -39.337 -54.218  15.062  1.00  0.00     0.069 C 
HETATM    9  C   UNL     1     -41.750 -54.820  15.211  1.00  0.00     0.028 A 
HETATM   10  C   UNL     1     -43.115 -54.724  14.633  1.00  0.00     0.256 A 
HETATM   11  C   UNL     1     -41.566 -55.645  16.445  1.00  0.00     0.056 C 
HETATM   12  O   UNL     1     -44.080 -55.251  15.182  1.00  0.00    -0.267 OA
ENDBRANCH   2   3
ENDBRANCH   1   2
BRANCH   1  13
HETATM   13  O   UNL     1     -46.272 -52.643  11.836  1.00  0.00    -0.389 OA
HETATM   14  H   UNL     1     -46.209 -51.921  11.186  1.00  0.00     0.210 HD
ENDBRANCH   1  13
BRANCH   1  15
HETATM   15  C   UNL     1     -45.548 -51.983  14.021  1.00  0.00    -0.028 A 
HETATM   16  C   UNL     1     -44.715 -51.185  14.814  1.00  0.00     0.012 A 
HETATM   17  C   UNL     1     -45.147 -50.714  16.057  1.00  0.00     0.037 A 
HETATM   18  C   UNL     1     -46.423 -51.010  16.537  1.00  0.00     0.078 A 
HETATM   19  C   UNL     1     -47.261 -51.810  15.767  1.00  0.00     0.037 A 
HETATM   20  C   UNL     1     -46.834 -52.275  14.513  1.00  0.00     0.012 A 
BRANCH  18  21
HETATM   21  O   UNL     1     -46.679 -50.509  17.774  1.00  0.00    -0.255 OA
BRANCH  21  22
HETATM   22  C   UNL     1     -48.005 -50.480  18.275  1.00  0.00     0.530 C 
HETATM   23  F   UNL     1     -48.575 -51.694  18.409  1.00  0.00    -0.144 F 
HETATM   24  F   UNL     1     -48.016 -49.854  19.472  1.00  0.00    -0.144 F 
HETATM   25  F   UNL     1     -48.764 -49.759  17.418  1.00  0.00    -0.144 F 
ENDBRANCH  21  22
ENDBRANCH  18  21
ENDBRANCH   1  15
TORSDOF 6
ENDMDL
MODEL 6
REMARK VINA RESULT:      -6.1      4.180      7.341
REMARK  6 active torsions:
REMARK  status: ('A' for Active; 'I' for Inactive)
REMARK    1  A    between atoms: N_6  and  C_7 
REMARK    2  A    between atoms: C_7  and  C_8 
REMARK    3  A    between atoms: C_8  and  O_9 
REMARK    4  A    between atoms: C_8  and  C_10 
REMARK    5  A    between atoms: C_13  and  O_14 
REMARK    6  A    between atoms: O_14  and  C_15 
ROOT
HETATM    1  C   UNL     1     -40.868 -52.763  12.629  1.00  0.00     0.169 C 
ENDROOT
BRANCH   1   2
HETATM    2  C   UNL     1     -42.184 -52.017  12.314  1.00  0.00     0.169 C 
BRANCH   2   3
HETATM    3  N   UNL     1     -43.347 -52.556  13.010  1.00  0.00    -0.307 N 
HETATM    4  C   UNL     1     -43.441 -53.895  13.273  1.00  0.00     0.186 A 
HETATM    5  N   UNL     1     -44.454 -54.469  13.827  1.00  0.00    -0.355 N 
HETATM    6  C   UNL     1     -45.514 -53.672  14.182  1.00  0.00     0.017 A 
ATOM      7  HN  UNL     1     -44.467 -55.475  13.994  1.00  0.00     0.166 HD
HETATM    8  C   UNL     1     -46.690 -54.421  14.752  1.00  0.00     0.069 C 
HETATM    9  C   UNL     1     -45.531 -52.334  14.038  1.00  0.00     0.028 A 
HETATM   10  C   UNL     1     -44.330 -51.696  13.440  1.00  0.00     0.256 A 
HETATM   11  C   UNL     1     -46.675 -51.452  14.427  1.00  0.00     0.056 C 
HETATM   12  O   UNL     1     -44.247 -50.476  13.322  1.00  0.00    -0.267 OA
ENDBRANCH   2   3
ENDBRANCH   1   2
BRANCH   1  13
HETATM   13  O   UNL     1     -40.368 -53.300  11.393  1.00  0.00    -0.389 OA
HETATM   14  H   UNL     1     -39.743 -54.013  11.612  1.00  0.00     0.210 HD
ENDBRANCH   1  13
BRANCH   1  15
HETATM   15  C   UNL     1     -39.771 -51.905  13.246  1.00  0.00    -0.028 A 
HETATM   16  C   UNL     1     -39.384 -52.004  14.587  1.00  0.00     0.012 A 
HETATM   17  C   UNL     1     -38.406 -51.156  15.114  1.00  0.00     0.037 A 
HETATM   18  C   UNL     1     -37.777 -50.198  14.320  1.00  0.00     0.078 A 
HETATM   19  C   UNL     1     -38.155 -50.078  12.987  1.00  0.00     0.037 A 
HETATM   20  C   UNL     1     -39.129 -50.936  12.451  1.00  0.00     0.012 A 
BRANCH  18  21
HETATM   21  O   UNL     1     -36.876 -49.430  14.987  1.00  0.00    -0.255 OA
BRANCH  21  22
HETATM   22  C   UNL     1     -37.153 -48.064  15.248  1.00  0.00     0.530 C 
HETATM   23  F   UNL     1     -38.465 -47.757  15.265  1.00  0.00    -0.144 F 
HETATM   24  F   UNL     1     -36.604 -47.716  16.432  1.00  0.00    -0.144 F 
HETATM   25  F   UNL     1     -36.567 -47.322  14.280  1.00  0.00    -0.144 F 
ENDBRANCH  21  22
ENDBRANCH  18  21
ENDBRANCH   1  15
TORSDOF 6
ENDMDL
MODEL 7
REMARK VINA RESULT:      -6.0      2.334      3.236
REMARK  6 active torsions:
REMARK  status: ('A' for Active; 'I' for Inactive)
REMARK    1  A    between atoms: N_6  and  C_7 
REMARK    2  A    between atoms: C_7  and  C_8 
REMARK    3  A    between atoms: C_8  and  O_9 
REMARK    4  A    between atoms: C_8  and  C_10 
REMARK    5  A    between atoms: C_13  and  O_14 
REMARK    6  A    between atoms: O_14  and  C_15 
ROOT
HETATM    1  C   UNL     1     -43.974 -53.139  12.773  1.00  0.00     0.169 C 
ENDROOT
BRANCH   1   2
HETATM    2  C   UNL     1     -42.582 -53.357  13.410  1.00  0.00     0.169 C 
BRANCH   2   3
HETATM    3  N   UNL     1     -41.605 -52.336  13.048  1.00  0.00    -0.307 N 
HETATM    4  C   UNL     1     -41.323 -52.078  11.734  1.00  0.00     0.186 A 
HETATM    5  N   UNL     1     -40.434 -51.241  11.320  1.00  0.00    -0.355 N 
HETATM    6  C   UNL     1     -39.721 -50.557  12.273  1.00  0.00     0.017 A 
ATOM      7  HN  UNL     1     -40.266 -51.094  10.325  1.00  0.00     0.166 HD
HETATM    8  C   UNL     1     -38.649 -49.656  11.719  1.00  0.00     0.069 C 
HETATM    9  C   UNL     1     -39.935 -50.667  13.598  1.00  0.00     0.028 A 
HETATM   10  C   UNL     1     -40.998 -51.605  14.041  1.00  0.00     0.256 A 
HETATM   11  C   UNL     1     -39.171 -49.923  14.647  1.00  0.00     0.056 C 
HETATM   12  O   UNL     1     -41.290 -51.724  15.229  1.00  0.00    -0.267 OA
ENDBRANCH   2   3
ENDBRANCH   1   2
BRANCH   1  13
HETATM   13  O   UNL     1     -44.356 -54.368  12.136  1.00  0.00    -0.389 OA
HETATM   14  H   UNL     1     -44.468 -54.187  11.186  1.00  0.00     0.210 HD
ENDBRANCH   1  13
BRANCH   1  15
HETATM   15  C   UNL     1     -45.077 -52.755  13.752  1.00  0.00    -0.028 A 
HETATM   16  C   UNL     1     -45.962 -51.694  13.530  1.00  0.00     0.012 A 
HETATM   17  C   UNL     1     -46.924 -51.353  14.485  1.00  0.00     0.037 A 
HETATM   18  C   UNL     1     -47.043 -52.067  15.677  1.00  0.00     0.078 A 
HETATM   19  C   UNL     1     -46.166 -53.119  15.919  1.00  0.00     0.037 A 
HETATM   20  C   UNL     1     -45.205 -53.471  14.957  1.00  0.00     0.012 A 
BRANCH  18  21
HETATM   21  O   UNL     1     -48.001 -51.591  16.515  1.00  0.00    -0.255 OA
BRANCH  21  22
HETATM   22  C   UNL     1     -47.646 -50.779  17.622  1.00  0.00     0.530 C 
HETATM   23  F   UNL     1     -47.542 -51.446  18.789  1.00  0.00    -0.144 F 
HETATM   24  F   UNL     1     -46.476 -50.158  17.363  1.00  0.00    -0.144 F 
HETATM   25  F   UNL     1     -48.600 -49.831  17.772  1.00  0.00    -0.144 F 
ENDBRANCH  21  22
ENDBRANCH  18  21
ENDBRANCH   1  15
TORSDOF 6
ENDMDL
MODEL 8
REMARK VINA RESULT:      -5.9      4.417      7.107
REMARK  6 active torsions:
REMARK  status: ('A' for Active; 'I' for Inactive)
REMARK    1  A    between atoms: N_6  and  C_7 
REMARK    2  A    between atoms: C_7  and  C_8 
REMARK    3  A    between atoms: C_8  and  O_9 
REMARK    4  A    between atoms: C_8  and  C_10 
REMARK    5  A    between atoms: C_13  and  O_14 
REMARK    6  A    between atoms: O_14  and  C_15 
ROOT
HETATM    1  C   UNL     1     -40.748 -49.468  11.409  1.00  0.00     0.169 C 
ENDROOT
BRANCH   1   2
HETATM    2  C   UNL     1     -41.761 -50.380  12.138  1.00  0.00     0.169 C 
BRANCH   2   3
HETATM    3  N   UNL     1     -41.138 -51.438  12.926  1.00  0.00    -0.307 N 
HETATM    4  C   UNL     1     -39.788 -51.437  13.147  1.00  0.00     0.186 A 
HETATM    5  N   UNL     1     -39.143 -52.359  13.777  1.00  0.00    -0.355 N 
HETATM    6  C   UNL     1     -39.870 -53.416  14.265  1.00  0.00     0.017 A 
ATOM      7  HN  UNL     1     -38.134 -52.305  13.908  1.00  0.00     0.166 HD
HETATM    8  C   UNL     1     -39.042 -54.490  14.921  1.00  0.00     0.069 C 
HETATM    9  C   UNL     1     -41.210 -53.515  14.173  1.00  0.00     0.028 A 
HETATM   10  C   UNL     1     -41.929 -52.415  13.482  1.00  0.00     0.256 A 
HETATM   11  C   UNL     1     -42.016 -54.657  14.706  1.00  0.00     0.056 C 
HETATM   12  O   UNL     1     -43.156 -52.405  13.402  1.00  0.00    -0.267 OA
ENDBRANCH   2   3
ENDBRANCH   1   2
BRANCH   1  13
HETATM   13  O   UNL     1     -40.431 -50.089  10.153  1.00  0.00    -0.389 OA
HETATM   14  H   UNL     1     -40.024 -49.413   9.583  1.00  0.00     0.210 HD
ENDBRANCH   1  13
BRANCH   1  15
HETATM   15  C   UNL     1     -41.241 -48.055  11.122  1.00  0.00    -0.028 A 
HETATM   16  C   UNL     1     -42.566 -47.762  10.779  1.00  0.00     0.012 A 
HETATM   17  C   UNL     1     -42.954 -46.454  10.476  1.00  0.00     0.037 A 
HETATM   18  C   UNL     1     -42.040 -45.401  10.521  1.00  0.00     0.078 A 
HETATM   19  C   UNL     1     -40.716 -45.675  10.850  1.00  0.00     0.037 A 
HETATM   20  C   UNL     1     -40.326 -46.987  11.167  1.00  0.00     0.012 A 
BRANCH  18  21
HETATM   21  O   UNL     1     -42.562 -44.198  10.166  1.00  0.00    -0.255 OA
BRANCH  21  22
HETATM   22  C   UNL     1     -42.762 -43.188  11.141  1.00  0.00     0.530 C 
HETATM   23  F   UNL     1     -41.745 -42.310  11.247  1.00  0.00    -0.144 F 
HETATM   24  F   UNL     1     -43.898 -42.514  10.860  1.00  0.00    -0.144 F 
HETATM   25  F   UNL     1     -42.917 -43.788  12.345  1.00  0.00    -0.144 F 
ENDBRANCH  21  22
ENDBRANCH  18  21
ENDBRANCH   1  15
TORSDOF 6
ENDMDL
MODEL 9
REMARK VINA RESULT:      -5.9      2.308      2.807
REMARK  6 active torsions:
REMARK  status: ('A' for Active; 'I' for Inactive)
REMARK    1  A    between atoms: N_6  and  C_7 
REMARK    2  A    between atoms: C_7  and  C_8 
REMARK    3  A    between atoms: C_8  and  O_9 
REMARK    4  A    between atoms: C_8  and  C_10 
REMARK    5  A    between atoms: C_13  and  O_14 
REMARK    6  A    between atoms: O_14  and  C_15 
ROOT
HETATM    1  C   UNL     1     -40.833 -53.424  12.855  1.00  0.00     0.169 C 
ENDROOT
BRANCH   1   2
HETATM    2  C   UNL     1     -39.817 -53.388  14.019  1.00  0.00     0.169 C 
BRANCH   2   3
HETATM    3  N   UNL     1     -39.517 -52.043  14.496  1.00  0.00    -0.307 N 
HETATM    4  C   UNL     1     -40.016 -51.600  15.690  1.00  0.00     0.186 A 
HETATM    5  N   UNL     1     -39.855 -50.411  16.162  1.00  0.00    -0.355 N 
HETATM    6  C   UNL     1     -39.123 -49.527  15.408  1.00  0.00     0.017 A 
ATOM      7  HN  UNL     1     -40.256 -50.138  17.059  1.00  0.00     0.166 HD
HETATM    8  C   UNL     1     -39.042 -48.139  15.985  1.00  0.00     0.069 C 
HETATM    9  C   UNL     1     -38.523 -49.846  14.245  1.00  0.00     0.028 A 
HETATM   10  C   UNL     1     -38.689 -51.237  13.751  1.00  0.00     0.256 A 
HETATM   11  C   UNL     1     -37.718 -48.896  13.418  1.00  0.00     0.056 C 
HETATM   12  O   UNL     1     -38.131 -51.620  12.725  1.00  0.00    -0.267 OA
ENDBRANCH   2   3
ENDBRANCH   1   2
BRANCH   1  13
HETATM   13  O   UNL     1     -40.641 -54.662  12.150  1.00  0.00    -0.389 OA
HETATM   14  H   UNL     1     -39.980 -55.182  12.640  1.00  0.00     0.210 HD
ENDBRANCH   1  13
BRANCH   1  15
HETATM   15  C   UNL     1     -42.296 -53.344  13.273  1.00  0.00    -0.028 A 
HETATM   16  C   UNL     1     -43.281 -52.721  12.497  1.00  0.00     0.012 A 
HETATM   17  C   UNL     1     -44.600 -52.632  12.952  1.00  0.00     0.037 A 
HETATM   18  C   UNL     1     -44.978 -53.173  14.181  1.00  0.00     0.078 A 
HETATM   19  C   UNL     1     -44.011 -53.788  14.969  1.00  0.00     0.037 A 
HETATM   20  C   UNL     1     -42.688 -53.889  14.510  1.00  0.00     0.012 A 
BRANCH  18  21
HETATM   21  O   UNL     1     -46.285 -52.974  14.495  1.00  0.00    -0.255 OA
BRANCH  21  22
HETATM   22  C   UNL     1     -46.730 -51.702  14.939  1.00  0.00     0.530 C 
HETATM   23  F   UNL     1     -45.776 -50.956  15.530  1.00  0.00    -0.144 F 
HETATM   24  F   UNL     1     -47.239 -51.018  13.892  1.00  0.00    -0.144 F 
HETATM   25  F   UNL     1     -47.722 -51.893  15.839  1.00  0.00    -0.144 F 
ENDBRANCH  21  22
ENDBRANCH  18  21
ENDBRANCH   1  15
TORSDOF 6
ENDMDL
