MODEL 1
REMARK VINA RESULT:      -6.3      0.000      0.000
REMARK  5 active torsions:
REMARK  status: ('A' for Active; 'I' for Inactive)
REMARK    1  A    between atoms: O_2  and  C_3 
REMARK    2  A    between atoms: C_3  and  C_4 
REMARK    3  A    between atoms: C_4  and  O_5 
REMARK    4  A    between atoms: O_5  and  C_6 
REMARK    5  A    between atoms: C_9  and  N_10 
REMARK       I    between atoms: N_10  and  C_11 
REMARK       I    between atoms: C_11  and  N_13 
ROOT
HETATM    1  N   UNL     1     -42.587 -50.070  12.504  1.00  0.00    -0.307 N 
HETATM    2  C   UNL     1     -42.113 -51.365  12.497  1.00  0.00     0.323 C 
HETATM    3  O   UNL     1     -40.984 -51.652  12.100  1.00  0.00    -0.247 OA
HETATM    4  N   UNL     1     -42.931 -52.358  13.043  1.00  0.00    -0.329 N 
HETATM    5  C   UNL     1     -42.299 -53.696  13.034  1.00  0.00     0.128 C 
HETATM    6  C   UNL     1     -42.739 -54.578  14.200  1.00  0.00     0.020 C 
HETATM    7  C   UNL     1     -44.258 -54.674  14.286  1.00  0.00     0.008 C 
HETATM    8  C   UNL     1     -44.828 -53.265  14.313  1.00  0.00     0.009 C 
HETATM    9  C   UNL     1     -46.346 -53.188  14.301  1.00  0.00     0.007 C 
HETATM   10  C   UNL     1     -46.650 -51.804  13.728  1.00  0.00     0.002 C 
HETATM   11  C   UNL     1     -45.311 -51.229  13.232  1.00  0.00     0.026 C 
HETATM   12  C   UNL     1     -44.401 -52.445  13.081  1.00  0.00     0.093 C 
HETATM   13  H   UNL     1     -43.351 -49.880  13.126  1.00  0.00     0.170 HD
ENDROOT
BRANCH   1  14
HETATM   14  C   UNL     1     -41.856 -48.937  12.043  1.00  0.00     0.051 A 
HETATM   15  C   UNL     1     -41.007 -48.182  12.853  1.00  0.00     0.035 A 
HETATM   16  C   UNL     1     -40.349 -47.066  12.339  1.00  0.00     0.058 A 
HETATM   17  C   UNL     1     -40.555 -46.728  11.017  1.00  0.00     0.141 A 
HETATM   18  N   UNL     1     -41.349 -47.428  10.181  1.00  0.00    -0.345 N 
HETATM   19  C   UNL     1     -41.970 -48.517  10.716  1.00  0.00     0.119 A 
ATOM     20  HN  UNL     1     -41.476 -47.159   9.205  1.00  0.00     0.167 HD
BRANCH  17  21
HETATM   21  O   UNL     1     -39.817 -45.655  10.559  1.00  0.00    -0.334 OA
BRANCH  21  22
HETATM   22  C   UNL     1     -39.664 -44.608  11.515  1.00  0.00     0.203 C 
BRANCH  22  23
HETATM   23  C   UNL     1     -40.380 -43.374  10.964  1.00  0.00     0.193 C 
BRANCH  23  24
HETATM   24  O   UNL     1     -41.766 -43.655  10.772  1.00  0.00    -0.394 OA
HETATM   25  C   UNL     1     -42.475 -43.654  12.005  1.00  0.00     0.201 C 
ENDBRANCH  23  24
ENDBRANCH  22  23
ENDBRANCH  21  22
ENDBRANCH  17  21
ENDBRANCH   1  14
TORSDOF 5
ENDMDL
MODEL 2
REMARK VINA RESULT:      -5.7      2.373      8.348
REMARK  5 active torsions:
REMARK  status: ('A' for Active; 'I' for Inactive)
REMARK    1  A    between atoms: O_2  and  C_3 
REMARK    2  A    between atoms: C_3  and  C_4 
REMARK    3  A    between atoms: C_4  and  O_5 
REMARK    4  A    between atoms: O_5  and  C_6 
REMARK    5  A    between atoms: C_9  and  N_10 
REMARK       I    between atoms: N_10  and  C_11 
REMARK       I    between atoms: C_11  and  N_13 
ROOT
HETATM    1  N   UNL     1     -41.950 -49.320  12.753  1.00  0.00    -0.307 N 
HETATM    2  C   UNL     1     -41.866 -48.408  11.723  1.00  0.00     0.323 C 
HETATM    3  O   UNL     1     -42.524 -48.517  10.690  1.00  0.00    -0.247 OA
HETATM    4  N   UNL     1     -41.060 -47.282  11.918  1.00  0.00    -0.329 N 
HETATM    5  C   UNL     1     -41.090 -46.345  10.773  1.00  0.00     0.128 C 
HETATM    6  C   UNL     1     -40.902 -44.886  11.183  1.00  0.00     0.020 C 
HETATM    7  C   UNL     1     -39.649 -44.701  12.030  1.00  0.00     0.008 C 
HETATM    8  C   UNL     1     -39.703 -45.679  13.192  1.00  0.00     0.009 C 
HETATM    9  C   UNL     1     -38.471 -45.685  14.083  1.00  0.00     0.007 C 
HETATM   10  C   UNL     1     -38.480 -47.071  14.731  1.00  0.00     0.002 C 
HETATM   11  C   UNL     1     -39.586 -47.878  14.027  1.00  0.00     0.026 C 
HETATM   12  C   UNL     1     -39.829 -47.138  12.714  1.00  0.00     0.093 C 
HETATM   13  H   UNL     1     -41.654 -49.000  13.657  1.00  0.00     0.170 HD
ENDROOT
BRANCH   1  14
HETATM   14  C   UNL     1     -42.771 -50.485  12.739  1.00  0.00     0.051 A 
HETATM   15  C   UNL     1     -44.070 -50.523  13.247  1.00  0.00     0.035 A 
HETATM   16  C   UNL     1     -44.802 -51.709  13.228  1.00  0.00     0.058 A 
HETATM   17  C   UNL     1     -44.216 -52.839  12.694  1.00  0.00     0.141 A 
HETATM   18  N   UNL     1     -42.972 -52.860  12.171  1.00  0.00    -0.345 N 
HETATM   19  C   UNL     1     -42.289 -51.681  12.202  1.00  0.00     0.119 A 
ATOM     20  HN  UNL     1     -42.567 -53.709  11.776  1.00  0.00     0.167 HD
BRANCH  17  21
HETATM   21  O   UNL     1     -45.023 -53.956  12.643  1.00  0.00    -0.334 OA
BRANCH  21  22
HETATM   22  C   UNL     1     -44.950 -54.778  13.807  1.00  0.00     0.203 C 
BRANCH  22  23
HETATM   23  C   UNL     1     -46.272 -54.628  14.560  1.00  0.00     0.193 C 
BRANCH  23  24
HETATM   24  O   UNL     1     -46.038 -54.610  15.967  1.00  0.00    -0.394 OA
HETATM   25  C   UNL     1     -44.879 -53.853  16.295  1.00  0.00     0.201 C 
ENDBRANCH  23  24
ENDBRANCH  22  23
ENDBRANCH  21  22
ENDBRANCH  17  21
ENDBRANCH   1  14
TORSDOF 5
ENDMDL
MODEL 3
REMARK VINA RESULT:      -5.7      1.377      1.717
REMARK  5 active torsions:
REMARK  status: ('A' for Active; 'I' for Inactive)
REMARK    1  A    between atoms: O_2  and  C_3 
REMARK    2  A    between atoms: C_3  and  C_4 
REMARK    3  A    between atoms: C_4  and  O_5 
REMARK    4  A    between atoms: O_5  and  C_6 
REMARK    5  A    between atoms: C_9  and  N_10 
REMARK       I    between atoms: N_10  and  C_11 
REMARK       I    between atoms: C_11  and  N_13 
ROOT
HETATM    1  N   UNL     1     -42.664 -49.927  12.274  1.00  0.00    -0.307 N 
HETATM    2  C   UNL     1     -41.623 -50.810  12.471  1.00  0.00     0.323 C 
HETATM    3  O   UNL     1     -40.450 -50.504  12.263  1.00  0.00    -0.247 OA
HETATM    4  N   UNL     1     -41.931 -52.065  13.005  1.00  0.00    -0.329 N 
HETATM    5  C   UNL     1     -40.734 -52.907  13.226  1.00  0.00     0.128 C 
HETATM    6  C   UNL     1     -40.879 -53.860  14.410  1.00  0.00     0.020 C 
HETATM    7  C   UNL     1     -42.145 -54.700  14.300  1.00  0.00     0.008 C 
HETATM    8  C   UNL     1     -43.327 -53.766  14.096  1.00  0.00     0.009 C 
HETATM    9  C   UNL     1     -44.661 -54.459  13.872  1.00  0.00     0.007 C 
HETATM   10  C   UNL     1     -45.500 -53.428  13.116  1.00  0.00     0.002 C 
HETATM   11  C   UNL     1     -44.551 -52.274  12.747  1.00  0.00     0.026 C 
HETATM   12  C   UNL     1     -43.152 -52.874  12.853  1.00  0.00     0.093 C 
HETATM   13  H   UNL     1     -43.517 -50.128  12.762  1.00  0.00     0.170 HD
ENDROOT
BRANCH   1  14
HETATM   14  C   UNL     1     -42.515 -48.593  11.796  1.00  0.00     0.051 A 
HETATM   15  C   UNL     1     -42.720 -47.461  12.585  1.00  0.00     0.035 A 
HETATM   16  C   UNL     1     -42.586 -46.185  12.040  1.00  0.00     0.058 A 
HETATM   17  C   UNL     1     -42.245 -46.069  10.707  1.00  0.00     0.141 A 
HETATM   18  N   UNL     1     -42.015 -47.125   9.899  1.00  0.00    -0.345 N 
HETATM   19  C   UNL     1     -42.149 -48.355  10.469  1.00  0.00     0.119 A 
ATOM     20  HN  UNL     1     -41.756 -47.008   8.920  1.00  0.00     0.167 HD
BRANCH  17  21
HETATM   21  O   UNL     1     -42.061 -44.778  10.254  1.00  0.00    -0.334 OA
BRANCH  21  22
HETATM   22  C   UNL     1     -41.887 -43.819  11.295  1.00  0.00     0.203 C 
BRANCH  22  23
HETATM   23  C   UNL     1     -40.467 -43.263  11.175  1.00  0.00     0.193 C 
BRANCH  23  24
HETATM   24  O   UNL     1     -39.889 -43.108  12.470  1.00  0.00    -0.394 OA
HETATM   25  C   UNL     1     -40.882 -42.888  13.463  1.00  0.00     0.201 C 
ENDBRANCH  23  24
ENDBRANCH  22  23
ENDBRANCH  21  22
ENDBRANCH  17  21
ENDBRANCH   1  14
TORSDOF 5
ENDMDL
MODEL 4
REMARK VINA RESULT:      -5.4      2.002      2.725
REMARK  5 active torsions:
REMARK  status: ('A' for Active; 'I' for Inactive)
REMARK    1  A    between atoms: O_2  and  C_3 
REMARK    2  A    between atoms: C_3  and  C_4 
REMARK    3  A    between atoms: C_4  and  O_5 
REMARK    4  A    between atoms: O_5  and  C_6 
REMARK    5  A    between atoms: C_9  and  N_10 
REMARK       I    between atoms: N_10  and  C_11 
REMARK       I    between atoms: C_11  and  N_13 
ROOT
HETATM    1  N   UNL     1     -41.016 -51.104  13.189  1.00  0.00    -0.307 N 
HETATM    2  C   UNL     1     -39.939 -51.941  13.386  1.00  0.00     0.323 C 
HETATM    3  O   UNL     1     -38.803 -51.654  13.008  1.00  0.00    -0.247 OA
HETATM    4  N   UNL     1     -40.153 -53.113  14.116  1.00  0.00    -0.329 N 
HETATM    5  C   UNL     1     -38.918 -53.905  14.313  1.00  0.00     0.128 C 
HETATM    6  C   UNL     1     -38.908 -54.688  15.624  1.00  0.00     0.020 C 
HETATM    7  C   UNL     1     -40.158 -55.548  15.772  1.00  0.00     0.008 C 
HETATM    8  C   UNL     1     -41.378 -54.663  15.577  1.00  0.00     0.009 C 
HETATM    9  C   UNL     1     -42.710 -55.394  15.600  1.00  0.00     0.007 C 
HETATM   10  C   UNL     1     -43.653 -54.484  14.810  1.00  0.00     0.002 C 
HETATM   11  C   UNL     1     -42.780 -53.382  14.185  1.00  0.00     0.026 C 
HETATM   12  C   UNL     1     -41.363 -53.948  14.213  1.00  0.00     0.093 C 
HETATM   13  H   UNL     1     -41.805 -51.244  13.793  1.00  0.00     0.170 HD
ENDROOT
BRANCH   1  14
HETATM   14  C   UNL     1     -40.954 -49.846  12.522  1.00  0.00     0.051 A 
HETATM   15  C   UNL     1     -40.725 -48.634  13.174  1.00  0.00     0.035 A 
HETATM   16  C   UNL     1     -40.709 -47.438  12.458  1.00  0.00     0.058 A 
HETATM   17  C   UNL     1     -40.923 -47.481  11.095  1.00  0.00     0.141 A 
HETATM   18  N   UNL     1     -41.132 -48.623  10.406  1.00  0.00    -0.345 N 
HETATM   19  C   UNL     1     -41.134 -49.772  11.139  1.00  0.00     0.119 A 
ATOM     20  HN  UNL     1     -41.280 -48.625   9.397  1.00  0.00     0.167 HD
BRANCH  17  21
HETATM   21  O   UNL     1     -40.824 -46.270  10.442  1.00  0.00    -0.334 OA
BRANCH  21  22
HETATM   22  C   UNL     1     -41.556 -45.215  11.063  1.00  0.00     0.203 C 
BRANCH  22  23
HETATM   23  C   UNL     1     -40.650 -43.984  11.096  1.00  0.00     0.193 C 
BRANCH  23  24
HETATM   24  O   UNL     1     -41.347 -42.846  10.590  1.00  0.00    -0.394 OA
HETATM   25  C   UNL     1     -41.369 -41.784  11.536  1.00  0.00     0.201 C 
ENDBRANCH  23  24
ENDBRANCH  22  23
ENDBRANCH  21  22
ENDBRANCH  17  21
ENDBRANCH   1  14
TORSDOF 5
ENDMDL
MODEL 5
REMARK VINA RESULT:      -5.3      1.754      3.016
REMARK  5 active torsions:
REMARK  status: ('A' for Active; 'I' for Inactive)
REMARK    1  A    between atoms: O_2  and  C_3 
REMARK    2  A    between atoms: C_3  and  C_4 
REMARK    3  A    between atoms: C_4  and  O_5 
REMARK    4  A    between atoms: O_5  and  C_6 
REMARK    5  A    between atoms: C_9  and  N_10 
REMARK       I    between atoms: N_10  and  C_11 
REMARK       I    between atoms: C_11  and  N_13 
ROOT
HETATM    1  N   UNL     1     -41.511 -49.755  12.529  1.00  0.00    -0.307 N 
HETATM    2  C   UNL     1     -42.634 -50.430  12.959  1.00  0.00     0.323 C 
HETATM    3  O   UNL     1     -43.759 -49.933  12.916  1.00  0.00    -0.247 OA
HETATM    4  N   UNL     1     -42.474 -51.754  13.378  1.00  0.00    -0.329 N 
HETATM    5  C   UNL     1     -43.751 -52.396  13.762  1.00  0.00     0.128 C 
HETATM    6  C   UNL     1     -43.774 -53.899  13.492  1.00  0.00     0.020 C 
HETATM    7  C   UNL     1     -42.578 -54.599  14.126  1.00  0.00     0.008 C 
HETATM    8  C   UNL     1     -41.310 -53.898  13.668  1.00  0.00     0.009 C 
HETATM    9  C   UNL     1     -40.027 -54.421  14.291  1.00  0.00     0.007 C 
HETATM   10  C   UNL     1     -39.050 -53.248  14.187  1.00  0.00     0.002 C 
HETATM   11  C   UNL     1     -39.869 -52.035  13.709  1.00  0.00     0.026 C 
HETATM   12  C   UNL     1     -41.318 -52.399  14.023  1.00  0.00     0.093 C 
HETATM   13  H   UNL     1     -40.717 -50.319  12.292  1.00  0.00     0.170 HD
ENDROOT
BRANCH   1  14
HETATM   14  C   UNL     1     -41.512 -48.425  12.016  1.00  0.00     0.051 A 
HETATM   15  C   UNL     1     -41.426 -47.286  12.816  1.00  0.00     0.035 A 
HETATM   16  C   UNL     1     -41.464 -46.016  12.244  1.00  0.00     0.058 A 
HETATM   17  C   UNL     1     -41.587 -45.912  10.873  1.00  0.00     0.141 A 
HETATM   18  N   UNL     1     -41.655 -46.975  10.046  1.00  0.00    -0.345 N 
HETATM   19  C   UNL     1     -41.608 -48.201  10.641  1.00  0.00     0.119 A 
ATOM     20  HN  UNL     1     -41.737 -46.868   9.035  1.00  0.00     0.167 HD
BRANCH  17  21
HETATM   21  O   UNL     1     -41.547 -44.627  10.371  1.00  0.00    -0.334 OA
BRANCH  21  22
HETATM   22  C   UNL     1     -40.453 -43.850  10.855  1.00  0.00     0.203 C 
BRANCH  22  23
HETATM   23  C   UNL     1     -40.992 -42.461  11.199  1.00  0.00     0.193 C 
BRANCH  23  24
HETATM   24  O   UNL     1     -40.181 -41.853  12.204  1.00  0.00    -0.394 OA
HETATM   25  C   UNL     1     -39.921 -42.748  13.278  1.00  0.00     0.201 C 
ENDBRANCH  23  24
ENDBRANCH  22  23
ENDBRANCH  21  22
ENDBRANCH  17  21
ENDBRANCH   1  14
TORSDOF 5
ENDMDL
MODEL 6
REMARK VINA RESULT:      -5.3      3.062      4.269
REMARK  5 active torsions:
REMARK  status: ('A' for Active; 'I' for Inactive)
REMARK    1  A    between atoms: O_2  and  C_3 
REMARK    2  A    between atoms: C_3  and  C_4 
REMARK    3  A    between atoms: C_4  and  O_5 
REMARK    4  A    between atoms: O_5  and  C_6 
REMARK    5  A    between atoms: C_9  and  N_10 
REMARK       I    between atoms: N_10  and  C_11 
REMARK       I    between atoms: C_11  and  N_13 
ROOT
HETATM    1  N   UNL     1     -40.708 -52.512  14.280  1.00  0.00    -0.307 N 
HETATM    2  C   UNL     1     -39.699 -53.451  14.328  1.00  0.00     0.323 C 
HETATM    3  O   UNL     1     -38.717 -53.401  13.589  1.00  0.00    -0.247 OA
HETATM    4  N   UNL     1     -39.777 -54.437  15.315  1.00  0.00    -0.329 N 
HETATM    5  C   UNL     1     -38.615 -55.353  15.309  1.00  0.00     0.128 C 
HETATM    6  C   UNL     1     -38.266 -55.893  16.694  1.00  0.00     0.020 C 
HETATM    7  C   UNL     1     -39.478 -56.525  17.369  1.00  0.00     0.008 C 
HETATM    8  C   UNL     1     -40.617 -55.518  17.355  1.00  0.00     0.009 C 
HETATM    9  C   UNL     1     -41.935 -56.034  17.910  1.00  0.00     0.007 C 
HETATM   10  C   UNL     1     -42.994 -55.146  17.254  1.00  0.00     0.002 C 
HETATM   11  C   UNL     1     -42.266 -54.306  16.190  1.00  0.00     0.026 C 
HETATM   12  C   UNL     1     -40.964 -55.059  15.926  1.00  0.00     0.093 C 
HETATM   13  H   UNL     1     -41.280 -52.432  15.100  1.00  0.00     0.170 HD
ENDROOT
BRANCH   1  14
HETATM   14  C   UNL     1     -40.748 -51.410  13.377  1.00  0.00     0.051 A 
HETATM   15  C   UNL     1     -40.670 -50.077  13.780  1.00  0.00     0.035 A 
HETATM   16  C   UNL     1     -40.747 -49.049  12.841  1.00  0.00     0.058 A 
HETATM   17  C   UNL     1     -40.901 -49.381  11.510  1.00  0.00     0.141 A 
HETATM   18  N   UNL     1     -40.963 -50.651  11.058  1.00  0.00    -0.345 N 
HETATM   19  C   UNL     1     -40.878 -51.628  12.004  1.00  0.00     0.119 A 
ATOM     20  HN  UNL     1     -41.069 -50.866  10.067  1.00  0.00     0.167 HD
BRANCH  17  21
HETATM   21  O   UNL     1     -40.899 -48.317  10.631  1.00  0.00    -0.334 OA
BRANCH  21  22
HETATM   22  C   UNL     1     -42.201 -47.860  10.273  1.00  0.00     0.203 C 
BRANCH  22  23
HETATM   23  C   UNL     1     -42.261 -46.361  10.573  1.00  0.00     0.193 C 
BRANCH  23  24
HETATM   24  O   UNL     1     -42.574 -45.634   9.385  1.00  0.00    -0.394 OA
HETATM   25  C   UNL     1     -43.680 -46.205   8.699  1.00  0.00     0.201 C 
ENDBRANCH  23  24
ENDBRANCH  22  23
ENDBRANCH  21  22
ENDBRANCH  17  21
ENDBRANCH   1  14
TORSDOF 5
ENDMDL
MODEL 7
REMARK VINA RESULT:      -5.2     15.403     17.327
REMARK  5 active torsions:
REMARK  status: ('A' for Active; 'I' for Inactive)
REMARK    1  A    between atoms: O_2  and  C_3 
REMARK    2  A    between atoms: C_3  and  C_4 
REMARK    3  A    between atoms: C_4  and  O_5 
REMARK    4  A    between atoms: O_5  and  C_6 
REMARK    5  A    between atoms: C_9  and  N_10 
REMARK       I    between atoms: N_10  and  C_11 
REMARK       I    between atoms: C_11  and  N_13 
ROOT
HETATM    1  N   UNL     1     -51.551 -50.424  -0.378  1.00  0.00    -0.307 N 
HETATM    2  C   UNL     1     -50.504 -49.897   0.348  1.00  0.00     0.323 C 
HETATM    3  O   UNL     1     -49.411 -50.456   0.431  1.00  0.00    -0.247 OA
HETATM    4  N   UNL     1     -50.688 -48.641   0.933  1.00  0.00    -0.329 N 
HETATM    5  C   UNL     1     -49.483 -48.150   1.637  1.00  0.00     0.128 C 
HETATM    6  C   UNL     1     -49.350 -46.629   1.615  1.00  0.00     0.020 C 
HETATM    7  C   UNL     1     -50.615 -45.950   2.125  1.00  0.00     0.008 C 
HETATM    8  C   UNL     1     -51.801 -46.489   1.341  1.00  0.00     0.009 C 
HETATM    9  C   UNL     1     -53.157 -45.977   1.797  1.00  0.00     0.007 C 
HETATM   10  C   UNL     1     -54.142 -47.053   1.335  1.00  0.00     0.002 C 
HETATM   11  C   UNL     1     -53.296 -48.235   0.829  1.00  0.00     0.026 C 
HETATM   12  C   UNL     1     -51.919 -48.020   1.452  1.00  0.00     0.093 C 
HETATM   13  H   UNL     1     -52.264 -49.778  -0.664  1.00  0.00     0.170 HD
ENDROOT
BRANCH   1  14
HETATM   14  C   UNL     1     -51.506 -51.660  -1.085  1.00  0.00     0.051 A 
HETATM   15  C   UNL     1     -51.934 -52.875  -0.549  1.00  0.00     0.035 A 
HETATM   16  C   UNL     1     -51.830 -54.051  -1.290  1.00  0.00     0.058 A 
HETATM   17  C   UNL     1     -51.297 -53.985  -2.562  1.00  0.00     0.141 A 
HETATM   18  N   UNL     1     -50.884 -52.839  -3.141  1.00  0.00    -0.345 N 
HETATM   19  C   UNL     1     -51.007 -51.709  -2.389  1.00  0.00     0.119 A 
ATOM     20  HN  UNL     1     -50.501 -52.819  -4.086  1.00  0.00     0.167 HD
BRANCH  17  21
HETATM   21  O   UNL     1     -51.290 -55.174  -3.262  1.00  0.00    -0.334 OA
BRANCH  21  22
HETATM   22  C   UNL     1     -50.023 -55.506  -3.827  1.00  0.00     0.203 C 
BRANCH  22  23
HETATM   23  C   UNL     1     -49.124 -55.988  -2.688  1.00  0.00     0.193 C 
BRANCH  23  24
HETATM   24  O   UNL     1     -49.057 -57.413  -2.684  1.00  0.00    -0.394 OA
HETATM   25  C   UNL     1     -48.266 -57.903  -3.760  1.00  0.00     0.201 C 
ENDBRANCH  23  24
ENDBRANCH  22  23
ENDBRANCH  21  22
ENDBRANCH  17  21
ENDBRANCH   1  14
TORSDOF 5
ENDMDL
MODEL 8
REMARK VINA RESULT:      -5.2      2.085      8.465
REMARK  5 active torsions:
REMARK  status: ('A' for Active; 'I' for Inactive)
REMARK    1  A    between atoms: O_2  and  C_3 
REMARK    2  A    between atoms: C_3  and  C_4 
REMARK    3  A    between atoms: C_4  and  O_5 
REMARK    4  A    between atoms: O_5  and  C_6 
REMARK    5  A    between atoms: C_9  and  N_10 
REMARK       I    between atoms: N_10  and  C_11 
REMARK       I    between atoms: C_11  and  N_13 
ROOT
HETATM    1  N   UNL     1     -41.679 -48.534  12.343  1.00  0.00    -0.307 N 
HETATM    2  C   UNL     1     -42.151 -47.649  11.397  1.00  0.00     0.323 C 
HETATM    3  O   UNL     1     -42.960 -47.980  10.531  1.00  0.00    -0.247 OA
HETATM    4  N   UNL     1     -41.745 -46.315  11.497  1.00  0.00    -0.329 N 
HETATM    5  C   UNL     1     -42.357 -45.447  10.466  1.00  0.00     0.128 C 
HETATM    6  C   UNL     1     -42.575 -44.012  10.939  1.00  0.00     0.020 C 
HETATM    7  C   UNL     1     -41.293 -43.406  11.497  1.00  0.00     0.008 C 
HETATM    8  C   UNL     1     -40.740 -44.342  12.560  1.00  0.00     0.009 C 
HETATM    9  C   UNL     1     -39.403 -43.923  13.150  1.00  0.00     0.007 C 
HETATM   10  C   UNL     1     -38.796 -45.227  13.671  1.00  0.00     0.002 C 
HETATM   11  C   UNL     1     -39.701 -46.366  13.169  1.00  0.00     0.026 C 
HETATM   12  C   UNL     1     -40.482 -45.756  12.007  1.00  0.00     0.093 C 
HETATM   13  H   UNL     1     -41.302 -48.130  13.181  1.00  0.00     0.170 HD
ENDROOT
BRANCH   1  14
HETATM   14  C   UNL     1     -42.042 -49.910  12.420  1.00  0.00     0.051 A 
HETATM   15  C   UNL     1     -41.226 -50.952  11.979  1.00  0.00     0.035 A 
HETATM   16  C   UNL     1     -41.663 -52.273  12.057  1.00  0.00     0.058 A 
HETATM   17  C   UNL     1     -42.915 -52.525  12.580  1.00  0.00     0.141 A 
HETATM   18  N   UNL     1     -43.742 -51.563  13.039  1.00  0.00    -0.345 N 
HETATM   19  C   UNL     1     -43.278 -50.284  12.953  1.00  0.00     0.119 A 
ATOM     20  HN  UNL     1     -44.659 -51.779  13.428  1.00  0.00     0.167 HD
BRANCH  17  21
HETATM   21  O   UNL     1     -43.252 -53.859  12.692  1.00  0.00    -0.334 OA
BRANCH  21  22
HETATM   22  C   UNL     1     -44.617 -54.084  13.039  1.00  0.00     0.203 C 
BRANCH  22  23
HETATM   23  C   UNL     1     -44.633 -54.965  14.289  1.00  0.00     0.193 C 
BRANCH  23  24
HETATM   24  O   UNL     1     -43.308 -55.129  14.793  1.00  0.00    -0.394 OA
HETATM   25  C   UNL     1     -43.193 -54.644  16.125  1.00  0.00     0.201 C 
ENDBRANCH  23  24
ENDBRANCH  22  23
ENDBRANCH  21  22
ENDBRANCH  17  21
ENDBRANCH   1  14
TORSDOF 5
ENDMDL
MODEL 9
REMARK VINA RESULT:      -5.0     19.300     20.739
REMARK  5 active torsions:
REMARK  status: ('A' for Active; 'I' for Inactive)
REMARK    1  A    between atoms: O_2  and  C_3 
REMARK    2  A    between atoms: C_3  and  C_4 
REMARK    3  A    between atoms: C_4  and  O_5 
REMARK    4  A    between atoms: O_5  and  C_6 
REMARK    5  A    between atoms: C_9  and  N_10 
REMARK       I    between atoms: N_10  and  C_11 
REMARK       I    between atoms: C_11  and  N_13 
ROOT
HETATM    1  N   UNL     1     -29.793 -44.808  -2.936  1.00  0.00    -0.307 N 
HETATM    2  C   UNL     1     -30.284 -46.027  -3.352  1.00  0.00     0.323 C 
HETATM    3  O   UNL     1     -29.603 -47.052  -3.339  1.00  0.00    -0.247 OA
HETATM    4  N   UNL     1     -31.632 -46.093  -3.718  1.00  0.00    -0.329 N 
HETATM    5  C   UNL     1     -32.063 -47.458  -4.092  1.00  0.00     0.128 C 
HETATM    6  C   UNL     1     -33.528 -47.738  -3.766  1.00  0.00     0.020 C 
HETATM    7  C   UNL     1     -34.445 -46.675  -4.359  1.00  0.00     0.008 C 
HETATM    8  C   UNL     1     -33.952 -45.309  -3.914  1.00  0.00     0.009 C 
HETATM    9  C   UNL     1     -34.709 -44.130  -4.504  1.00  0.00     0.007 C 
HETATM   10  C   UNL     1     -33.716 -42.969  -4.433  1.00  0.00     0.002 C 
HETATM   11  C   UNL     1     -32.364 -43.572  -4.010  1.00  0.00     0.026 C 
HETATM   12  C   UNL     1     -32.488 -45.060  -4.326  1.00  0.00     0.093 C 
HETATM   13  H   UNL     1     -30.474 -44.122  -2.668  1.00  0.00     0.170 HD
ENDROOT
BRANCH   1  14
HETATM   14  C   UNL     1     -28.464 -44.585  -2.473  1.00  0.00     0.051 A 
HETATM   15  C   UNL     1     -27.421 -44.154  -3.293  1.00  0.00     0.035 A 
HETATM   16  C   UNL     1     -26.137 -43.987  -2.775  1.00  0.00     0.058 A 
HETATM   17  C   UNL     1     -25.924 -44.256  -1.438  1.00  0.00     0.141 A 
HETATM   18  N   UNL     1     -26.895 -44.657  -0.592  1.00  0.00    -0.345 N 
HETATM   19  C   UNL     1     -28.138 -44.803  -1.132  1.00  0.00     0.119 A 
ATOM     20  HN  UNL     1     -26.710 -44.841   0.394  1.00  0.00     0.167 HD
BRANCH  17  21
HETATM   21  O   UNL     1     -24.647 -44.002  -0.980  1.00  0.00    -0.334 OA
BRANCH  21  22
HETATM   22  C   UNL     1     -24.553 -43.887   0.439  1.00  0.00     0.203 C 
BRANCH  22  23
HETATM   23  C   UNL     1     -24.883 -42.439   0.805  1.00  0.00     0.193 C 
BRANCH  23  24
HETATM   24  O   UNL     1     -26.068 -42.389   1.598  1.00  0.00    -0.394 OA
HETATM   25  C   UNL     1     -26.361 -41.063   2.018  1.00  0.00     0.201 C 
ENDBRANCH  23  24
ENDBRANCH  22  23
ENDBRANCH  21  22
ENDBRANCH  17  21
ENDBRANCH   1  14
TORSDOF 5
ENDMDL
