MODEL 1
REMARK VINA RESULT:      -6.0      0.000      0.000
REMARK  8 active torsions:
REMARK  status: ('A' for Active; 'I' for Inactive)
REMARK    1  A    between atoms: C_7  and  O_8 
REMARK    2  A    between atoms: O_8  and  C_9 
REMARK    3  A    between atoms: C_9  and  C_10 
REMARK    4  A    between atoms: C_10  and  O_11 
REMARK    5  A    between atoms: C_10  and  C_12 
REMARK    6  A    between atoms: C_12  and  N_13 
REMARK    7  A    between atoms: C_14  and  C_15 
REMARK    8  A    between atoms: C_15  and  O_16 
ROOT
HETATM    1  C   UNL     1     -42.956 -52.677  12.449  1.00  0.00     0.160 C 
ENDROOT
BRANCH   1   2
HETATM    2  C   UNL     1     -42.817 -51.313  13.135  1.00  0.00     0.209 C 
BRANCH   2   3
HETATM    3  O   UNL     1     -44.077 -50.663  13.214  1.00  0.00    -0.347 OA
BRANCH   3   4
HETATM    4  C   UNL     1     -44.836 -50.764  14.355  1.00  0.00     0.081 A 
HETATM    5  C   UNL     1     -46.103 -51.359  14.088  1.00  0.00    -0.028 A 
HETATM    6  C   UNL     1     -47.034 -51.549  15.115  1.00  0.00     0.010 A 
HETATM    7  C   UNL     1     -46.476 -51.847  12.707  1.00  0.00     0.051 C 
HETATM    8  C   UNL     1     -46.733 -51.167  16.412  1.00  0.00     0.008 A 
HETATM    9  C   UNL     1     -45.495 -50.588  16.708  1.00  0.00    -0.053 A 
HETATM   10  C   UNL     1     -45.222 -50.226  18.152  1.00  0.00     0.049 C 
HETATM   11  C   UNL     1     -44.534 -50.350  15.676  1.00  0.00    -0.022 A 
HETATM   12  C   UNL     1     -43.251 -49.707  16.166  1.00  0.00     0.052 C 
ENDBRANCH   3   4
ENDBRANCH   2   3
ENDBRANCH   1   2
BRANCH   1  13
HETATM   13  O   UNL     1     -42.095 -52.718  11.298  1.00  0.00    -0.392 OA
HETATM   14  H   UNL     1     -42.658 -52.935  10.528  1.00  0.00     0.210 HD
ENDBRANCH   1  13
BRANCH   1  15
HETATM   15  C   UNL     1     -42.524 -53.817  13.384  1.00  0.00     0.164 C 
BRANCH  15  16
HETATM   16  N   UNL     1     -43.254 -53.917  14.635  1.00  0.00    -0.330 N 
HETATM   17  C   UNL     1     -44.508 -54.456  14.844  1.00  0.00     0.108 A 
HETATM   18  N   UNL     1     -44.831 -54.414  16.123  1.00  0.00    -0.342 N 
HETATM   19  C   UNL     1     -43.773 -53.827  16.757  1.00  0.00     0.060 A 
ATOM     20  HN  UNL     1     -45.694 -54.750  16.550  1.00  0.00     0.167 HD
HETATM   21  C   UNL     1     -43.594 -53.569  18.120  1.00  0.00     0.032 A 
HETATM   22  C   UNL     1     -42.774 -53.484  15.853  1.00  0.00     0.062 A 
HETATM   23  C   UNL     1     -42.397 -52.969  18.542  1.00  0.00     0.002 A 
HETATM   24  C   UNL     1     -41.415 -52.623  17.620  1.00  0.00     0.002 A 
HETATM   25  C   UNL     1     -41.590 -52.853  16.251  1.00  0.00     0.032 A 
BRANCH  17  26
HETATM   26  C   UNL     1     -45.395 -55.056  13.801  1.00  0.00     0.240 C 
BRANCH  26  27
HETATM   27  O   UNL     1     -46.651 -55.328  14.418  1.00  0.00    -0.393 OA
HETATM   28  H   UNL     1     -46.659 -54.792  15.236  1.00  0.00     0.209 HD
ENDBRANCH  26  27
ENDBRANCH  17  26
ENDBRANCH  15  16
ENDBRANCH   1  15
TORSDOF 8
ENDMDL
MODEL 2
REMARK VINA RESULT:      -6.0      2.997      5.567
REMARK  8 active torsions:
REMARK  status: ('A' for Active; 'I' for Inactive)
REMARK    1  A    between atoms: C_7  and  O_8 
REMARK    2  A    between atoms: O_8  and  C_9 
REMARK    3  A    between atoms: C_9  and  C_10 
REMARK    4  A    between atoms: C_10  and  O_11 
REMARK    5  A    between atoms: C_10  and  C_12 
REMARK    6  A    between atoms: C_12  and  N_13 
REMARK    7  A    between atoms: C_14  and  C_15 
REMARK    8  A    between atoms: C_15  and  O_16 
ROOT
HETATM    1  C   UNL     1     -39.099 -51.376  13.000  1.00  0.00     0.160 C 
ENDROOT
BRANCH   1   2
HETATM    2  C   UNL     1     -40.138 -52.379  12.489  1.00  0.00     0.209 C 
BRANCH   2   3
HETATM    3  O   UNL     1     -39.981 -53.635  13.133  1.00  0.00    -0.347 OA
BRANCH   3   4
HETATM    4  C   UNL     1     -40.989 -54.140  13.918  1.00  0.00     0.081 A 
HETATM    5  C   UNL     1     -40.482 -54.674  15.138  1.00  0.00    -0.028 A 
HETATM    6  C   UNL     1     -41.344 -55.246  16.081  1.00  0.00     0.010 A 
HETATM    7  C   UNL     1     -39.012 -54.606  15.485  1.00  0.00     0.051 C 
HETATM    8  C   UNL     1     -42.708 -55.294  15.843  1.00  0.00     0.008 A 
HETATM    9  C   UNL     1     -43.237 -54.771  14.659  1.00  0.00    -0.053 A 
HETATM   10  C   UNL     1     -44.738 -54.829  14.482  1.00  0.00     0.049 C 
HETATM   11  C   UNL     1     -42.380 -54.209  13.661  1.00  0.00    -0.022 A 
HETATM   12  C   UNL     1     -43.114 -53.699  12.436  1.00  0.00     0.052 C 
ENDBRANCH   3   4
ENDBRANCH   2   3
ENDBRANCH   1   2
BRANCH   1  13
HETATM   13  O   UNL     1     -38.241 -50.988  11.914  1.00  0.00    -0.392 OA
HETATM   14  H   UNL     1     -37.917 -50.087  12.114  1.00  0.00     0.210 HD
ENDBRANCH   1  13
BRANCH   1  15
HETATM   15  C   UNL     1     -39.771 -50.099  13.531  1.00  0.00     0.164 C 
BRANCH  15  16
HETATM   16  N   UNL     1     -41.194 -49.982  13.270  1.00  0.00    -0.330 N 
HETATM   17  C   UNL     1     -41.811 -49.439  12.160  1.00  0.00     0.108 A 
HETATM   18  N   UNL     1     -43.123 -49.545  12.251  1.00  0.00    -0.342 N 
HETATM   19  C   UNL     1     -43.366 -50.160  13.447  1.00  0.00     0.060 A 
ATOM     20  HN  UNL     1     -43.813 -49.233  11.569  1.00  0.00     0.167 HD
HETATM   21  C   UNL     1     -44.589 -50.533  14.014  1.00  0.00     0.032 A 
HETATM   22  C   UNL     1     -42.182 -50.431  14.122  1.00  0.00     0.062 A 
HETATM   23  C   UNL     1     -44.585 -51.182  15.259  1.00  0.00     0.002 A 
HETATM   24  C   UNL     1     -43.390 -51.432  15.924  1.00  0.00     0.002 A 
HETATM   25  C   UNL     1     -42.161 -51.043  15.380  1.00  0.00     0.032 A 
BRANCH  17  26
HETATM   26  C   UNL     1     -41.124 -48.840  10.975  1.00  0.00     0.240 C 
BRANCH  26  27
HETATM   27  O   UNL     1     -40.599 -49.916  10.201  1.00  0.00    -0.393 OA
HETATM   28  H   UNL     1     -39.643 -49.940  10.407  1.00  0.00     0.209 HD
ENDBRANCH  26  27
ENDBRANCH  17  26
ENDBRANCH  15  16
ENDBRANCH   1  15
TORSDOF 8
ENDMDL
MODEL 3
REMARK VINA RESULT:      -5.9      2.320      4.450
REMARK  8 active torsions:
REMARK  status: ('A' for Active; 'I' for Inactive)
REMARK    1  A    between atoms: C_7  and  O_8 
REMARK    2  A    between atoms: O_8  and  C_9 
REMARK    3  A    between atoms: C_9  and  C_10 
REMARK    4  A    between atoms: C_10  and  O_11 
REMARK    5  A    between atoms: C_10  and  C_12 
REMARK    6  A    between atoms: C_12  and  N_13 
REMARK    7  A    between atoms: C_14  and  C_15 
REMARK    8  A    between atoms: C_15  and  O_16 
ROOT
HETATM    1  C   UNL     1     -41.184 -53.252  12.667  1.00  0.00     0.160 C 
ENDROOT
BRANCH   1   2
HETATM    2  C   UNL     1     -42.623 -52.765  12.465  1.00  0.00     0.209 C 
BRANCH   2   3
HETATM    3  O   UNL     1     -43.548 -53.725  12.952  1.00  0.00    -0.347 OA
BRANCH   3   4
HETATM    4  C   UNL     1     -44.362 -53.423  14.017  1.00  0.00     0.081 A 
HETATM    5  C   UNL     1     -44.080 -54.252  15.141  1.00  0.00    -0.028 A 
HETATM    6  C   UNL     1     -44.801 -54.112  16.332  1.00  0.00     0.010 A 
HETATM    7  C   UNL     1     -42.970 -55.277  15.113  1.00  0.00     0.051 C 
HETATM    8  C   UNL     1     -45.799 -53.156  16.437  1.00  0.00     0.008 A 
HETATM    9  C   UNL     1     -46.094 -52.322  15.354  1.00  0.00    -0.053 A 
HETATM   10  C   UNL     1     -47.173 -51.280  15.552  1.00  0.00     0.049 C 
HETATM   11  C   UNL     1     -45.398 -52.461  14.113  1.00  0.00    -0.022 A 
HETATM   12  C   UNL     1     -45.848 -51.486  13.043  1.00  0.00     0.052 C 
ENDBRANCH   3   4
ENDBRANCH   2   3
ENDBRANCH   1   2
BRANCH   1  13
HETATM   13  O   UNL     1     -40.511 -53.282  11.396  1.00  0.00    -0.392 OA
HETATM   14  H   UNL     1     -40.419 -52.355  11.100  1.00  0.00     0.210 HD
ENDBRANCH   1  13
BRANCH   1  15
HETATM   15  C   UNL     1     -40.395 -52.298  13.579  1.00  0.00     0.164 C 
BRANCH  15  16
HETATM   16  N   UNL     1     -40.918 -50.948  13.681  1.00  0.00    -0.330 N 
HETATM   17  C   UNL     1     -40.687 -49.883  12.832  1.00  0.00     0.108 A 
HETATM   18  N   UNL     1     -41.368 -48.819  13.216  1.00  0.00    -0.342 N 
HETATM   19  C   UNL     1     -42.047 -49.195  14.340  1.00  0.00     0.060 A 
ATOM     20  HN  UNL     1     -41.383 -47.905  12.766  1.00  0.00     0.167 HD
HETATM   21  C   UNL     1     -42.935 -48.451  15.124  1.00  0.00     0.032 A 
HETATM   22  C   UNL     1     -41.774 -50.517  14.673  1.00  0.00     0.062 A 
HETATM   23  C   UNL     1     -43.536 -49.069  16.233  1.00  0.00     0.002 A 
HETATM   24  C   UNL     1     -43.240 -50.388  16.556  1.00  0.00     0.002 A 
HETATM   25  C   UNL     1     -42.336 -51.137  15.795  1.00  0.00     0.032 A 
BRANCH  17  26
HETATM   26  C   UNL     1     -39.825 -49.900  11.611  1.00  0.00     0.240 C 
BRANCH  26  27
HETATM   27  O   UNL     1     -40.616 -50.410  10.541  1.00  0.00    -0.393 OA
HETATM   28  H   UNL     1     -39.995 -50.916   9.979  1.00  0.00     0.209 HD
ENDBRANCH  26  27
ENDBRANCH  17  26
ENDBRANCH  15  16
ENDBRANCH   1  15
TORSDOF 8
ENDMDL
MODEL 4
REMARK VINA RESULT:      -5.9      2.258      4.708
REMARK  8 active torsions:
REMARK  status: ('A' for Active; 'I' for Inactive)
REMARK    1  A    between atoms: C_7  and  O_8 
REMARK    2  A    between atoms: O_8  and  C_9 
REMARK    3  A    between atoms: C_9  and  C_10 
REMARK    4  A    between atoms: C_10  and  O_11 
REMARK    5  A    between atoms: C_10  and  C_12 
REMARK    6  A    between atoms: C_12  and  N_13 
REMARK    7  A    between atoms: C_14  and  C_15 
REMARK    8  A    between atoms: C_15  and  O_16 
ROOT
HETATM    1  C   UNL     1     -42.366 -54.329  16.932  1.00  0.00     0.160 C 
ENDROOT
BRANCH   1   2
HETATM    2  C   UNL     1     -43.090 -54.722  15.640  1.00  0.00     0.209 C 
BRANCH   2   3
HETATM    3  O   UNL     1     -44.497 -54.717  15.834  1.00  0.00    -0.347 OA
BRANCH   3   4
HETATM    4  C   UNL     1     -45.258 -53.682  15.349  1.00  0.00     0.081 A 
HETATM    5  C   UNL     1     -45.953 -53.010  16.397  1.00  0.00    -0.028 A 
HETATM    6  C   UNL     1     -46.791 -51.925  16.117  1.00  0.00     0.010 A 
HETATM    7  C   UNL     1     -45.780 -53.406  17.845  1.00  0.00     0.051 C 
HETATM    8  C   UNL     1     -46.953 -51.483  14.814  1.00  0.00     0.008 A 
HETATM    9  C   UNL     1     -46.278 -52.116  13.765  1.00  0.00    -0.053 A 
HETATM   10  C   UNL     1     -46.477 -51.558  12.373  1.00  0.00     0.049 C 
HETATM   11  C   UNL     1     -45.439 -53.247  14.013  1.00  0.00    -0.022 A 
HETATM   12  C   UNL     1     -44.794 -53.819  12.766  1.00  0.00     0.052 C 
ENDBRANCH   3   4
ENDBRANCH   2   3
ENDBRANCH   1   2
BRANCH   1  13
HETATM   13  O   UNL     1     -41.656 -55.471  17.443  1.00  0.00    -0.392 OA
HETATM   14  H   UNL     1     -41.261 -55.202  18.296  1.00  0.00     0.210 HD
ENDBRANCH   1  13
BRANCH   1  15
HETATM   15  C   UNL     1     -41.330 -53.223  16.677  1.00  0.00     0.164 C 
BRANCH  15  16
HETATM   16  N   UNL     1     -41.193 -52.796  15.297  1.00  0.00    -0.330 N 
HETATM   17  C   UNL     1     -40.357 -53.314  14.328  1.00  0.00     0.108 A 
HETATM   18  N   UNL     1     -40.537 -52.701  13.173  1.00  0.00    -0.342 N 
HETATM   19  C   UNL     1     -41.501 -51.759  13.396  1.00  0.00     0.060 A 
ATOM     20  HN  UNL     1     -40.055 -52.892  12.295  1.00  0.00     0.167 HD
HETATM   21  C   UNL     1     -42.078 -50.859  12.496  1.00  0.00     0.032 A 
HETATM   22  C   UNL     1     -41.922 -51.776  14.721  1.00  0.00     0.062 A 
HETATM   23  C   UNL     1     -43.081 -49.991  12.959  1.00  0.00     0.002 A 
HETATM   24  C   UNL     1     -43.479 -50.016  14.291  1.00  0.00     0.002 A 
HETATM   25  C   UNL     1     -42.893 -50.894  15.208  1.00  0.00     0.032 A 
BRANCH  17  26
HETATM   26  C   UNL     1     -39.393 -54.444  14.507  1.00  0.00     0.240 C 
BRANCH  26  27
HETATM   27  O   UNL     1     -38.938 -54.823  13.210  1.00  0.00    -0.393 OA
HETATM   28  H   UNL     1     -38.664 -53.989  12.778  1.00  0.00     0.209 HD
ENDBRANCH  26  27
ENDBRANCH  17  26
ENDBRANCH  15  16
ENDBRANCH   1  15
TORSDOF 8
ENDMDL
MODEL 5
REMARK VINA RESULT:      -5.8      2.406      3.797
REMARK  8 active torsions:
REMARK  status: ('A' for Active; 'I' for Inactive)
REMARK    1  A    between atoms: C_7  and  O_8 
REMARK    2  A    between atoms: O_8  and  C_9 
REMARK    3  A    between atoms: C_9  and  C_10 
REMARK    4  A    between atoms: C_10  and  O_11 
REMARK    5  A    between atoms: C_10  and  C_12 
REMARK    6  A    between atoms: C_12  and  N_13 
REMARK    7  A    between atoms: C_14  and  C_15 
REMARK    8  A    between atoms: C_15  and  O_16 
ROOT
HETATM    1  C   UNL     1     -41.041 -51.230  12.054  1.00  0.00     0.160 C 
ENDROOT
BRANCH   1   2
HETATM    2  C   UNL     1     -40.348 -50.686  13.308  1.00  0.00     0.209 C 
BRANCH   2   3
HETATM    3  O   UNL     1     -41.244 -49.892  14.070  1.00  0.00    -0.347 OA
BRANCH   3   4
HETATM    4  C   UNL     1     -42.198 -50.489  14.858  1.00  0.00     0.081 A 
HETATM    5  C   UNL     1     -43.510 -50.270  14.345  1.00  0.00    -0.028 A 
HETATM    6  C   UNL     1     -44.630 -50.791  15.002  1.00  0.00     0.010 A 
HETATM    7  C   UNL     1     -43.743 -49.514  13.058  1.00  0.00     0.051 C 
HETATM    8  C   UNL     1     -44.479 -51.535  16.161  1.00  0.00     0.008 A 
HETATM    9  C   UNL     1     -43.205 -51.774  16.685  1.00  0.00    -0.053 A 
HETATM   10  C   UNL     1     -43.114 -52.623  17.934  1.00  0.00     0.049 C 
HETATM   11  C   UNL     1     -42.042 -51.230  16.055  1.00  0.00    -0.022 A 
HETATM   12  C   UNL     1     -40.743 -51.576  16.758  1.00  0.00     0.052 C 
ENDBRANCH   3   4
ENDBRANCH   2   3
ENDBRANCH   1   2
BRANCH   1  13
HETATM   13  O   UNL     1     -40.449 -50.632  10.888  1.00  0.00    -0.392 OA
HETATM   14  H   UNL     1     -39.648 -50.157  11.186  1.00  0.00     0.210 HD
ENDBRANCH   1  13
BRANCH   1  15
HETATM   15  C   UNL     1     -40.859 -52.751  11.931  1.00  0.00     0.164 C 
BRANCH  15  16
HETATM   16  N   UNL     1     -41.402 -53.540  13.021  1.00  0.00    -0.330 N 
HETATM   17  C   UNL     1     -40.716 -54.133  14.063  1.00  0.00     0.108 A 
HETATM   18  N   UNL     1     -41.547 -54.734  14.892  1.00  0.00    -0.342 N 
HETATM   19  C   UNL     1     -42.798 -54.538  14.377  1.00  0.00     0.060 A 
ATOM     20  HN  UNL     1     -41.307 -55.241  15.744  1.00  0.00     0.167 HD
HETATM   21  C   UNL     1     -44.035 -54.947  14.885  1.00  0.00     0.032 A 
HETATM   22  C   UNL     1     -42.744 -53.811  13.194  1.00  0.00     0.062 A 
HETATM   23  C   UNL     1     -45.200 -54.603  14.181  1.00  0.00     0.002 A 
HETATM   24  C   UNL     1     -45.124 -53.885  12.993  1.00  0.00     0.002 A 
HETATM   25  C   UNL     1     -43.892 -53.490  12.460  1.00  0.00     0.032 A 
BRANCH  17  26
HETATM   26  C   UNL     1     -39.238 -54.089  14.283  1.00  0.00     0.240 C 
BRANCH  26  27
HETATM   27  O   UNL     1     -38.647 -55.013  13.372  1.00  0.00    -0.393 OA
HETATM   28  H   UNL     1     -39.365 -55.269  12.760  1.00  0.00     0.209 HD
ENDBRANCH  26  27
ENDBRANCH  17  26
ENDBRANCH  15  16
ENDBRANCH   1  15
TORSDOF 8
ENDMDL
MODEL 6
REMARK VINA RESULT:      -5.8      4.485      7.076
REMARK  8 active torsions:
REMARK  status: ('A' for Active; 'I' for Inactive)
REMARK    1  A    between atoms: C_7  and  O_8 
REMARK    2  A    between atoms: O_8  and  C_9 
REMARK    3  A    between atoms: C_9  and  C_10 
REMARK    4  A    between atoms: C_10  and  O_11 
REMARK    5  A    between atoms: C_10  and  C_12 
REMARK    6  A    between atoms: C_12  and  N_13 
REMARK    7  A    between atoms: C_14  and  C_15 
REMARK    8  A    between atoms: C_15  and  O_16 
ROOT
HETATM    1  C   UNL     1     -40.761 -50.149  11.680  1.00  0.00     0.160 C 
ENDROOT
BRANCH   1   2
HETATM    2  C   UNL     1     -41.288 -51.556  11.984  1.00  0.00     0.209 C 
BRANCH   2   3
HETATM    3  O   UNL     1     -41.853 -51.608  13.285  1.00  0.00    -0.347 OA
BRANCH   3   4
HETATM    4  C   UNL     1     -42.416 -52.773  13.748  1.00  0.00     0.081 A 
HETATM    5  C   UNL     1     -41.545 -53.449  14.651  1.00  0.00    -0.028 A 
HETATM    6  C   UNL     1     -41.924 -54.663  15.235  1.00  0.00     0.010 A 
HETATM    7  C   UNL     1     -40.207 -52.869  15.049  1.00  0.00     0.051 C 
HETATM    8  C   UNL     1     -43.159 -55.222  14.949  1.00  0.00     0.008 A 
HETATM    9  C   UNL     1     -44.039 -54.578  14.073  1.00  0.00    -0.053 A 
HETATM   10  C   UNL     1     -45.383 -55.230  13.833  1.00  0.00     0.049 C 
HETATM   11  C   UNL     1     -43.669 -53.353  13.434  1.00  0.00    -0.022 A 
HETATM   12  C   UNL     1     -44.733 -52.797  12.509  1.00  0.00     0.052 C 
ENDBRANCH   3   4
ENDBRANCH   2   3
ENDBRANCH   1   2
BRANCH   1  13
HETATM   13  O   UNL     1     -40.579 -50.008  10.260  1.00  0.00    -0.392 OA
HETATM   14  H   UNL     1     -39.625 -49.851  10.109  1.00  0.00     0.210 HD
ENDBRANCH   1  13
BRANCH   1  15
HETATM   15  C   UNL     1     -41.764 -49.072  12.121  1.00  0.00     0.164 C 
BRANCH  15  16
HETATM   16  N   UNL     1     -41.449 -47.714  11.714  1.00  0.00    -0.330 N 
HETATM   17  C   UNL     1     -42.008 -46.989  10.680  1.00  0.00     0.108 A 
HETATM   18  N   UNL     1     -41.505 -45.770  10.635  1.00  0.00    -0.342 N 
HETATM   19  C   UNL     1     -40.595 -45.702  11.652  1.00  0.00     0.060 A 
ATOM     20  HN  UNL     1     -41.746 -45.029   9.976  1.00  0.00     0.167 HD
HETATM   21  C   UNL     1     -39.804 -44.623  12.057  1.00  0.00     0.032 A 
HETATM   22  C   UNL     1     -40.519 -46.909  12.337  1.00  0.00     0.062 A 
HETATM   23  C   UNL     1     -38.949 -44.789  13.159  1.00  0.00     0.002 A 
HETATM   24  C   UNL     1     -38.880 -46.008  13.824  1.00  0.00     0.002 A 
HETATM   25  C   UNL     1     -39.647 -47.104  13.415  1.00  0.00     0.032 A 
BRANCH  17  26
HETATM   26  C   UNL     1     -43.069 -47.465   9.741  1.00  0.00     0.240 C 
BRANCH  26  27
HETATM   27  O   UNL     1     -42.421 -48.204   8.708  1.00  0.00    -0.393 OA
HETATM   28  H   UNL     1     -41.892 -48.884   9.171  1.00  0.00     0.209 HD
ENDBRANCH  26  27
ENDBRANCH  17  26
ENDBRANCH  15  16
ENDBRANCH   1  15
TORSDOF 8
ENDMDL
MODEL 7
REMARK VINA RESULT:      -5.8      4.326      6.394
REMARK  8 active torsions:
REMARK  status: ('A' for Active; 'I' for Inactive)
REMARK    1  A    between atoms: C_7  and  O_8 
REMARK    2  A    between atoms: O_8  and  C_9 
REMARK    3  A    between atoms: C_9  and  C_10 
REMARK    4  A    between atoms: C_10  and  O_11 
REMARK    5  A    between atoms: C_10  and  C_12 
REMARK    6  A    between atoms: C_12  and  N_13 
REMARK    7  A    between atoms: C_14  and  C_15 
REMARK    8  A    between atoms: C_15  and  O_16 
ROOT
HETATM    1  C   UNL     1     -41.805 -50.118  11.803  1.00  0.00     0.160 C 
ENDROOT
BRANCH   1   2
HETATM    2  C   UNL     1     -41.752 -48.598  11.987  1.00  0.00     0.209 C 
BRANCH   2   3
HETATM    3  O   UNL     1     -40.431 -48.116  11.791  1.00  0.00    -0.347 OA
BRANCH   3   4
HETATM    4  C   UNL     1     -40.105 -46.828  12.142  1.00  0.00     0.081 A 
HETATM    5  C   UNL     1     -39.247 -46.797  13.279  1.00  0.00    -0.028 A 
HETATM    6  C   UNL     1     -38.801 -45.580  13.805  1.00  0.00     0.010 A 
HETATM    7  C   UNL     1     -38.750 -48.066  13.933  1.00  0.00     0.051 C 
HETATM    8  C   UNL     1     -39.182 -44.383  13.221  1.00  0.00     0.008 A 
HETATM    9  C   UNL     1     -40.016 -44.380  12.098  1.00  0.00    -0.053 A 
HETATM   10  C   UNL     1     -40.364 -43.037  11.493  1.00  0.00     0.049 C 
HETATM   11  C   UNL     1     -40.516 -45.605  11.556  1.00  0.00    -0.022 A 
HETATM   12  C   UNL     1     -41.415 -45.422  10.348  1.00  0.00     0.052 C 
ENDBRANCH   3   4
ENDBRANCH   2   3
ENDBRANCH   1   2
BRANCH   1  13
HETATM   13  O   UNL     1     -40.624 -50.552  11.107  1.00  0.00    -0.392 OA
HETATM   14  H   UNL     1     -39.922 -49.899  11.300  1.00  0.00     0.210 HD
ENDBRANCH   1  13
BRANCH   1  15
HETATM   15  C   UNL     1     -41.830 -50.843  13.157  1.00  0.00     0.164 C 
BRANCH  15  16
HETATM   16  N   UNL     1     -42.649 -52.040  13.215  1.00  0.00    -0.330 N 
HETATM   17  C   UNL     1     -42.246 -53.351  13.054  1.00  0.00     0.108 A 
HETATM   18  N   UNL     1     -43.261 -54.179  13.218  1.00  0.00    -0.342 N 
HETATM   19  C   UNL     1     -44.347 -53.393  13.482  1.00  0.00     0.060 A 
ATOM     20  HN  UNL     1     -43.239 -55.197  13.160  1.00  0.00     0.167 HD
HETATM   21  C   UNL     1     -45.663 -53.772  13.760  1.00  0.00     0.032 A 
HETATM   22  C   UNL     1     -44.005 -52.046  13.469  1.00  0.00     0.062 A 
HETATM   23  C   UNL     1     -46.612 -52.772  14.026  1.00  0.00     0.002 A 
HETATM   24  C   UNL     1     -46.253 -51.429  13.996  1.00  0.00     0.002 A 
HETATM   25  C   UNL     1     -44.945 -51.033  13.695  1.00  0.00     0.032 A 
BRANCH  17  26
HETATM   26  C   UNL     1     -40.854 -53.818  12.771  1.00  0.00     0.240 C 
BRANCH  26  27
HETATM   27  O   UNL     1     -40.569 -53.500  11.411  1.00  0.00    -0.393 OA
HETATM   28  H   UNL     1     -40.360 -52.545  11.406  1.00  0.00     0.209 HD
ENDBRANCH  26  27
ENDBRANCH  17  26
ENDBRANCH  15  16
ENDBRANCH   1  15
TORSDOF 8
ENDMDL
MODEL 8
REMARK VINA RESULT:      -5.8      3.840      6.111
REMARK  8 active torsions:
REMARK  status: ('A' for Active; 'I' for Inactive)
REMARK    1  A    between atoms: C_7  and  O_8 
REMARK    2  A    between atoms: O_8  and  C_9 
REMARK    3  A    between atoms: C_9  and  C_10 
REMARK    4  A    between atoms: C_10  and  O_11 
REMARK    5  A    between atoms: C_10  and  C_12 
REMARK    6  A    between atoms: C_12  and  N_13 
REMARK    7  A    between atoms: C_14  and  C_15 
REMARK    8  A    between atoms: C_15  and  O_16 
ROOT
HETATM    1  C   UNL     1     -41.192 -50.802  12.225  1.00  0.00     0.160 C 
ENDROOT
BRANCH   1   2
HETATM    2  C   UNL     1     -40.564 -49.953  11.115  1.00  0.00     0.209 C 
BRANCH   2   3
HETATM    3  O   UNL     1     -39.198 -49.688  11.399  1.00  0.00    -0.347 OA
BRANCH   3   4
HETATM    4  C   UNL     1     -38.857 -48.845  12.429  1.00  0.00     0.081 A 
HETATM    5  C   UNL     1     -37.894 -49.441  13.294  1.00  0.00    -0.028 A 
HETATM    6  C   UNL     1     -37.414 -48.751  14.412  1.00  0.00     0.010 A 
HETATM    7  C   UNL     1     -37.320 -50.811  13.018  1.00  0.00     0.051 C 
HETATM    8  C   UNL     1     -37.866 -47.471  14.692  1.00  0.00     0.008 A 
HETATM    9  C   UNL     1     -38.804 -46.856  13.857  1.00  0.00    -0.053 A 
HETATM   10  C   UNL     1     -39.227 -45.445  14.206  1.00  0.00     0.049 C 
HETATM   11  C   UNL     1     -39.339 -47.546  12.725  1.00  0.00    -0.022 A 
HETATM   12  C   UNL     1     -40.352 -46.740  11.935  1.00  0.00     0.052 C 
ENDBRANCH   3   4
ENDBRANCH   2   3
ENDBRANCH   1   2
BRANCH   1  13
HETATM   13  O   UNL     1     -42.568 -50.419  12.393  1.00  0.00    -0.392 OA
HETATM   14  H   UNL     1     -42.702 -50.250  13.347  1.00  0.00     0.210 HD
ENDBRANCH   1  13
BRANCH   1  15
HETATM   15  C   UNL     1     -41.173 -52.295  11.863  1.00  0.00     0.164 C 
BRANCH  15  16
HETATM   16  N   UNL     1     -41.562 -53.205  12.925  1.00  0.00    -0.330 N 
HETATM   17  C   UNL     1     -40.763 -53.744  13.915  1.00  0.00     0.108 A 
HETATM   18  N   UNL     1     -41.472 -54.496  14.735  1.00  0.00    -0.342 N 
HETATM   19  C   UNL     1     -42.755 -54.454  14.266  1.00  0.00     0.060 A 
ATOM     20  HN  UNL     1     -41.133 -55.005  15.551  1.00  0.00     0.167 HD
HETATM   21  C   UNL     1     -43.904 -55.058  14.786  1.00  0.00     0.032 A 
HETATM   22  C   UNL     1     -42.846 -53.670  13.122  1.00  0.00     0.062 A 
HETATM   23  C   UNL     1     -45.131 -54.848  14.135  1.00  0.00     0.002 A 
HETATM   24  C   UNL     1     -45.198 -54.070  12.984  1.00  0.00     0.002 A 
HETATM   25  C   UNL     1     -44.053 -53.480  12.439  1.00  0.00     0.032 A 
BRANCH  17  26
HETATM   26  C   UNL     1     -39.299 -53.503  14.094  1.00  0.00     0.240 C 
BRANCH  26  27
HETATM   27  O   UNL     1     -38.610 -54.534  13.390  1.00  0.00    -0.393 OA
HETATM   28  H   UNL     1     -39.231 -54.833  12.697  1.00  0.00     0.209 HD
ENDBRANCH  26  27
ENDBRANCH  17  26
ENDBRANCH  15  16
ENDBRANCH   1  15
TORSDOF 8
ENDMDL
MODEL 9
REMARK VINA RESULT:      -5.7      2.405      4.846
REMARK  8 active torsions:
REMARK  status: ('A' for Active; 'I' for Inactive)
REMARK    1  A    between atoms: C_7  and  O_8 
REMARK    2  A    between atoms: O_8  and  C_9 
REMARK    3  A    between atoms: C_9  and  C_10 
REMARK    4  A    between atoms: C_10  and  O_11 
REMARK    5  A    between atoms: C_10  and  C_12 
REMARK    6  A    between atoms: C_12  and  N_13 
REMARK    7  A    between atoms: C_14  and  C_15 
REMARK    8  A    between atoms: C_15  and  O_16 
ROOT
HETATM    1  C   UNL     1     -41.553 -50.283  15.398  1.00  0.00     0.160 C 
ENDROOT
BRANCH   1   2
HETATM    2  C   UNL     1     -40.406 -51.292  15.520  1.00  0.00     0.209 C 
BRANCH   2   3
HETATM    3  O   UNL     1     -40.741 -52.322  16.438  1.00  0.00    -0.347 OA
BRANCH   3   4
HETATM    4  C   UNL     1     -41.858 -53.095  16.232  1.00  0.00     0.081 A 
HETATM    5  C   UNL     1     -41.604 -54.139  15.295  1.00  0.00    -0.028 A 
HETATM    6  C   UNL     1     -42.613 -55.040  14.938  1.00  0.00     0.010 A 
HETATM    7  C   UNL     1     -40.236 -54.345  14.686  1.00  0.00     0.051 C 
HETATM    8  C   UNL     1     -43.876 -54.933  15.498  1.00  0.00     0.008 A 
HETATM    9  C   UNL     1     -44.154 -53.926  16.427  1.00  0.00    -0.053 A 
HETATM   10  C   UNL     1     -45.545 -53.891  17.022  1.00  0.00     0.049 C 
HETATM   11  C   UNL     1     -43.154 -52.969  16.789  1.00  0.00    -0.022 A 
HETATM   12  C   UNL     1     -43.624 -51.940  17.798  1.00  0.00     0.052 C 
ENDBRANCH   3   4
ENDBRANCH   2   3
ENDBRANCH   1   2
BRANCH   1  13
HETATM   13  O   UNL     1     -41.132 -49.019  15.939  1.00  0.00    -0.392 OA
HETATM   14  H   UNL     1     -40.207 -49.130  16.236  1.00  0.00     0.210 HD
ENDBRANCH   1  13
BRANCH   1  15
HETATM   15  C   UNL     1     -41.935 -50.048  13.928  1.00  0.00     0.164 C 
BRANCH  15  16
HETATM   16  N   UNL     1     -42.682 -51.118  13.293  1.00  0.00    -0.330 N 
HETATM   17  C   UNL     1     -42.230 -52.030  12.359  1.00  0.00     0.108 A 
HETATM   18  N   UNL     1     -43.181 -52.887  12.039  1.00  0.00    -0.342 N 
HETATM   19  C   UNL     1     -44.276 -52.521  12.770  1.00  0.00     0.060 A 
ATOM     20  HN  UNL     1     -43.112 -53.663  11.381  1.00  0.00     0.167 HD
HETATM   21  C   UNL     1     -45.539 -53.117  12.823  1.00  0.00     0.032 A 
HETATM   22  C   UNL     1     -44.006 -51.404  13.553  1.00  0.00     0.062 A 
HETATM   23  C   UNL     1     -46.509 -52.568  13.678  1.00  0.00     0.002 A 
HETATM   24  C   UNL     1     -46.223 -51.443  14.444  1.00  0.00     0.002 A 
HETATM   25  C   UNL     1     -44.971 -50.822  14.383  1.00  0.00     0.032 A 
BRANCH  17  26
HETATM   26  C   UNL     1     -40.848 -52.099  11.792  1.00  0.00     0.240 C 
BRANCH  26  27
HETATM   27  O   UNL     1     -40.644 -53.434  11.335  1.00  0.00    -0.393 OA
HETATM   28  H   UNL     1     -40.379 -53.941  12.128  1.00  0.00     0.209 HD
ENDBRANCH  26  27
ENDBRANCH  17  26
ENDBRANCH  15  16
ENDBRANCH   1  15
TORSDOF 8
ENDMDL
