MODEL 1
REMARK VINA RESULT:      -6.6      0.000      0.000
REMARK  3 active torsions:
REMARK  status: ('A' for Active; 'I' for Inactive)
REMARK    1  A    between atoms: C_3  and  C_8 
REMARK    2  A    between atoms: C_6  and  C_11 
REMARK    3  A    between atoms: C_13  and  O_14 
ROOT
HETATM    1  N   UNL     1     -42.409 -49.524  11.720  1.00  0.00    -0.328 N 
ATOM      2  HN  UNL     1     -43.230 -49.580  12.324  1.00  0.00     0.169 HD
HETATM    3  C   UNL     1     -42.054 -48.527  10.884  1.00  0.00     0.131 A 
HETATM    4  N   UNL     1     -40.901 -48.805  10.244  1.00  0.00    -0.285 N 
ATOM      5  HN  UNL     1     -40.424 -48.215   9.561  1.00  0.00     0.188 HD
HETATM    6  C   UNL     1     -41.423 -50.427  11.567  1.00  0.00     0.131 A 
HETATM    7  N   UNL     1     -40.513 -49.991  10.673  1.00  0.00    -0.283 N 
HETATM    8  H   UNL     1     -39.643 -50.474  10.352  1.00  0.00     0.188 HD
ENDROOT
BRANCH   3   9
HETATM    9  C   UNL     1     -42.825 -47.235  10.705  1.00  0.00     0.291 C 
HETATM   10  N   UNL     1     -42.252 -46.424   9.608  1.00  0.00     0.098 N 
HETATM   11  C   UNL     1     -43.190 -46.524   8.481  1.00  0.00     0.302 C 
HETATM   12  H   UNL     1     -41.294 -46.740   9.334  1.00  0.00     0.317 HD
HETATM   13  C   UNL     1     -44.138 -47.667   8.822  1.00  0.00     0.148 C 
HETATM   14  C   UNL     1     -44.287 -47.470  10.315  1.00  0.00     0.077 C 
BRANCH  13  15
HETATM   15  O   UNL     1     -45.348 -47.631   8.110  1.00  0.00    -0.394 OA
HETATM   16  H   UNL     1     -45.588 -46.678   7.966  1.00  0.00     0.210 HD
ENDBRANCH  13  15
ENDBRANCH   3   9
BRANCH   6  17
HETATM   17  C   UNL     1     -41.374 -51.707  12.311  1.00  0.00     0.009 A 
HETATM   18  C   UNL     1     -40.180 -52.091  12.948  1.00  0.00     0.015 A 
HETATM   19  C   UNL     1     -40.100 -53.299  13.644  1.00  0.00     0.001 A 
HETATM   20  C   UNL     1     -41.212 -54.139  13.713  1.00  0.00     0.000 A 
HETATM   21  C   UNL     1     -42.406 -53.771  13.088  1.00  0.00     0.001 A 
HETATM   22  C   UNL     1     -42.491 -52.562  12.391  1.00  0.00     0.015 A 
ENDBRANCH   6  17
TORSDOF 3
ENDMDL
MODEL 2
REMARK VINA RESULT:      -6.5      1.699      2.717
REMARK  3 active torsions:
REMARK  status: ('A' for Active; 'I' for Inactive)
REMARK    1  A    between atoms: C_3  and  C_8 
REMARK    2  A    between atoms: C_6  and  C_11 
REMARK    3  A    between atoms: C_13  and  O_14 
ROOT
HETATM    1  N   UNL     1     -42.469 -50.776  12.590  1.00  0.00    -0.328 N 
ATOM      2  HN  UNL     1     -43.145 -50.358  13.230  1.00  0.00     0.169 HD
HETATM    3  C   UNL     1     -41.580 -50.153  11.790  1.00  0.00     0.131 A 
HETATM    4  N   UNL     1     -40.851 -51.035  11.079  1.00  0.00    -0.285 N 
ATOM      5  HN  UNL     1     -40.117 -50.817  10.404  1.00  0.00     0.188 HD
HETATM    6  C   UNL     1     -42.254 -52.082  12.341  1.00  0.00     0.131 A 
HETATM    7  N   UNL     1     -41.276 -52.236  11.426  1.00  0.00    -0.283 N 
HETATM    8  H   UNL     1     -40.892 -53.127  11.037  1.00  0.00     0.188 HD
ENDROOT
BRANCH   3   9
HETATM    9  C   UNL     1     -41.390 -48.651  11.717  1.00  0.00     0.291 C 
HETATM   10  N   UNL     1     -41.047 -48.227  10.342  1.00  0.00     0.098 N 
HETATM   11  C   UNL     1     -42.244 -47.571   9.797  1.00  0.00     0.302 C 
HETATM   12  H   UNL     1     -40.745 -49.026   9.739  1.00  0.00     0.317 HD
HETATM   13  C   UNL     1     -43.384 -47.918  10.747  1.00  0.00     0.148 C 
HETATM   14  C   UNL     1     -42.661 -47.877  12.076  1.00  0.00     0.077 C 
BRANCH  13  15
HETATM   15  O   UNL     1     -44.480 -47.045  10.658  1.00  0.00    -0.394 OA
HETATM   16  H   UNL     1     -44.317 -46.427   9.898  1.00  0.00     0.210 HD
ENDBRANCH  13  15
ENDBRANCH   3   9
BRANCH   6  17
HETATM   17  C   UNL     1     -43.001 -53.169  13.013  1.00  0.00     0.009 A 
HETATM   18  C   UNL     1     -44.308 -53.473  12.591  1.00  0.00     0.015 A 
HETATM   19  C   UNL     1     -45.042 -54.483  13.216  1.00  0.00     0.001 A 
HETATM   20  C   UNL     1     -44.480 -55.203  14.270  1.00  0.00     0.000 A 
HETATM   21  C   UNL     1     -43.182 -54.916  14.700  1.00  0.00     0.001 A 
HETATM   22  C   UNL     1     -42.443 -53.906  14.076  1.00  0.00     0.015 A 
ENDBRANCH   6  17
TORSDOF 3
ENDMDL
MODEL 3
REMARK VINA RESULT:      -6.1      2.261      2.781
REMARK  3 active torsions:
REMARK  status: ('A' for Active; 'I' for Inactive)
REMARK    1  A    between atoms: C_3  and  C_8 
REMARK    2  A    between atoms: C_6  and  C_11 
REMARK    3  A    between atoms: C_13  and  O_14 
ROOT
HETATM    1  N   UNL     1     -39.944 -49.452  12.584  1.00  0.00    -0.328 N 
ATOM      2  HN  UNL     1     -39.606 -49.253  13.526  1.00  0.00     0.169 HD
HETATM    3  C   UNL     1     -40.188 -48.582  11.583  1.00  0.00     0.131 A 
HETATM    4  N   UNL     1     -40.629 -49.211  10.476  1.00  0.00    -0.285 N 
ATOM      5  HN  UNL     1     -40.883 -48.778   9.588  1.00  0.00     0.188 HD
HETATM    6  C   UNL     1     -40.252 -50.646  12.043  1.00  0.00     0.131 A 
HETATM    7  N   UNL     1     -40.668 -50.498  10.769  1.00  0.00    -0.283 N 
HETATM    8  H   UNL     1     -40.972 -51.241  10.100  1.00  0.00     0.188 HD
ENDROOT
BRANCH   3   9
HETATM    9  C   UNL     1     -39.963 -47.085  11.667  1.00  0.00     0.291 C 
HETATM   10  N   UNL     1     -40.300 -46.427  10.386  1.00  0.00     0.098 N 
HETATM   11  C   UNL     1     -41.568 -45.717  10.602  1.00  0.00     0.302 C 
HETATM   12  H   UNL     1     -40.376 -47.105   9.594  1.00  0.00     0.317 HD
HETATM   13  C   UNL     1     -42.128 -46.246  11.917  1.00  0.00     0.148 C 
HETATM   14  C   UNL     1     -40.854 -46.413  12.716  1.00  0.00     0.077 C 
BRANCH  13  15
HETATM   15  O   UNL     1     -43.076 -45.397  12.511  1.00  0.00    -0.394 OA
HETATM   16  H   UNL     1     -42.752 -44.463  12.414  1.00  0.00     0.210 HD
ENDBRANCH  13  15
ENDBRANCH   3   9
BRANCH   6  17
HETATM   17  C   UNL     1     -40.125 -51.926  12.778  1.00  0.00     0.009 A 
HETATM   18  C   UNL     1     -40.957 -53.006  12.432  1.00  0.00     0.015 A 
HETATM   19  C   UNL     1     -40.869 -54.220  13.117  1.00  0.00     0.001 A 
HETATM   20  C   UNL     1     -39.949 -54.371  14.155  1.00  0.00     0.000 A 
HETATM   21  C   UNL     1     -39.114 -53.308  14.509  1.00  0.00     0.001 A 
HETATM   22  C   UNL     1     -39.197 -52.091  13.825  1.00  0.00     0.015 A 
ENDBRANCH   6  17
TORSDOF 3
ENDMDL
MODEL 4
REMARK VINA RESULT:      -6.0      3.922      5.057
REMARK  3 active torsions:
REMARK  status: ('A' for Active; 'I' for Inactive)
REMARK    1  A    between atoms: C_3  and  C_8 
REMARK    2  A    between atoms: C_6  and  C_11 
REMARK    3  A    between atoms: C_13  and  O_14 
ROOT
HETATM    1  N   UNL     1     -41.900 -51.709  13.383  1.00  0.00    -0.328 N 
ATOM      2  HN  UNL     1     -41.906 -51.313  14.323  1.00  0.00     0.169 HD
HETATM    3  C   UNL     1     -40.876 -51.766  12.507  1.00  0.00     0.131 A 
HETATM    4  N   UNL     1     -41.242 -52.364  11.356  1.00  0.00    -0.285 N 
ATOM      5  HN  UNL     1     -40.653 -52.528  10.539  1.00  0.00     0.188 HD
HETATM    6  C   UNL     1     -42.912 -52.301  12.721  1.00  0.00     0.131 A 
HETATM    7  N   UNL     1     -42.512 -52.695  11.495  1.00  0.00    -0.283 N 
HETATM    8  H   UNL     1     -43.074 -53.180  10.759  1.00  0.00     0.188 HD
ENDROOT
BRANCH   3   9
HETATM    9  C   UNL     1     -39.475 -51.258  12.783  1.00  0.00     0.291 C 
HETATM   10  N   UNL     1     -38.875 -50.672  11.564  1.00  0.00     0.098 N 
HETATM   11  C   UNL     1     -38.873 -49.215  11.759  1.00  0.00     0.302 C 
HETATM   12  H   UNL     1     -39.391 -50.938  10.695  1.00  0.00     0.317 HD
HETATM   13  C   UNL     1     -39.781 -48.949  12.953  1.00  0.00     0.148 C 
HETATM   14  C   UNL     1     -39.448 -50.138  13.827  1.00  0.00     0.077 C 
BRANCH  13  15
HETATM   15  O   UNL     1     -39.562 -47.703  13.563  1.00  0.00    -0.394 OA
HETATM   16  H   UNL     1     -38.911 -47.201  13.006  1.00  0.00     0.210 HD
ENDBRANCH  13  15
ENDBRANCH   3   9
BRANCH   6  17
HETATM   17  C   UNL     1     -44.261 -52.487  13.302  1.00  0.00     0.009 A 
HETATM   18  C   UNL     1     -45.104 -51.372  13.461  1.00  0.00     0.015 A 
HETATM   19  C   UNL     1     -46.376 -51.515  14.020  1.00  0.00     0.001 A 
HETATM   20  C   UNL     1     -46.823 -52.773  14.426  1.00  0.00     0.000 A 
HETATM   21  C   UNL     1     -45.998 -53.891  14.273  1.00  0.00     0.001 A 
HETATM   22  C   UNL     1     -44.725 -53.753  13.712  1.00  0.00     0.015 A 
ENDBRANCH   6  17
TORSDOF 3
ENDMDL
MODEL 5
REMARK VINA RESULT:      -6.0      1.860      2.246
REMARK  3 active torsions:
REMARK  status: ('A' for Active; 'I' for Inactive)
REMARK    1  A    between atoms: C_3  and  C_8 
REMARK    2  A    between atoms: C_6  and  C_11 
REMARK    3  A    between atoms: C_13  and  O_14 
ROOT
HETATM    1  N   UNL     1     -42.110 -49.472  11.861  1.00  0.00    -0.328 N 
ATOM      2  HN  UNL     1     -42.726 -49.544  12.672  1.00  0.00     0.169 HD
HETATM    3  C   UNL     1     -42.113 -48.536  10.891  1.00  0.00     0.131 A 
HETATM    4  N   UNL     1     -41.150 -48.765   9.978  1.00  0.00    -0.285 N 
ATOM      5  HN  UNL     1     -40.947 -48.205   9.149  1.00  0.00     0.188 HD
HETATM    6  C   UNL     1     -41.099 -50.287  11.506  1.00  0.00     0.131 A 
HETATM    7  N   UNL     1     -40.521 -49.859  10.366  1.00  0.00    -0.283 N 
HETATM    8  H   UNL     1     -39.718 -50.286   9.852  1.00  0.00     0.188 HD
ENDROOT
BRANCH   3   9
HETATM    9  C   UNL     1     -43.055 -47.348  10.841  1.00  0.00     0.291 C 
HETATM   10  N   UNL     1     -43.194 -46.726  12.176  1.00  0.00     0.098 N 
HETATM   11  C   UNL     1     -42.444 -45.463  12.129  1.00  0.00     0.302 C 
HETATM   12  H   UNL     1     -42.847 -47.344  12.945  1.00  0.00     0.317 HD
HETATM   13  C   UNL     1     -41.595 -45.524  10.865  1.00  0.00     0.148 C 
HETATM   14  C   UNL     1     -42.547 -46.231   9.924  1.00  0.00     0.077 C 
BRANCH  13  15
HETATM   15  O   UNL     1     -41.162 -44.267  10.413  1.00  0.00    -0.394 OA
HETATM   16  H   UNL     1     -40.752 -43.791  11.182  1.00  0.00     0.210 HD
ENDBRANCH  13  15
ENDBRANCH   3   9
BRANCH   6  17
HETATM   17  C   UNL     1     -40.700 -51.474  12.297  1.00  0.00     0.009 A 
HETATM   18  C   UNL     1     -39.641 -51.367  13.217  1.00  0.00     0.015 A 
HETATM   19  C   UNL     1     -39.233 -52.474  13.965  1.00  0.00     0.001 A 
HETATM   20  C   UNL     1     -39.879 -53.700  13.805  1.00  0.00     0.000 A 
HETATM   21  C   UNL     1     -40.934 -53.823  12.897  1.00  0.00     0.001 A 
HETATM   22  C   UNL     1     -41.346 -52.717  12.147  1.00  0.00     0.015 A 
ENDBRANCH   6  17
TORSDOF 3
ENDMDL
MODEL 6
REMARK VINA RESULT:      -6.0      4.197      5.389
REMARK  3 active torsions:
REMARK  status: ('A' for Active; 'I' for Inactive)
REMARK    1  A    between atoms: C_3  and  C_8 
REMARK    2  A    between atoms: C_6  and  C_11 
REMARK    3  A    between atoms: C_13  and  O_14 
ROOT
HETATM    1  N   UNL     1     -42.225 -50.726  13.005  1.00  0.00    -0.328 N 
ATOM      2  HN  UNL     1     -42.483 -50.049  13.723  1.00  0.00     0.169 HD
HETATM    3  C   UNL     1     -41.115 -50.751  12.240  1.00  0.00     0.131 A 
HETATM    4  N   UNL     1     -41.119 -51.799  11.395  1.00  0.00    -0.285 N 
ATOM      5  HN  UNL     1     -40.396 -52.039  10.715  1.00  0.00     0.188 HD
HETATM    6  C   UNL     1     -42.913 -51.808  12.593  1.00  0.00     0.131 A 
HETATM    7  N   UNL     1     -42.243 -52.455  11.619  1.00  0.00    -0.283 N 
HETATM    8  H   UNL     1     -42.526 -53.322  11.109  1.00  0.00     0.188 HD
ENDROOT
BRANCH   3   9
HETATM    9  C   UNL     1     -39.979 -49.750  12.335  1.00  0.00     0.291 C 
HETATM   10  N   UNL     1     -39.593 -49.521  13.745  1.00  0.00     0.098 N 
HETATM   11  C   UNL     1     -38.306 -50.204  13.941  1.00  0.00     0.302 C 
HETATM   12  H   UNL     1     -40.313 -49.866  14.420  1.00  0.00     0.317 HD
HETATM   13  C   UNL     1     -38.120 -51.108  12.729  1.00  0.00     0.148 C 
HETATM   14  C   UNL     1     -38.705 -50.237  11.639  1.00  0.00     0.077 C 
BRANCH  13  15
HETATM   15  O   UNL     1     -36.787 -51.492  12.510  1.00  0.00    -0.394 OA
HETATM   16  H   UNL     1     -36.518 -52.096  13.251  1.00  0.00     0.210 HD
ENDBRANCH  13  15
ENDBRANCH   3   9
BRANCH   6  17
HETATM   17  C   UNL     1     -44.217 -52.206  13.170  1.00  0.00     0.009 A 
HETATM   18  C   UNL     1     -45.148 -51.212  13.524  1.00  0.00     0.015 A 
HETATM   19  C   UNL     1     -46.380 -51.557  14.084  1.00  0.00     0.001 A 
HETATM   20  C   UNL     1     -46.699 -52.899  14.295  1.00  0.00     0.000 A 
HETATM   21  C   UNL     1     -45.787 -53.898  13.946  1.00  0.00     0.001 A 
HETATM   22  C   UNL     1     -44.553 -53.557  13.385  1.00  0.00     0.015 A 
ENDBRANCH   6  17
TORSDOF 3
ENDMDL
MODEL 7
REMARK VINA RESULT:      -5.9      2.789      5.860
REMARK  3 active torsions:
REMARK  status: ('A' for Active; 'I' for Inactive)
REMARK    1  A    between atoms: C_3  and  C_8 
REMARK    2  A    between atoms: C_6  and  C_11 
REMARK    3  A    between atoms: C_13  and  O_14 
ROOT
HETATM    1  N   UNL     1     -42.151 -50.874  12.759  1.00  0.00    -0.328 N 
ATOM      2  HN  UNL     1     -42.651 -50.356  13.481  1.00  0.00     0.169 HD
HETATM    3  C   UNL     1     -42.146 -52.204  12.536  1.00  0.00     0.131 A 
HETATM    4  N   UNL     1     -41.363 -52.528  11.488  1.00  0.00    -0.285 N 
ATOM      5  HN  UNL     1     -41.191 -53.464  11.120  1.00  0.00     0.188 HD
HETATM    6  C   UNL     1     -41.337 -50.393  11.800  1.00  0.00     0.131 A 
HETATM    7  N   UNL     1     -40.861 -51.395  11.033  1.00  0.00    -0.283 N 
HETATM    8  H   UNL     1     -40.212 -51.328  10.217  1.00  0.00     0.188 HD
ENDROOT
BRANCH   3   9
HETATM    9  C   UNL     1     -42.945 -53.216  13.334  1.00  0.00     0.291 C 
HETATM   10  N   UNL     1     -43.591 -52.578  14.502  1.00  0.00     0.098 N 
HETATM   11  C   UNL     1     -45.023 -52.483  14.187  1.00  0.00     0.302 C 
HETATM   12  H   UNL     1     -43.187 -51.639  14.720  1.00  0.00     0.317 HD
HETATM   13  C   UNL     1     -45.145 -52.764  12.695  1.00  0.00     0.148 C 
HETATM   14  C   UNL     1     -44.089 -53.834  12.525  1.00  0.00     0.077 C 
BRANCH  13  15
HETATM   15  O   UNL     1     -46.434 -53.155  12.297  1.00  0.00    -0.394 OA
HETATM   16  H   UNL     1     -47.042 -53.037  13.073  1.00  0.00     0.210 HD
ENDBRANCH  13  15
ENDBRANCH   3   9
BRANCH   6  17
HETATM   17  C   UNL     1     -41.044 -48.951  11.635  1.00  0.00     0.009 A 
HETATM   18  C   UNL     1     -41.806 -48.191  10.728  1.00  0.00     0.015 A 
HETATM   19  C   UNL     1     -41.542 -46.832  10.540  1.00  0.00     0.001 A 
HETATM   20  C   UNL     1     -40.516 -46.215  11.257  1.00  0.00     0.000 A 
HETATM   21  C   UNL     1     -39.753 -46.955  12.163  1.00  0.00     0.001 A 
HETATM   22  C   UNL     1     -40.014 -48.316  12.355  1.00  0.00     0.015 A 
ENDBRANCH   6  17
TORSDOF 3
ENDMDL
MODEL 8
REMARK VINA RESULT:      -5.8      4.136      6.379
REMARK  3 active torsions:
REMARK  status: ('A' for Active; 'I' for Inactive)
REMARK    1  A    between atoms: C_3  and  C_8 
REMARK    2  A    between atoms: C_6  and  C_11 
REMARK    3  A    between atoms: C_13  and  O_14 
ROOT
HETATM    1  N   UNL     1     -41.864 -53.209  13.747  1.00  0.00    -0.328 N 
ATOM      2  HN  UNL     1     -41.366 -53.292  14.635  1.00  0.00     0.169 HD
HETATM    3  C   UNL     1     -43.002 -53.824  13.368  1.00  0.00     0.131 A 
HETATM    4  N   UNL     1     -43.362 -53.471  12.118  1.00  0.00    -0.285 N 
ATOM      5  HN  UNL     1     -44.181 -53.797  11.603  1.00  0.00     0.188 HD
HETATM    6  C   UNL     1     -41.541 -52.459  12.677  1.00  0.00     0.131 A 
HETATM    7  N   UNL     1     -42.447 -52.619  11.693  1.00  0.00    -0.283 N 
HETATM    8  H   UNL     1     -42.461 -52.169  10.750  1.00  0.00     0.188 HD
ENDROOT
BRANCH   3   9
HETATM    9  C   UNL     1     -43.804 -54.769  14.240  1.00  0.00     0.291 C 
HETATM   10  N   UNL     1     -43.923 -54.246  15.618  1.00  0.00     0.098 N 
HETATM   11  C   UNL     1     -45.306 -53.775  15.769  1.00  0.00     0.302 C 
HETATM   12  H   UNL     1     -43.238 -53.481  15.817  1.00  0.00     0.317 HD
HETATM   13  C   UNL     1     -45.889 -53.724  14.362  1.00  0.00     0.148 C 
HETATM   14  C   UNL     1     -45.244 -54.947  13.748  1.00  0.00     0.077 C 
BRANCH  13  15
HETATM   15  O   UNL     1     -47.293 -53.733  14.330  1.00  0.00    -0.394 OA
HETATM   16  H   UNL     1     -47.598 -52.830  14.051  1.00  0.00     0.210 HD
ENDBRANCH  13  15
ENDBRANCH   3   9
BRANCH   6  17
HETATM   17  C   UNL     1     -40.350 -51.579  12.634  1.00  0.00     0.009 A 
HETATM   18  C   UNL     1     -40.329 -50.489  11.744  1.00  0.00     0.015 A 
HETATM   19  C   UNL     1     -39.214 -49.651  11.670  1.00  0.00     0.001 A 
HETATM   20  C   UNL     1     -38.107 -49.890  12.486  1.00  0.00     0.000 A 
HETATM   21  C   UNL     1     -38.114 -50.966  13.377  1.00  0.00     0.001 A 
HETATM   22  C   UNL     1     -39.228 -51.807  13.454  1.00  0.00     0.015 A 
ENDBRANCH   6  17
TORSDOF 3
ENDMDL
MODEL 9
REMARK VINA RESULT:      -5.8      4.904      5.891
REMARK  3 active torsions:
REMARK  status: ('A' for Active; 'I' for Inactive)
REMARK    1  A    between atoms: C_3  and  C_8 
REMARK    2  A    between atoms: C_6  and  C_11 
REMARK    3  A    between atoms: C_13  and  O_14 
ROOT
HETATM    1  N   UNL     1     -43.704 -53.696  13.939  1.00  0.00    -0.328 N 
ATOM      2  HN  UNL     1     -44.068 -53.995  14.844  1.00  0.00     0.169 HD
HETATM    3  C   UNL     1     -44.373 -53.131  12.914  1.00  0.00     0.131 A 
HETATM    4  N   UNL     1     -43.558 -52.873  11.873  1.00  0.00    -0.285 N 
ATOM      5  HN  UNL     1     -43.820 -52.450  10.981  1.00  0.00     0.188 HD
HETATM    6  C   UNL     1     -42.439 -53.774  13.482  1.00  0.00     0.131 A 
HETATM    7  N   UNL     1     -42.354 -53.277  12.232  1.00  0.00    -0.283 N 
HETATM    8  H   UNL     1     -41.507 -53.204  11.625  1.00  0.00     0.188 HD
ENDROOT
BRANCH   3   9
HETATM    9  C   UNL     1     -45.850 -52.788  12.932  1.00  0.00     0.291 C 
HETATM   10  N   UNL     1     -46.617 -53.794  13.699  1.00  0.00     0.098 N 
HETATM   11  C   UNL     1     -46.993 -53.154  14.968  1.00  0.00     0.302 C 
HETATM   12  H   UNL     1     -46.074 -54.672  13.864  1.00  0.00     0.317 HD
HETATM   13  C   UNL     1     -46.151 -51.887  15.066  1.00  0.00     0.148 C 
HETATM   14  C   UNL     1     -46.137 -51.449  13.617  1.00  0.00     0.077 C 
BRANCH  13  15
HETATM   15  O   UNL     1     -46.669 -50.931  15.954  1.00  0.00    -0.394 OA
HETATM   16  H   UNL     1     -47.621 -50.779  15.717  1.00  0.00     0.210 HD
ENDBRANCH  13  15
ENDBRANCH   3   9
BRANCH   6  17
HETATM   17  C   UNL     1     -41.321 -54.324  14.283  1.00  0.00     0.009 A 
HETATM   18  C   UNL     1     -41.591 -54.915  15.531  1.00  0.00     0.015 A 
HETATM   19  C   UNL     1     -40.555 -55.429  16.314  1.00  0.00     0.001 A 
HETATM   20  C   UNL     1     -39.237 -55.360  15.861  1.00  0.00     0.000 A 
HETATM   21  C   UNL     1     -38.953 -54.778  14.622  1.00  0.00     0.001 A 
HETATM   22  C   UNL     1     -39.987 -54.264  13.834  1.00  0.00     0.015 A 
ENDBRANCH   6  17
TORSDOF 3
ENDMDL
