MODEL 1
REMARK VINA RESULT:      -5.4      0.000      0.000
REMARK  6 active torsions:
REMARK  status: ('A' for Active; 'I' for Inactive)
REMARK    1  A    between atoms: O_2  and  C_3 
REMARK    2  A    between atoms: C_3  and  C_4 
REMARK    3  A    between atoms: C_4  and  N_5 
REMARK    4  A    between atoms: C_6  and  S_7 
REMARK    5  A    between atoms: S_7  and  C_8 
REMARK    6  A    between atoms: C_8  and  C_10 
REMARK       I    between atoms: C_10  and  N_12 
ROOT
HETATM    1  N   UNL     1     -41.246 -53.191  13.831  1.00  0.00    -0.324 N 
HETATM    2  C   UNL     1     -41.185 -52.177  12.894  1.00  0.00     0.148 A 
HETATM    3  N   UNL     1     -42.339 -52.017  12.287  1.00  0.00    -0.335 N 
ATOM      4  HN  UNL     1     -42.557 -51.346  11.550  1.00  0.00     0.168 HD
HETATM    5  C   UNL     1     -43.188 -52.933  12.845  1.00  0.00     0.061 A 
HETATM    6  C   UNL     1     -44.551 -53.147  12.595  1.00  0.00     0.032 A 
HETATM    7  C   UNL     1     -45.209 -54.182  13.268  1.00  0.00     0.002 A 
HETATM    8  C   UNL     1     -44.520 -54.992  14.170  1.00  0.00     0.002 A 
HETATM    9  C   UNL     1     -43.165 -54.777  14.451  1.00  0.00     0.032 A 
HETATM   10  C   UNL     1     -42.525 -53.723  13.780  1.00  0.00     0.063 A 
ENDROOT
BRANCH   2  11
HETATM   11  S   UNL     1     -39.791 -51.184  12.574  1.00  0.00    -0.080 SA
BRANCH  11  12
HETATM   12  C   UNL     1     -40.509 -49.475  12.620  1.00  0.00     0.143 C 
HETATM   13  C   UNL     1     -39.626 -48.489  13.384  1.00  0.00     0.031 C 
BRANCH  12  14
HETATM   14  C   UNL     1     -40.703 -48.929  11.191  1.00  0.00     0.229 C 
HETATM   15  O   UNL     1     -41.107 -47.795  10.935  1.00  0.00    -0.272 OA
HETATM   16  N   UNL     1     -40.503 -49.797  10.156  1.00  0.00    -0.369 N 
HETATM   17  H   UNL     1     -40.017 -50.673  10.282  1.00  0.00     0.159 HD
HETATM   18  H   UNL     1     -40.586 -49.417   9.221  1.00  0.00     0.159 HD
ENDBRANCH  12  14
ENDBRANCH  11  12
ENDBRANCH   2  11
BRANCH   1  19
HETATM   19  C   UNL     1     -40.217 -53.644  14.745  1.00  0.00     0.157 C 
BRANCH  19  20
HETATM   20  C   UNL     1     -39.236 -54.632  14.125  1.00  0.00     0.187 C 
BRANCH  20  21
HETATM   21  O   UNL     1     -38.858 -55.613  15.100  1.00  0.00    -0.394 OA
HETATM   22  C   UNL     1     -39.723 -55.575  16.232  1.00  0.00     0.201 C 
ENDBRANCH  20  21
ENDBRANCH  19  20
ENDBRANCH   1  19
TORSDOF 6
ENDMDL
MODEL 2
REMARK VINA RESULT:      -5.3      2.259      2.525
REMARK  6 active torsions:
REMARK  status: ('A' for Active; 'I' for Inactive)
REMARK    1  A    between atoms: O_2  and  C_3 
REMARK    2  A    between atoms: C_3  and  C_4 
REMARK    3  A    between atoms: C_4  and  N_5 
REMARK    4  A    between atoms: C_6  and  S_7 
REMARK    5  A    between atoms: S_7  and  C_8 
REMARK    6  A    between atoms: C_8  and  C_10 
REMARK       I    between atoms: C_10  and  N_12 
ROOT
HETATM    1  N   UNL     1     -42.970 -52.800  14.407  1.00  0.00    -0.324 N 
HETATM    2  C   UNL     1     -42.597 -52.423  13.131  1.00  0.00     0.148 A 
HETATM    3  N   UNL     1     -43.594 -51.861  12.487  1.00  0.00    -0.335 N 
ATOM      4  HN  UNL     1     -43.585 -51.504  11.531  1.00  0.00     0.168 HD
HETATM    5  C   UNL     1     -44.647 -51.850  13.360  1.00  0.00     0.061 A 
HETATM    6  C   UNL     1     -45.933 -51.315  13.194  1.00  0.00     0.032 A 
HETATM    7  C   UNL     1     -46.866 -51.460  14.225  1.00  0.00     0.002 A 
HETATM    8  C   UNL     1     -46.526 -52.130  15.400  1.00  0.00     0.002 A 
HETATM    9  C   UNL     1     -45.239 -52.648  15.595  1.00  0.00     0.032 A 
HETATM   10  C   UNL     1     -44.310 -52.477  14.556  1.00  0.00     0.063 A 
ENDROOT
BRANCH   2  11
HETATM   11  S   UNL     1     -41.003 -52.604  12.453  1.00  0.00    -0.080 SA
BRANCH  11  12
HETATM   12  C   UNL     1     -40.305 -50.896  12.632  1.00  0.00     0.143 C 
HETATM   13  C   UNL     1     -38.782 -50.869  12.502  1.00  0.00     0.031 C 
BRANCH  12  14
HETATM   14  C   UNL     1     -40.889 -49.955  11.560  1.00  0.00     0.229 C 
HETATM   15  O   UNL     1     -41.909 -49.284  11.712  1.00  0.00    -0.272 OA
HETATM   16  N   UNL     1     -40.283 -49.947  10.336  1.00  0.00    -0.369 N 
HETATM   17  H   UNL     1     -39.361 -50.335  10.196  1.00  0.00     0.159 HD
HETATM   18  H   UNL     1     -40.644 -49.292   9.654  1.00  0.00     0.159 HD
ENDBRANCH  12  14
ENDBRANCH  11  12
ENDBRANCH   2  11
BRANCH   1  19
HETATM   19  C   UNL     1     -42.161 -53.397  15.449  1.00  0.00     0.157 C 
BRANCH  19  20
HETATM   20  C   UNL     1     -42.117 -54.920  15.399  1.00  0.00     0.187 C 
BRANCH  20  21
HETATM   21  O   UNL     1     -43.124 -55.461  16.263  1.00  0.00    -0.394 OA
HETATM   22  C   UNL     1     -43.009 -54.933  17.582  1.00  0.00     0.201 C 
ENDBRANCH  20  21
ENDBRANCH  19  20
ENDBRANCH   1  19
TORSDOF 6
ENDMDL
MODEL 3
REMARK VINA RESULT:      -5.3      1.449      1.524
REMARK  6 active torsions:
REMARK  status: ('A' for Active; 'I' for Inactive)
REMARK    1  A    between atoms: O_2  and  C_3 
REMARK    2  A    between atoms: C_3  and  C_4 
REMARK    3  A    between atoms: C_4  and  N_5 
REMARK    4  A    between atoms: C_6  and  S_7 
REMARK    5  A    between atoms: S_7  and  C_8 
REMARK    6  A    between atoms: C_8  and  C_10 
REMARK       I    between atoms: C_10  and  N_12 
ROOT
HETATM    1  N   UNL     1     -41.458 -52.316  13.671  1.00  0.00    -0.324 N 
HETATM    2  C   UNL     1     -41.778 -51.587  12.542  1.00  0.00     0.148 A 
HETATM    3  N   UNL     1     -42.905 -52.001  12.010  1.00  0.00    -0.335 N 
ATOM      4  HN  UNL     1     -43.357 -51.640  11.169  1.00  0.00     0.168 HD
HETATM    5  C   UNL     1     -43.350 -53.015  12.812  1.00  0.00     0.061 A 
HETATM    6  C   UNL     1     -44.532 -53.764  12.724  1.00  0.00     0.032 A 
HETATM    7  C   UNL     1     -44.756 -54.790  13.648  1.00  0.00     0.002 A 
HETATM    8  C   UNL     1     -43.816 -55.068  14.640  1.00  0.00     0.002 A 
HETATM    9  C   UNL     1     -42.642 -54.314  14.760  1.00  0.00     0.032 A 
HETATM   10  C   UNL     1     -42.443 -53.277  13.836  1.00  0.00     0.063 A 
ENDROOT
BRANCH   2  11
HETATM   11  S   UNL     1     -40.858 -50.250  11.911  1.00  0.00    -0.080 SA
BRANCH  11  12
HETATM   12  C   UNL     1     -42.166 -48.962  11.652  1.00  0.00     0.143 C 
HETATM   13  C   UNL     1     -42.407 -48.112  12.900  1.00  0.00     0.031 C 
BRANCH  12  14
HETATM   14  C   UNL     1     -41.775 -48.014  10.501  1.00  0.00     0.229 C 
HETATM   15  O   UNL     1     -40.968 -47.091  10.612  1.00  0.00    -0.272 OA
HETATM   16  N   UNL     1     -42.442 -48.156   9.318  1.00  0.00    -0.369 N 
HETATM   17  H   UNL     1     -42.983 -48.982   9.108  1.00  0.00     0.159 HD
HETATM   18  H   UNL     1     -42.145 -47.561   8.554  1.00  0.00     0.159 HD
ENDBRANCH  12  14
ENDBRANCH  11  12
ENDBRANCH   2  11
BRANCH   1  19
HETATM   19  C   UNL     1     -40.337 -52.144  14.573  1.00  0.00     0.157 C 
BRANCH  19  20
HETATM   20  C   UNL     1     -38.998 -52.562  13.978  1.00  0.00     0.187 C 
BRANCH  20  21
HETATM   21  O   UNL     1     -39.026 -53.959  13.658  1.00  0.00    -0.394 OA
HETATM   22  C   UNL     1     -38.965 -54.758  14.836  1.00  0.00     0.201 C 
ENDBRANCH  20  21
ENDBRANCH  19  20
ENDBRANCH   1  19
TORSDOF 6
ENDMDL
MODEL 4
REMARK VINA RESULT:      -5.3      4.356      7.979
REMARK  6 active torsions:
REMARK  status: ('A' for Active; 'I' for Inactive)
REMARK    1  A    between atoms: O_2  and  C_3 
REMARK    2  A    between atoms: C_3  and  C_4 
REMARK    3  A    between atoms: C_4  and  N_5 
REMARK    4  A    between atoms: C_6  and  S_7 
REMARK    5  A    between atoms: S_7  and  C_8 
REMARK    6  A    between atoms: C_8  and  C_10 
REMARK       I    between atoms: C_10  and  N_12 
ROOT
HETATM    1  N   UNL     1     -41.042 -47.299  11.060  1.00  0.00    -0.324 N 
HETATM    2  C   UNL     1     -40.214 -48.116  11.806  1.00  0.00     0.148 A 
HETATM    3  N   UNL     1     -39.419 -47.412  12.580  1.00  0.00    -0.335 N 
ATOM      4  HN  UNL     1     -38.709 -47.769  13.219  1.00  0.00     0.168 HD
HETATM    5  C   UNL     1     -39.737 -46.101  12.353  1.00  0.00     0.061 A 
HETATM    6  C   UNL     1     -39.225 -44.945  12.960  1.00  0.00     0.032 A 
HETATM    7  C   UNL     1     -39.682 -43.695  12.532  1.00  0.00     0.002 A 
HETATM    8  C   UNL     1     -40.629 -43.597  11.513  1.00  0.00     0.002 A 
HETATM    9  C   UNL     1     -41.172 -44.741  10.913  1.00  0.00     0.032 A 
HETATM   10  C   UNL     1     -40.715 -45.987  11.368  1.00  0.00     0.063 A 
ENDROOT
BRANCH   2  11
HETATM   11  S   UNL     1     -40.235 -49.856  11.790  1.00  0.00    -0.080 SA
BRANCH  11  12
HETATM   12  C   UNL     1     -38.724 -50.276  12.778  1.00  0.00     0.143 C 
HETATM   13  C   UNL     1     -38.981 -51.383  13.801  1.00  0.00     0.031 C 
BRANCH  12  14
HETATM   14  C   UNL     1     -37.582 -50.742  11.852  1.00  0.00     0.229 C 
HETATM   15  O   UNL     1     -36.785 -51.635  12.137  1.00  0.00    -0.272 OA
HETATM   16  N   UNL     1     -37.395 -50.051  10.690  1.00  0.00    -0.369 N 
HETATM   17  H   UNL     1     -38.101 -49.430  10.321  1.00  0.00     0.159 HD
HETATM   18  H   UNL     1     -36.675 -50.393  10.067  1.00  0.00     0.159 HD
ENDBRANCH  12  14
ENDBRANCH  11  12
ENDBRANCH   2  11
BRANCH   1  19
HETATM   19  C   UNL     1     -42.091 -47.674  10.134  1.00  0.00     0.157 C 
BRANCH  19  20
HETATM   20  C   UNL     1     -43.482 -47.696  10.756  1.00  0.00     0.187 C 
BRANCH  20  21
HETATM   21  O   UNL     1     -44.444 -47.221   9.805  1.00  0.00    -0.394 OA
HETATM   22  C   UNL     1     -44.040 -47.520   8.471  1.00  0.00     0.201 C 
ENDBRANCH  20  21
ENDBRANCH  19  20
ENDBRANCH   1  19
TORSDOF 6
ENDMDL
MODEL 5
REMARK VINA RESULT:      -5.3      5.604      7.220
REMARK  6 active torsions:
REMARK  status: ('A' for Active; 'I' for Inactive)
REMARK    1  A    between atoms: O_2  and  C_3 
REMARK    2  A    between atoms: C_3  and  C_4 
REMARK    3  A    between atoms: C_4  and  N_5 
REMARK    4  A    between atoms: C_6  and  S_7 
REMARK    5  A    between atoms: S_7  and  C_8 
REMARK    6  A    between atoms: C_8  and  C_10 
REMARK       I    between atoms: C_10  and  N_12 
ROOT
HETATM    1  N   UNL     1     -39.640 -47.259  12.859  1.00  0.00    -0.324 N 
HETATM    2  C   UNL     1     -40.111 -47.435  11.571  1.00  0.00     0.148 A 
HETATM    3  N   UNL     1     -39.669 -48.558  11.051  1.00  0.00    -0.335 N 
ATOM      4  HN  UNL     1     -39.859 -48.918  10.116  1.00  0.00     0.168 HD
HETATM    5  C   UNL     1     -38.903 -49.146  12.019  1.00  0.00     0.061 A 
HETATM    6  C   UNL     1     -38.243 -50.383  11.999  1.00  0.00     0.032 A 
HETATM    7  C   UNL     1     -37.477 -50.761  13.107  1.00  0.00     0.002 A 
HETATM    8  C   UNL     1     -37.367 -49.918  14.213  1.00  0.00     0.002 A 
HETATM    9  C   UNL     1     -38.040 -48.691  14.262  1.00  0.00     0.032 A 
HETATM   10  C   UNL     1     -38.818 -48.337  13.149  1.00  0.00     0.063 A 
ENDROOT
BRANCH   2  11
HETATM   11  S   UNL     1     -41.195 -46.358  10.739  1.00  0.00    -0.080 SA
BRANCH  11  12
HETATM   12  C   UNL     1     -42.473 -47.524  10.073  1.00  0.00     0.143 C 
HETATM   13  C   UNL     1     -43.690 -47.647  10.989  1.00  0.00     0.031 C 
BRANCH  12  14
HETATM   14  C   UNL     1     -42.967 -47.057   8.689  1.00  0.00     0.229 C 
HETATM   15  O   UNL     1     -43.313 -45.904   8.433  1.00  0.00    -0.272 OA
HETATM   16  N   UNL     1     -43.115 -48.010   7.722  1.00  0.00    -0.369 N 
HETATM   17  H   UNL     1     -42.698 -48.925   7.808  1.00  0.00     0.159 HD
HETATM   18  H   UNL     1     -43.394 -47.687   6.804  1.00  0.00     0.159 HD
ENDBRANCH  12  14
ENDBRANCH  11  12
ENDBRANCH   2  11
BRANCH   1  19
HETATM   19  C   UNL     1     -39.932 -46.190  13.792  1.00  0.00     0.157 C 
BRANCH  19  20
HETATM   20  C   UNL     1     -38.923 -45.049  13.757  1.00  0.00     0.187 C 
BRANCH  20  21
HETATM   21  O   UNL     1     -39.581 -43.814  14.069  1.00  0.00    -0.394 OA
HETATM   22  C   UNL     1     -39.744 -43.009  12.905  1.00  0.00     0.201 C 
ENDBRANCH  20  21
ENDBRANCH  19  20
ENDBRANCH   1  19
TORSDOF 6
ENDMDL
MODEL 6
REMARK VINA RESULT:      -5.2      1.899      2.347
REMARK  6 active torsions:
REMARK  status: ('A' for Active; 'I' for Inactive)
REMARK    1  A    between atoms: O_2  and  C_3 
REMARK    2  A    between atoms: C_3  and  C_4 
REMARK    3  A    between atoms: C_4  and  N_5 
REMARK    4  A    between atoms: C_6  and  S_7 
REMARK    5  A    between atoms: S_7  and  C_8 
REMARK    6  A    between atoms: C_8  and  C_10 
REMARK       I    between atoms: C_10  and  N_12 
ROOT
HETATM    1  N   UNL     1     -42.421 -51.905  13.050  1.00  0.00    -0.324 N 
HETATM    2  C   UNL     1     -42.080 -50.837  13.858  1.00  0.00     0.148 A 
HETATM    3  N   UNL     1     -43.131 -50.357  14.484  1.00  0.00    -0.335 N 
ATOM      4  HN  UNL     1     -43.154 -49.567  15.129  1.00  0.00     0.168 HD
HETATM    5  C   UNL     1     -44.188 -51.133  14.095  1.00  0.00     0.061 A 
HETATM    6  C   UNL     1     -45.527 -51.082  14.508  1.00  0.00     0.032 A 
HETATM    7  C   UNL     1     -46.448 -51.965  13.935  1.00  0.00     0.002 A 
HETATM    8  C   UNL     1     -46.042 -52.880  12.963  1.00  0.00     0.002 A 
HETATM    9  C   UNL     1     -44.705 -52.964  12.557  1.00  0.00     0.032 A 
HETATM   10  C   UNL     1     -43.791 -52.082  13.157  1.00  0.00     0.063 A 
ENDROOT
BRANCH   2  11
HETATM   11  S   UNL     1     -40.468 -50.219  14.085  1.00  0.00    -0.080 SA
BRANCH  11  12
HETATM   12  C   UNL     1     -40.307 -49.022  12.678  1.00  0.00     0.143 C 
HETATM   13  C   UNL     1     -39.487 -47.787  13.051  1.00  0.00     0.031 C 
BRANCH  12  14
HETATM   14  C   UNL     1     -39.628 -49.694  11.468  1.00  0.00     0.229 C 
HETATM   15  O   UNL     1     -38.429 -49.970  11.415  1.00  0.00    -0.272 OA
HETATM   16  N   UNL     1     -40.393 -49.905  10.357  1.00  0.00    -0.369 N 
HETATM   17  H   UNL     1     -41.401 -49.860  10.389  1.00  0.00     0.159 HD
HETATM   18  H   UNL     1     -39.951 -50.389   9.586  1.00  0.00     0.159 HD
ENDBRANCH  12  14
ENDBRANCH  11  12
ENDBRANCH   2  11
BRANCH   1  19
HETATM   19  C   UNL     1     -41.557 -52.742  12.242  1.00  0.00     0.157 C 
BRANCH  19  20
HETATM   20  C   UNL     1     -40.955 -53.919  12.999  1.00  0.00     0.187 C 
BRANCH  20  21
HETATM   21  O   UNL     1     -39.563 -53.676  13.241  1.00  0.00    -0.394 OA
HETATM   22  C   UNL     1     -39.233 -53.891  14.611  1.00  0.00     0.201 C 
ENDBRANCH  20  21
ENDBRANCH  19  20
ENDBRANCH   1  19
TORSDOF 6
ENDMDL
MODEL 7
REMARK VINA RESULT:      -5.2      2.859      5.645
REMARK  6 active torsions:
REMARK  status: ('A' for Active; 'I' for Inactive)
REMARK    1  A    between atoms: O_2  and  C_3 
REMARK    2  A    between atoms: C_3  and  C_4 
REMARK    3  A    between atoms: C_4  and  N_5 
REMARK    4  A    between atoms: C_6  and  S_7 
REMARK    5  A    between atoms: S_7  and  C_8 
REMARK    6  A    between atoms: C_8  and  C_10 
REMARK       I    between atoms: C_10  and  N_12 
ROOT
HETATM    1  N   UNL     1     -41.312 -53.526  13.140  1.00  0.00    -0.324 N 
HETATM    2  C   UNL     1     -42.641 -53.715  13.468  1.00  0.00     0.148 A 
HETATM    3  N   UNL     1     -42.765 -54.415  14.573  1.00  0.00    -0.335 N 
ATOM      4  HN  UNL     1     -43.634 -54.701  15.025  1.00  0.00     0.168 HD
HETATM    5  C   UNL     1     -41.492 -54.682  14.995  1.00  0.00     0.061 A 
HETATM    6  C   UNL     1     -41.061 -55.351  16.149  1.00  0.00     0.032 A 
HETATM    7  C   UNL     1     -39.690 -55.541  16.352  1.00  0.00     0.002 A 
HETATM    8  C   UNL     1     -38.765 -55.075  15.417  1.00  0.00     0.002 A 
HETATM    9  C   UNL     1     -39.175 -54.382  14.272  1.00  0.00     0.032 A 
HETATM   10  C   UNL     1     -40.554 -54.186  14.095  1.00  0.00     0.063 A 
ENDROOT
BRANCH   2  11
HETATM   11  S   UNL     1     -43.998 -53.074  12.586  1.00  0.00    -0.080 SA
BRANCH  11  12
HETATM   12  C   UNL     1     -45.318 -53.014  13.886  1.00  0.00     0.143 C 
HETATM   13  C   UNL     1     -46.383 -51.957  13.593  1.00  0.00     0.031 C 
BRANCH  12  14
HETATM   14  C   UNL     1     -46.026 -54.379  14.005  1.00  0.00     0.229 C 
HETATM   15  O   UNL     1     -45.607 -55.420  13.499  1.00  0.00    -0.272 OA
HETATM   16  N   UNL     1     -47.240 -54.403  14.630  1.00  0.00    -0.369 N 
HETATM   17  H   UNL     1     -47.558 -53.636  15.204  1.00  0.00     0.159 HD
HETATM   18  H   UNL     1     -47.675 -55.310  14.745  1.00  0.00     0.159 HD
ENDBRANCH  12  14
ENDBRANCH  11  12
ENDBRANCH   2  11
BRANCH   1  19
HETATM   19  C   UNL     1     -40.749 -52.772  12.039  1.00  0.00     0.157 C 
BRANCH  19  20
HETATM   20  C   UNL     1     -40.222 -51.399  12.439  1.00  0.00     0.187 C 
BRANCH  20  21
HETATM   21  O   UNL     1     -38.789 -51.398  12.386  1.00  0.00    -0.394 OA
HETATM   22  C   UNL     1     -38.293 -50.165  11.873  1.00  0.00     0.201 C 
ENDBRANCH  20  21
ENDBRANCH  19  20
ENDBRANCH   1  19
TORSDOF 6
ENDMDL
MODEL 8
REMARK VINA RESULT:      -4.8      3.126      4.583
REMARK  6 active torsions:
REMARK  status: ('A' for Active; 'I' for Inactive)
REMARK    1  A    between atoms: O_2  and  C_3 
REMARK    2  A    between atoms: C_3  and  C_4 
REMARK    3  A    between atoms: C_4  and  N_5 
REMARK    4  A    between atoms: C_6  and  S_7 
REMARK    5  A    between atoms: S_7  and  C_8 
REMARK    6  A    between atoms: C_8  and  C_10 
REMARK       I    between atoms: C_10  and  N_12 
ROOT
HETATM    1  N   UNL     1     -39.577 -50.412  12.916  1.00  0.00    -0.324 N 
HETATM    2  C   UNL     1     -40.448 -50.245  11.856  1.00  0.00     0.148 A 
HETATM    3  N   UNL     1     -41.059 -51.368  11.558  1.00  0.00    -0.335 N 
ATOM      4  HN  UNL     1     -41.740 -51.518  10.813  1.00  0.00     0.168 HD
HETATM    5  C   UNL     1     -40.596 -52.297  12.448  1.00  0.00     0.061 A 
HETATM    6  C   UNL     1     -40.964 -53.641  12.601  1.00  0.00     0.032 A 
HETATM    7  C   UNL     1     -40.317 -54.416  13.569  1.00  0.00     0.002 A 
HETATM    8  C   UNL     1     -39.316 -53.862  14.368  1.00  0.00     0.002 A 
HETATM    9  C   UNL     1     -38.953 -52.515  14.247  1.00  0.00     0.032 A 
HETATM   10  C   UNL     1     -39.626 -51.748  13.283  1.00  0.00     0.063 A 
ENDROOT
BRANCH   2  11
HETATM   11  S   UNL     1     -40.760 -48.740  11.037  1.00  0.00    -0.080 SA
BRANCH  11  12
HETATM   12  C   UNL     1     -42.557 -48.463  11.399  1.00  0.00     0.143 C 
HETATM   13  C   UNL     1     -42.779 -47.542  12.598  1.00  0.00     0.031 C 
BRANCH  12  14
HETATM   14  C   UNL     1     -43.265 -47.835  10.182  1.00  0.00     0.229 C 
HETATM   15  O   UNL     1     -44.344 -47.247  10.240  1.00  0.00    -0.272 OA
HETATM   16  N   UNL     1     -42.698 -48.033   8.955  1.00  0.00    -0.369 N 
HETATM   17  H   UNL     1     -41.746 -48.352   8.855  1.00  0.00     0.159 HD
HETATM   18  H   UNL     1     -43.144 -47.577   8.169  1.00  0.00     0.159 HD
ENDBRANCH  12  14
ENDBRANCH  11  12
ENDBRANCH   2  11
BRANCH   1  19
HETATM   19  C   UNL     1     -38.759 -49.420  13.583  1.00  0.00     0.157 C 
BRANCH  19  20
HETATM   20  C   UNL     1     -39.493 -48.648  14.673  1.00  0.00     0.187 C 
BRANCH  20  21
HETATM   21  O   UNL     1     -38.899 -47.353  14.831  1.00  0.00    -0.394 OA
HETATM   22  C   UNL     1     -39.238 -46.495  13.746  1.00  0.00     0.201 C 
ENDBRANCH  20  21
ENDBRANCH  19  20
ENDBRANCH   1  19
TORSDOF 6
ENDMDL
MODEL 9
REMARK VINA RESULT:      -4.8      3.409      6.941
REMARK  6 active torsions:
REMARK  status: ('A' for Active; 'I' for Inactive)
REMARK    1  A    between atoms: O_2  and  C_3 
REMARK    2  A    between atoms: C_3  and  C_4 
REMARK    3  A    between atoms: C_4  and  N_5 
REMARK    4  A    between atoms: C_6  and  S_7 
REMARK    5  A    between atoms: S_7  and  C_8 
REMARK    6  A    between atoms: C_8  and  C_10 
REMARK       I    between atoms: C_10  and  N_12 
ROOT
HETATM    1  N   UNL     1     -39.800 -47.476  12.906  1.00  0.00    -0.324 N 
HETATM    2  C   UNL     1     -39.987 -48.232  11.764  1.00  0.00     0.148 A 
HETATM    3  N   UNL     1     -40.169 -47.469  10.711  1.00  0.00    -0.335 N 
ATOM      4  HN  UNL     1     -40.339 -47.775   9.752  1.00  0.00     0.168 HD
HETATM    5  C   UNL     1     -40.086 -46.180  11.160  1.00  0.00     0.061 A 
HETATM    6  C   UNL     1     -40.156 -44.981  10.437  1.00  0.00     0.032 A 
HETATM    7  C   UNL     1     -40.083 -43.766  11.127  1.00  0.00     0.002 A 
HETATM    8  C   UNL     1     -39.948 -43.748  12.515  1.00  0.00     0.002 A 
HETATM    9  C   UNL     1     -39.850 -44.935  13.252  1.00  0.00     0.032 A 
HETATM   10  C   UNL     1     -39.907 -46.143  12.540  1.00  0.00     0.063 A 
ENDROOT
BRANCH   2  11
HETATM   11  S   UNL     1     -39.936 -49.970  11.687  1.00  0.00    -0.080 SA
BRANCH  11  12
HETATM   12  C   UNL     1     -41.468 -50.449  12.616  1.00  0.00     0.143 C 
HETATM   13  C   UNL     1     -42.620 -49.471  12.388  1.00  0.00     0.031 C 
BRANCH  12  14
HETATM   14  C   UNL     1     -41.945 -51.851  12.190  1.00  0.00     0.229 C 
HETATM   15  O   UNL     1     -42.864 -52.462  12.735  1.00  0.00    -0.272 OA
HETATM   16  N   UNL     1     -41.236 -52.484  11.210  1.00  0.00    -0.369 N 
HETATM   17  H   UNL     1     -40.590 -51.986  10.614  1.00  0.00     0.159 HD
HETATM   18  H   UNL     1     -41.585 -53.384  10.904  1.00  0.00     0.159 HD
ENDBRANCH  12  14
ENDBRANCH  11  12
ENDBRANCH   2  11
BRANCH   1  19
HETATM   19  C   UNL     1     -39.515 -47.925  14.254  1.00  0.00     0.157 C 
BRANCH  19  20
HETATM   20  C   UNL     1     -38.036 -48.177  14.519  1.00  0.00     0.187 C 
BRANCH  20  21
HETATM   21  O   UNL     1     -37.806 -49.583  14.673  1.00  0.00    -0.394 OA
HETATM   22  C   UNL     1     -36.680 -49.832  15.510  1.00  0.00     0.201 C 
ENDBRANCH  20  21
ENDBRANCH  19  20
ENDBRANCH   1  19
TORSDOF 6
ENDMDL
