MODEL 1
REMARK VINA RESULT:      -7.7      0.000      0.000
REMARK  4 active torsions:
REMARK  status: ('A' for Active; 'I' for Inactive)
REMARK    1  A    between atoms: N_1  and  C_15 
REMARK    2  A    between atoms: N_2  and  C_16 
REMARK    3  A    between atoms: C_7  and  C_14 
REMARK    4  A    between atoms: C_10  and  C_15 
ROOT
HETATM    1  C   UNL     1     -40.903 -50.119  13.370  1.00  0.00     0.223 C 
ENDROOT
BRANCH   1   2
HETATM    2  N   UNL     1     -41.378 -51.496  13.429  1.00  0.00    -0.256 N 
HETATM    3  C   UNL     1     -42.750 -51.735  13.390  1.00  0.00     0.334 C 
HETATM    4  N   UNL     1     -43.132 -53.070  13.535  1.00  0.00    -0.279 N 
HETATM    5  O   UNL     1     -43.579 -50.839  13.234  1.00  0.00    -0.246 OA
HETATM    6  C   UNL     1     -42.235 -54.104  13.383  1.00  0.00     0.146 C 
HETATM    7  C   UNL     1     -40.944 -53.869  13.172  1.00  0.00     0.200 C 
HETATM    8  C   UNL     1     -40.438 -52.483  13.156  1.00  0.00     0.292 C 
HETATM    9  F   UNL     1     -40.051 -54.858  12.980  1.00  0.00    -0.199 F 
HETATM   10  O   UNL     1     -39.264 -52.258  12.874  1.00  0.00    -0.264 OA
BRANCH   4  11
HETATM   11  C   UNL     1     -44.511 -53.319  13.914  1.00  0.00     0.232 C 
HETATM   12  O   UNL     1     -44.683 -53.161  15.335  1.00  0.00    -0.366 OA
HETATM   13  C   UNL     1     -45.800 -53.972  15.728  1.00  0.00     0.170 C 
HETATM   14  C   UNL     1     -46.292 -54.694  14.487  1.00  0.00     0.031 C 
HETATM   15  C   UNL     1     -45.065 -54.698  13.602  1.00  0.00     0.056 C 
ENDBRANCH   4  11
ENDBRANCH   1   2
BRANCH   1  16
HETATM   16  C   UNL     1     -40.980 -49.492  12.022  1.00  0.00     0.159 A 
HETATM   17  O   UNL     1     -41.835 -48.432  11.900  1.00  0.00    -0.276 OA
HETATM   18  C   UNL     1     -41.867 -48.232  10.544  1.00  0.00     0.175 A 
HETATM   19  N   UNL     1     -41.078 -49.065   9.901  1.00  0.00    -0.277 N 
HETATM   20  N   UNL     1     -40.500 -49.887  10.860  1.00  0.00    -0.280 N 
ATOM     21  HN  UNL     1     -40.921 -49.100   8.894  1.00  0.00     0.189 HD
ATOM     22  HN  UNL     1     -39.837 -50.644  10.697  1.00  0.00     0.189 HD
BRANCH  18  23
HETATM   23  C   UNL     1     -42.822 -47.218  10.102  1.00  0.00     0.034 A 
HETATM   24  C   UNL     1     -42.556 -45.840  10.128  1.00  0.00     0.025 A 
HETATM   25 BR   UNL     1     -40.951 -45.099  10.830  1.00  0.00    -0.050 Br
HETATM   26  C   UNL     1     -43.469 -44.926   9.574  1.00  0.00     0.020 A 
HETATM   27  C   UNL     1     -44.656 -45.376   8.999  1.00  0.00     0.001 A 
HETATM   28  C   UNL     1     -44.957 -46.732   8.989  1.00  0.00     0.001 A 
HETATM   29  C   UNL     1     -44.045 -47.640   9.536  1.00  0.00     0.017 A 
ENDBRANCH  18  23
ENDBRANCH   1  16
TORSDOF 4
ENDMDL
MODEL 2
REMARK VINA RESULT:      -7.6      4.425      6.129
REMARK  4 active torsions:
REMARK  status: ('A' for Active; 'I' for Inactive)
REMARK    1  A    between atoms: N_1  and  C_15 
REMARK    2  A    between atoms: N_2  and  C_16 
REMARK    3  A    between atoms: C_7  and  C_14 
REMARK    4  A    between atoms: C_10  and  C_15 
ROOT
HETATM    1  C   UNL     1     -39.732 -51.544  13.034  1.00  0.00     0.223 C 
ENDROOT
BRANCH   1   2
HETATM    2  N   UNL     1     -39.450 -52.042  14.375  1.00  0.00    -0.256 N 
HETATM    3  C   UNL     1     -39.098 -53.381  14.533  1.00  0.00     0.334 C 
HETATM    4  N   UNL     1     -38.927 -53.806  15.851  1.00  0.00    -0.279 N 
HETATM    5  O   UNL     1     -38.942 -54.147  13.581  1.00  0.00    -0.246 OA
HETATM    6  C   UNL     1     -38.776 -52.914  16.890  1.00  0.00     0.146 C 
HETATM    7  C   UNL     1     -38.869 -51.604  16.689  1.00  0.00     0.200 C 
HETATM    8  C   UNL     1     -39.199 -51.083  15.348  1.00  0.00     0.292 C 
HETATM    9  F   UNL     1     -38.687 -50.707  17.676  1.00  0.00    -0.199 F 
HETATM   10  O   UNL     1     -39.200 -49.872  15.140  1.00  0.00    -0.264 OA
BRANCH   4  11
HETATM   11  C   UNL     1     -38.975 -55.238  16.089  1.00  0.00     0.232 C 
HETATM   12  O   UNL     1     -40.336 -55.680  16.247  1.00  0.00    -0.366 OA
HETATM   13  C   UNL     1     -40.313 -56.869  17.052  1.00  0.00     0.170 C 
HETATM   14  C   UNL     1     -38.868 -57.124  17.440  1.00  0.00     0.031 C 
HETATM   15  C   UNL     1     -38.250 -55.748  17.323  1.00  0.00     0.056 C 
ENDBRANCH   4  11
ENDBRANCH   1   2
BRANCH   1  16
HETATM   16  C   UNL     1     -41.081 -51.896  12.512  1.00  0.00     0.159 A 
HETATM   17  O   UNL     1     -42.124 -51.728  13.381  1.00  0.00    -0.276 OA
HETATM   18  C   UNL     1     -43.159 -52.339  12.721  1.00  0.00     0.175 A 
HETATM   19  N   UNL     1     -42.795 -52.801  11.546  1.00  0.00    -0.277 N 
HETATM   20  N   UNL     1     -41.443 -52.516  11.407  1.00  0.00    -0.280 N 
ATOM     21  HN  UNL     1     -43.389 -53.277  10.867  1.00  0.00     0.189 HD
ATOM     22  HN  UNL     1     -40.848 -52.741  10.609  1.00  0.00     0.189 HD
BRANCH  18  23
HETATM   23  C   UNL     1     -44.400 -52.427  13.488  1.00  0.00     0.034 A 
HETATM   24  C   UNL     1     -44.646 -53.418  14.452  1.00  0.00     0.025 A 
HETATM   25 BR   UNL     1     -43.436 -54.836  14.825  1.00  0.00    -0.050 Br
HETATM   26  C   UNL     1     -45.809 -53.372  15.241  1.00  0.00     0.020 A 
HETATM   27  C   UNL     1     -46.737 -52.348  15.071  1.00  0.00     0.001 A 
HETATM   28  C   UNL     1     -46.532 -51.373  14.102  1.00  0.00     0.001 A 
HETATM   29  C   UNL     1     -45.373 -51.417  13.321  1.00  0.00     0.017 A 
ENDBRANCH  18  23
ENDBRANCH   1  16
TORSDOF 4
ENDMDL
MODEL 3
REMARK VINA RESULT:      -7.5      2.507      2.989
REMARK  4 active torsions:
REMARK  status: ('A' for Active; 'I' for Inactive)
REMARK    1  A    between atoms: N_1  and  C_15 
REMARK    2  A    between atoms: N_2  and  C_16 
REMARK    3  A    between atoms: C_7  and  C_14 
REMARK    4  A    between atoms: C_10  and  C_15 
ROOT
HETATM    1  C   UNL     1     -39.020 -50.845  12.423  1.00  0.00     0.223 C 
ENDROOT
BRANCH   1   2
HETATM    2  N   UNL     1     -39.861 -51.466  13.439  1.00  0.00    -0.256 N 
HETATM    3  C   UNL     1     -40.643 -52.562  13.084  1.00  0.00     0.334 C 
HETATM    4  N   UNL     1     -41.485 -53.050  14.085  1.00  0.00    -0.279 N 
HETATM    5  O   UNL     1     -40.602 -53.078  11.966  1.00  0.00    -0.246 OA
HETATM    6  C   UNL     1     -41.315 -52.708  15.409  1.00  0.00     0.146 C 
HETATM    7  C   UNL     1     -40.387 -51.832  15.778  1.00  0.00     0.200 C 
HETATM    8  C   UNL     1     -39.558 -51.159  14.760  1.00  0.00     0.292 C 
HETATM    9  F   UNL     1     -40.171 -51.509  17.068  1.00  0.00    -0.199 F 
HETATM   10  O   UNL     1     -38.642 -50.415  15.103  1.00  0.00    -0.264 OA
BRANCH   4  11
HETATM   11  C   UNL     1     -42.591 -53.889  13.660  1.00  0.00     0.232 C 
HETATM   12  O   UNL     1     -43.617 -53.097  13.034  1.00  0.00    -0.366 OA
HETATM   13  C   UNL     1     -44.861 -53.796  13.197  1.00  0.00     0.170 C 
HETATM   14  C   UNL     1     -44.574 -55.046  14.008  1.00  0.00     0.031 C 
HETATM   15  C   UNL     1     -43.306 -54.674  14.746  1.00  0.00     0.056 C 
ENDBRANCH   4  11
ENDBRANCH   1   2
BRANCH   1  16
HETATM   16  C   UNL     1     -39.731 -49.894  11.525  1.00  0.00     0.159 A 
HETATM   17  O   UNL     1     -39.637 -48.570  11.857  1.00  0.00    -0.276 OA
HETATM   18  C   UNL     1     -40.556 -47.990  11.020  1.00  0.00     0.175 A 
HETATM   19  N   UNL     1     -41.127 -48.868  10.226  1.00  0.00    -0.277 N 
HETATM   20  N   UNL     1     -40.594 -50.108  10.552  1.00  0.00    -0.280 N 
ATOM     21  HN  UNL     1     -41.827 -48.676   9.509  1.00  0.00     0.189 HD
ATOM     22  HN  UNL     1     -40.824 -51.005  10.125  1.00  0.00     0.189 HD
BRANCH  18  23
HETATM   23  C   UNL     1     -40.767 -46.562  11.247  1.00  0.00     0.034 A 
HETATM   24  C   UNL     1     -41.695 -46.054  12.170  1.00  0.00     0.025 A 
HETATM   25 BR   UNL     1     -42.870 -47.153  13.184  1.00  0.00    -0.050 Br
HETATM   26  C   UNL     1     -41.762 -44.674  12.429  1.00  0.00     0.020 A 
HETATM   27  C   UNL     1     -40.913 -43.790  11.766  1.00  0.00     0.001 A 
HETATM   28  C   UNL     1     -40.007 -44.265  10.825  1.00  0.00     0.001 A 
HETATM   29  C   UNL     1     -39.939 -45.638  10.572  1.00  0.00     0.017 A 
ENDBRANCH  18  23
ENDBRANCH   1  16
TORSDOF 4
ENDMDL
MODEL 4
REMARK VINA RESULT:      -7.1      3.845      7.406
REMARK  4 active torsions:
REMARK  status: ('A' for Active; 'I' for Inactive)
REMARK    1  A    between atoms: N_1  and  C_15 
REMARK    2  A    between atoms: N_2  and  C_16 
REMARK    3  A    between atoms: C_7  and  C_14 
REMARK    4  A    between atoms: C_10  and  C_15 
ROOT
HETATM    1  C   UNL     1     -41.231 -48.914  12.190  1.00  0.00     0.223 C 
ENDROOT
BRANCH   1   2
HETATM    2  N   UNL     1     -40.686 -48.694  13.524  1.00  0.00    -0.256 N 
HETATM    3  C   UNL     1     -39.307 -48.559  13.671  1.00  0.00     0.334 C 
HETATM    4  N   UNL     1     -38.851 -48.436  14.985  1.00  0.00    -0.279 N 
HETATM    5  O   UNL     1     -38.532 -48.542  12.713  1.00  0.00    -0.246 OA
HETATM    6  C   UNL     1     -39.701 -48.127  16.024  1.00  0.00     0.146 C 
HETATM    7  C   UNL     1     -41.010 -48.013  15.829  1.00  0.00     0.200 C 
HETATM    8  C   UNL     1     -41.586 -48.277  14.497  1.00  0.00     0.292 C 
HETATM    9  F   UNL     1     -41.860 -47.674  16.817  1.00  0.00    -0.199 F 
HETATM   10  O   UNL     1     -42.783 -48.087  14.292  1.00  0.00    -0.264 OA
BRANCH   4  11
HETATM   11  C   UNL     1     -37.444 -48.709  15.218  1.00  0.00     0.232 C 
HETATM   12  O   UNL     1     -37.256 -50.070  15.649  1.00  0.00    -0.366 OA
HETATM   13  C   UNL     1     -36.048 -50.115  16.424  1.00  0.00     0.170 C 
HETATM   14  C   UNL     1     -35.512 -48.698  16.505  1.00  0.00     0.031 C 
HETATM   15  C   UNL     1     -36.753 -47.864  16.273  1.00  0.00     0.056 C 
ENDBRANCH   4  11
ENDBRANCH   1   2
BRANCH   1  16
HETATM   16  C   UNL     1     -41.408 -50.345  11.820  1.00  0.00     0.159 A 
HETATM   17  O   UNL     1     -42.317 -51.049  12.562  1.00  0.00    -0.276 OA
HETATM   18  C   UNL     1     -42.090 -52.340  12.159  1.00  0.00     0.175 A 
HETATM   19  N   UNL     1     -41.160 -52.415  11.233  1.00  0.00    -0.277 N 
HETATM   20  N   UNL     1     -40.713 -51.119  11.010  1.00  0.00    -0.280 N 
ATOM     21  HN  UNL     1     -40.830 -53.260  10.768  1.00  0.00     0.189 HD
ATOM     22  HN  UNL     1     -39.992 -50.824  10.353  1.00  0.00     0.189 HD
BRANCH  18  23
HETATM   23  C   UNL     1     -42.849 -53.348  12.896  1.00  0.00     0.034 A 
HETATM   24  C   UNL     1     -42.324 -54.076  13.977  1.00  0.00     0.025 A 
HETATM   25 BR   UNL     1     -40.524 -53.916  14.568  1.00  0.00    -0.050 Br
HETATM   26  C   UNL     1     -43.145 -54.941  14.720  1.00  0.00     0.020 A 
HETATM   27  C   UNL     1     -44.489 -55.095  14.389  1.00  0.00     0.001 A 
HETATM   28  C   UNL     1     -45.025 -54.410  13.305  1.00  0.00     0.001 A 
HETATM   29  C   UNL     1     -44.208 -53.546  12.570  1.00  0.00     0.017 A 
ENDBRANCH  18  23
ENDBRANCH   1  16
TORSDOF 4
ENDMDL
MODEL 5
REMARK VINA RESULT:      -7.1      1.859      2.243
REMARK  4 active torsions:
REMARK  status: ('A' for Active; 'I' for Inactive)
REMARK    1  A    between atoms: N_1  and  C_15 
REMARK    2  A    between atoms: N_2  and  C_16 
REMARK    3  A    between atoms: C_7  and  C_14 
REMARK    4  A    between atoms: C_10  and  C_15 
ROOT
HETATM    1  C   UNL     1     -41.077 -51.154  13.747  1.00  0.00     0.223 C 
ENDROOT
BRANCH   1   2
HETATM    2  N   UNL     1     -42.392 -51.778  13.826  1.00  0.00    -0.256 N 
HETATM    3  C   UNL     1     -43.435 -51.071  14.421  1.00  0.00     0.334 C 
HETATM    4  N   UNL     1     -44.641 -51.763  14.538  1.00  0.00    -0.279 N 
HETATM    5  O   UNL     1     -43.314 -49.911  14.818  1.00  0.00    -0.246 OA
HETATM    6  C   UNL     1     -44.892 -52.914  13.823  1.00  0.00     0.146 C 
HETATM    7  C   UNL     1     -43.959 -53.460  13.051  1.00  0.00     0.200 C 
HETATM    8  C   UNL     1     -42.607 -52.869  12.994  1.00  0.00     0.292 C 
HETATM    9  F   UNL     1     -44.187 -54.561  12.310  1.00  0.00    -0.199 F 
HETATM   10  O   UNL     1     -41.770 -53.318  12.215  1.00  0.00    -0.264 OA
BRANCH   4  11
HETATM   11  C   UNL     1     -45.603 -51.247  15.496  1.00  0.00     0.232 C 
HETATM   12  O   UNL     1     -45.353 -51.789  16.807  1.00  0.00    -0.366 OA
HETATM   13  C   UNL     1     -46.596 -51.772  17.525  1.00  0.00     0.170 C 
HETATM   14  C   UNL     1     -47.657 -51.241  16.579  1.00  0.00     0.031 C 
HETATM   15  C   UNL     1     -47.066 -51.546  15.220  1.00  0.00     0.056 C 
ENDBRANCH   4  11
ENDBRANCH   1   2
BRANCH   1  16
HETATM   16  C   UNL     1     -40.821 -50.403  12.487  1.00  0.00     0.159 A 
HETATM   17  O   UNL     1     -41.477 -49.210  12.355  1.00  0.00    -0.276 OA
HETATM   18  C   UNL     1     -41.239 -48.885  11.044  1.00  0.00     0.175 A 
HETATM   19  N   UNL     1     -40.479 -49.774  10.443  1.00  0.00    -0.277 N 
HETATM   20  N   UNL     1     -40.206 -50.763  11.378  1.00  0.00    -0.280 N 
ATOM     21  HN  UNL     1     -40.153 -49.743   9.477  1.00  0.00     0.189 HD
ATOM     22  HN  UNL     1     -39.643 -51.601  11.236  1.00  0.00     0.189 HD
BRANCH  18  23
HETATM   23  C   UNL     1     -41.942 -47.692  10.577  1.00  0.00     0.034 A 
HETATM   24  C   UNL     1     -41.538 -46.384  10.888  1.00  0.00     0.025 A 
HETATM   25 BR   UNL     1     -40.075 -45.987  12.036  1.00  0.00    -0.050 Br
HETATM   26  C   UNL     1     -42.185 -45.280  10.305  1.00  0.00     0.020 A 
HETATM   27  C   UNL     1     -43.243 -45.470   9.419  1.00  0.00     0.001 A 
HETATM   28  C   UNL     1     -43.682 -46.754   9.119  1.00  0.00     0.001 A 
HETATM   29  C   UNL     1     -43.034 -47.851   9.695  1.00  0.00     0.017 A 
ENDBRANCH  18  23
ENDBRANCH   1  16
TORSDOF 4
ENDMDL
MODEL 6
REMARK VINA RESULT:      -7.0     14.342     17.334
REMARK  4 active torsions:
REMARK  status: ('A' for Active; 'I' for Inactive)
REMARK    1  A    between atoms: N_1  and  C_15 
REMARK    2  A    between atoms: N_2  and  C_16 
REMARK    3  A    between atoms: C_7  and  C_14 
REMARK    4  A    between atoms: C_10  and  C_15 
ROOT
HETATM    1  C   UNL     1     -29.145 -57.907  19.942  1.00  0.00     0.223 C 
ENDROOT
BRANCH   1   2
HETATM    2  N   UNL     1     -30.451 -57.714  19.322  1.00  0.00    -0.256 N 
HETATM    3  C   UNL     1     -31.528 -58.470  19.779  1.00  0.00     0.334 C 
HETATM    4  N   UNL     1     -32.725 -58.293  19.083  1.00  0.00    -0.279 N 
HETATM    5  O   UNL     1     -31.444 -59.243  20.734  1.00  0.00    -0.246 OA
HETATM    6  C   UNL     1     -32.927 -57.219  18.244  1.00  0.00     0.146 C 
HETATM    7  C   UNL     1     -31.955 -56.346  17.999  1.00  0.00     0.200 C 
HETATM    8  C   UNL     1     -30.614 -56.551  18.580  1.00  0.00     0.292 C 
HETATM    9  F   UNL     1     -32.134 -55.266  17.216  1.00  0.00    -0.199 F 
HETATM   10  O   UNL     1     -29.739 -55.702  18.428  1.00  0.00    -0.264 OA
BRANCH   4  11
HETATM   11  C   UNL     1     -33.731 -59.328  19.236  1.00  0.00     0.232 C 
HETATM   12  O   UNL     1     -33.544 -60.366  18.256  1.00  0.00    -0.366 OA
HETATM   13  C   UNL     1     -34.820 -60.986  18.035  1.00  0.00     0.170 C 
HETATM   14  C   UNL     1     -35.835 -60.248  18.888  1.00  0.00     0.031 C 
HETATM   15  C   UNL     1     -35.180 -58.898  19.082  1.00  0.00     0.056 C 
ENDBRANCH   4  11
ENDBRANCH   1   2
BRANCH   1  16
HETATM   16  C   UNL     1     -28.240 -58.833  19.207  1.00  0.00     0.159 A 
HETATM   17  O   UNL     1     -28.837 -59.654  18.289  1.00  0.00    -0.276 OA
HETATM   18  C   UNL     1     -27.825 -60.521  17.966  1.00  0.00     0.175 A 
HETATM   19  N   UNL     1     -26.707 -60.235  18.595  1.00  0.00    -0.277 N 
HETATM   20  N   UNL     1     -26.973 -59.138  19.404  1.00  0.00    -0.280 N 
ATOM     21  HN  UNL     1     -25.816 -60.724  18.506  1.00  0.00     0.189 HD
ATOM     22  HN  UNL     1     -26.320 -58.664  20.027  1.00  0.00     0.189 HD
BRANCH  18  23
HETATM   23  C   UNL     1     -28.222 -61.612  17.079  1.00  0.00     0.034 A 
HETATM   24  C   UNL     1     -27.460 -62.028  15.974  1.00  0.00     0.025 A 
HETATM   25 BR   UNL     1     -25.855 -61.167  15.428  1.00  0.00    -0.050 Br
HETATM   26  C   UNL     1     -27.836 -63.163  15.236  1.00  0.00     0.020 A 
HETATM   27  C   UNL     1     -28.975 -63.886  15.584  1.00  0.00     0.001 A 
HETATM   28  C   UNL     1     -29.762 -63.477  16.653  1.00  0.00     0.001 A 
HETATM   29  C   UNL     1     -29.385 -62.351  17.390  1.00  0.00     0.017 A 
ENDBRANCH  18  23
ENDBRANCH   1  16
TORSDOF 4
ENDMDL
MODEL 7
REMARK VINA RESULT:      -6.9      3.559      7.291
REMARK  4 active torsions:
REMARK  status: ('A' for Active; 'I' for Inactive)
REMARK    1  A    between atoms: N_1  and  C_15 
REMARK    2  A    between atoms: N_2  and  C_16 
REMARK    3  A    between atoms: C_7  and  C_14 
REMARK    4  A    between atoms: C_10  and  C_15 
ROOT
HETATM    1  C   UNL     1     -40.182 -51.078  12.813  1.00  0.00     0.223 C 
ENDROOT
BRANCH   1   2
HETATM    2  N   UNL     1     -40.200 -49.675  13.208  1.00  0.00    -0.256 N 
HETATM    3  C   UNL     1     -40.756 -48.740  12.337  1.00  0.00     0.334 C 
HETATM    4  N   UNL     1     -40.662 -47.408  12.746  1.00  0.00    -0.279 N 
HETATM    5  O   UNL     1     -41.299 -49.055  11.278  1.00  0.00    -0.246 OA
HETATM    6  C   UNL     1     -40.361 -47.065  14.046  1.00  0.00     0.146 C 
HETATM    7  C   UNL     1     -40.067 -47.992  14.950  1.00  0.00     0.200 C 
HETATM    8  C   UNL     1     -39.998 -49.413  14.558  1.00  0.00     0.292 C 
HETATM    9  F   UNL     1     -39.809 -47.690  16.237  1.00  0.00    -0.199 F 
HETATM   10  O   UNL     1     -39.813 -50.280  15.408  1.00  0.00    -0.264 OA
BRANCH   4  11
HETATM   11  C   UNL     1     -40.836 -46.395  11.720  1.00  0.00     0.232 C 
HETATM   12  O   UNL     1     -39.693 -46.357  10.846  1.00  0.00    -0.366 OA
HETATM   13  C   UNL     1     -39.615 -45.033  10.295  1.00  0.00     0.170 C 
HETATM   14  C   UNL     1     -40.739 -44.221  10.910  1.00  0.00     0.031 C 
HETATM   15  C   UNL     1     -41.013 -44.965  12.199  1.00  0.00     0.056 C 
ENDBRANCH   4  11
ENDBRANCH   1   2
BRANCH   1  16
HETATM   16  C   UNL     1     -41.509 -51.632  12.429  1.00  0.00     0.159 A 
HETATM   17  O   UNL     1     -42.510 -51.485  13.349  1.00  0.00    -0.276 OA
HETATM   18  C   UNL     1     -43.505 -52.276  12.833  1.00  0.00     0.175 A 
HETATM   19  N   UNL     1     -43.160 -52.822  11.688  1.00  0.00    -0.277 N 
HETATM   20  N   UNL     1     -41.862 -52.407  11.422  1.00  0.00    -0.280 N 
ATOM     21  HN  UNL     1     -43.734 -53.433  11.107  1.00  0.00     0.189 HD
ATOM     22  HN  UNL     1     -41.294 -52.652  10.611  1.00  0.00     0.189 HD
BRANCH  18  23
HETATM   23  C   UNL     1     -44.678 -52.414  13.692  1.00  0.00     0.034 A 
HETATM   24  C   UNL     1     -44.824 -53.434  14.647  1.00  0.00     0.025 A 
HETATM   25 BR   UNL     1     -43.554 -54.829  14.886  1.00  0.00    -0.050 Br
HETATM   26  C   UNL     1     -45.921 -53.437  15.526  1.00  0.00     0.020 A 
HETATM   27  C   UNL     1     -46.884 -52.433  15.456  1.00  0.00     0.001 A 
HETATM   28  C   UNL     1     -46.779 -51.430  14.499  1.00  0.00     0.001 A 
HETATM   29  C   UNL     1     -45.685 -51.425  13.629  1.00  0.00     0.017 A 
ENDBRANCH  18  23
ENDBRANCH   1  16
TORSDOF 4
ENDMDL
MODEL 8
REMARK VINA RESULT:      -6.9      3.273      7.250
REMARK  4 active torsions:
REMARK  status: ('A' for Active; 'I' for Inactive)
REMARK    1  A    between atoms: N_1  and  C_15 
REMARK    2  A    between atoms: N_2  and  C_16 
REMARK    3  A    between atoms: C_7  and  C_14 
REMARK    4  A    between atoms: C_10  and  C_15 
ROOT
HETATM    1  C   UNL     1     -38.730 -51.607  14.289  1.00  0.00     0.223 C 
ENDROOT
BRANCH   1   2
HETATM    2  N   UNL     1     -38.726 -50.719  13.132  1.00  0.00    -0.256 N 
HETATM    3  C   UNL     1     -39.572 -49.612  13.135  1.00  0.00     0.334 C 
HETATM    4  N   UNL     1     -39.575 -48.856  11.961  1.00  0.00    -0.279 N 
HETATM    5  O   UNL     1     -40.270 -49.307  14.102  1.00  0.00    -0.246 OA
HETATM    6  C   UNL     1     -38.584 -48.981  11.012  1.00  0.00     0.146 C 
HETATM    7  C   UNL     1     -37.623 -49.889  11.138  1.00  0.00     0.200 C 
HETATM    8  C   UNL     1     -37.636 -50.827  12.277  1.00  0.00     0.292 C 
HETATM    9  F   UNL     1     -36.620 -50.007  10.248  1.00  0.00    -0.199 F 
HETATM   10  O   UNL     1     -36.703 -51.609  12.444  1.00  0.00    -0.264 OA
BRANCH   4  11
HETATM   11  C   UNL     1     -40.708 -47.971  11.755  1.00  0.00     0.232 C 
HETATM   12  O   UNL     1     -41.736 -48.632  10.993  1.00  0.00    -0.366 OA
HETATM   13  C   UNL     1     -42.490 -47.616  10.313  1.00  0.00     0.170 C 
HETATM   14  C   UNL     1     -41.849 -46.281  10.644  1.00  0.00     0.031 C 
HETATM   15  C   UNL     1     -40.435 -46.678  11.008  1.00  0.00     0.056 C 
ENDBRANCH   4  11
ENDBRANCH   1   2
BRANCH   1  16
HETATM   16  C   UNL     1     -39.477 -52.880  14.091  1.00  0.00     0.159 A 
HETATM   17  O   UNL     1     -40.837 -52.769  13.992  1.00  0.00    -0.276 OA
HETATM   18  C   UNL     1     -41.245 -54.076  14.056  1.00  0.00     0.175 A 
HETATM   19  N   UNL     1     -40.232 -54.909  14.147  1.00  0.00    -0.277 N 
HETATM   20  N   UNL     1     -39.080 -54.134  14.171  1.00  0.00    -0.280 N 
ATOM     21  HN  UNL     1     -40.282 -55.926  14.191  1.00  0.00     0.189 HD
ATOM     22  HN  UNL     1     -38.119 -54.468  14.238  1.00  0.00     0.189 HD
BRANCH  18  23
HETATM   23  C   UNL     1     -42.694 -54.258  14.102  1.00  0.00     0.034 A 
HETATM   24  C   UNL     1     -43.411 -54.472  15.291  1.00  0.00     0.025 A 
HETATM   25 BR   UNL     1     -42.582 -54.649  16.993  1.00  0.00    -0.050 Br
HETATM   26  C   UNL     1     -44.816 -54.516  15.279  1.00  0.00     0.020 A 
HETATM   27  C   UNL     1     -45.517 -54.355  14.086  1.00  0.00     0.001 A 
HETATM   28  C   UNL     1     -44.830 -54.173  12.891  1.00  0.00     0.001 A 
HETATM   29  C   UNL     1     -43.433 -54.125  12.905  1.00  0.00     0.017 A 
ENDBRANCH  18  23
ENDBRANCH   1  16
TORSDOF 4
ENDMDL
MODEL 9
REMARK VINA RESULT:      -6.8      3.896      7.149
REMARK  4 active torsions:
REMARK  status: ('A' for Active; 'I' for Inactive)
REMARK    1  A    between atoms: N_1  and  C_15 
REMARK    2  A    between atoms: N_2  and  C_16 
REMARK    3  A    between atoms: C_7  and  C_14 
REMARK    4  A    between atoms: C_10  and  C_15 
ROOT
HETATM    1  C   UNL     1     -40.134 -51.158  12.920  1.00  0.00     0.223 C 
ENDROOT
BRANCH   1   2
HETATM    2  N   UNL     1     -40.087 -49.701  12.948  1.00  0.00    -0.256 N 
HETATM    3  C   UNL     1     -39.595 -49.068  14.088  1.00  0.00     0.334 C 
HETATM    4  N   UNL     1     -39.660 -47.673  14.076  1.00  0.00    -0.279 N 
HETATM    5  O   UNL     1     -39.129 -49.685  15.045  1.00  0.00    -0.246 OA
HETATM    6  C   UNL     1     -39.867 -46.964  12.913  1.00  0.00     0.146 C 
HETATM    7  C   UNL     1     -40.095 -47.585  11.761  1.00  0.00     0.200 C 
HETATM    8  C   UNL     1     -40.192 -49.057  11.721  1.00  0.00     0.292 C 
HETATM    9  F   UNL     1     -40.261 -46.921  10.602  1.00  0.00    -0.199 F 
HETATM   10  O   UNL     1     -40.316 -49.639  10.646  1.00  0.00    -0.264 OA
BRANCH   4  11
HETATM   11  C   UNL     1     -39.559 -47.002  15.360  1.00  0.00     0.232 C 
HETATM   12  O   UNL     1     -40.840 -46.972  16.018  1.00  0.00    -0.366 OA
HETATM   13  C   UNL     1     -40.845 -45.840  16.900  1.00  0.00     0.170 C 
HETATM   14  C   UNL     1     -39.519 -45.123  16.723  1.00  0.00     0.031 C 
HETATM   15  C   UNL     1     -39.095 -45.556  15.337  1.00  0.00     0.056 C 
ENDBRANCH   4  11
ENDBRANCH   1   2
BRANCH   1  16
HETATM   16  C   UNL     1     -41.446 -51.729  12.512  1.00  0.00     0.159 A 
HETATM   17  O   UNL     1     -42.481 -51.540  13.386  1.00  0.00    -0.276 OA
HETATM   18  C   UNL     1     -43.457 -52.353  12.869  1.00  0.00     0.175 A 
HETATM   19  N   UNL     1     -43.070 -52.952  11.765  1.00  0.00    -0.277 N 
HETATM   20  N   UNL     1     -41.762 -52.549  11.530  1.00  0.00    -0.280 N 
ATOM     21  HN  UNL     1     -43.623 -53.589  11.191  1.00  0.00     0.189 HD
ATOM     22  HN  UNL     1     -41.165 -52.831  10.753  1.00  0.00     0.189 HD
BRANCH  18  23
HETATM   23  C   UNL     1     -44.663 -52.452  13.689  1.00  0.00     0.034 A 
HETATM   24  C   UNL     1     -44.868 -53.459  14.647  1.00  0.00     0.025 A 
HETATM   25 BR   UNL     1     -43.645 -54.885  14.942  1.00  0.00    -0.050 Br
HETATM   26  C   UNL     1     -45.994 -53.424  15.488  1.00  0.00     0.020 A 
HETATM   27  C   UNL     1     -46.926 -52.396  15.376  1.00  0.00     0.001 A 
HETATM   28  C   UNL     1     -46.763 -51.405  14.415  1.00  0.00     0.001 A 
HETATM   29  C   UNL     1     -45.640 -51.438  13.583  1.00  0.00     0.017 A 
ENDBRANCH  18  23
ENDBRANCH   1  16
TORSDOF 4
ENDMDL
