MODEL 1
REMARK VINA RESULT:      -5.8      0.000      0.000
REMARK  5 active torsions:
REMARK  status: ('A' for Active; 'I' for Inactive)
REMARK    1  A    between atoms: C_2  and  O_3 
REMARK    2  A    between atoms: O_3  and  C_4 
REMARK    3  A    between atoms: C_4  and  C_5 
REMARK    4  A    between atoms: C_5  and  N_6 
REMARK    5  A    between atoms: C_7  and  N_19 
ROOT
HETATM    1  N   UNL     1     -40.742 -48.797  11.930  1.00  0.00    -0.172 N 
HETATM    2  C   UNL     1     -41.804 -49.700  12.076  1.00  0.00     0.684 A 
HETATM    3  N   UNL     1     -42.887 -49.236  11.482  1.00  0.00    -0.174 N 
ATOM      4  HN  UNL     1     -43.808 -49.673  11.452  1.00  0.00     0.186 HD
HETATM    5  C   UNL     1     -42.521 -48.050  10.915  1.00  0.00     0.160 A 
HETATM    6  N   UNL     1     -43.327 -47.223  10.149  1.00  0.00    -0.287 N 
HETATM    7  C   UNL     1     -44.699 -47.526   9.827  1.00  0.00     0.163 C 
HETATM    8  C   UNL     1     -42.805 -46.045   9.637  1.00  0.00     0.330 C 
HETATM    9  O   UNL     1     -43.445 -45.242   8.957  1.00  0.00    -0.246 OA
HETATM   10  N   UNL     1     -41.498 -45.764   9.925  1.00  0.00    -0.273 N 
HETATM   11  C   UNL     1     -40.672 -46.473  10.751  1.00  0.00     0.280 C 
HETATM   12  O   UNL     1     -39.590 -45.969  11.038  1.00  0.00    -0.265 OA
HETATM   13  C   UNL     1     -41.222 -47.720  11.206  1.00  0.00     0.164 A 
HETATM   14  H   UNL     1     -41.145 -44.878   9.597  1.00  0.00     0.173 HD
ENDROOT
BRANCH   1  15
HETATM   15  C   UNL     1     -39.436 -49.022  12.544  1.00  0.00     0.174 C 
BRANCH  15  16
HETATM   16  C   UNL     1     -38.462 -49.813  11.712  1.00  0.00     0.188 C 
BRANCH  16  17
HETATM   17  O   UNL     1     -38.275 -51.158  12.143  1.00  0.00    -0.390 OA
BRANCH  17  18
HETATM   18  C   UNL     1     -38.095 -51.123  13.567  1.00  0.00     0.163 C 
HETATM   19  C   UNL     1     -38.724 -52.353  14.174  1.00  0.00     0.033 C 
ENDBRANCH  17  18
ENDBRANCH  16  17
ENDBRANCH  15  16
ENDBRANCH   1  15
BRANCH   2  20
HETATM   20  N   UNL     1     -41.664 -50.850  12.798  1.00  0.00    -0.217 N 
HETATM   21  C   UNL     1     -42.286 -50.943  14.126  1.00  0.00     0.141 C 
HETATM   22  C   UNL     1     -42.639 -52.420  14.317  1.00  0.00     0.022 C 
HETATM   23  C   UNL     1     -42.761 -52.960  12.907  1.00  0.00     0.022 C 
HETATM   24  C   UNL     1     -41.747 -52.145  12.119  1.00  0.00     0.141 C 
ENDBRANCH   2  20
TORSDOF 5
ENDMDL
MODEL 2
REMARK VINA RESULT:      -5.5      1.491      1.937
REMARK  5 active torsions:
REMARK  status: ('A' for Active; 'I' for Inactive)
REMARK    1  A    between atoms: C_2  and  O_3 
REMARK    2  A    between atoms: O_3  and  C_4 
REMARK    3  A    between atoms: C_4  and  C_5 
REMARK    4  A    between atoms: C_5  and  N_6 
REMARK    5  A    between atoms: C_7  and  N_19 
ROOT
HETATM    1  N   UNL     1     -40.971 -49.788  13.104  1.00  0.00    -0.172 N 
HETATM    2  C   UNL     1     -42.164 -50.358  12.640  1.00  0.00     0.684 A 
HETATM    3  N   UNL     1     -42.724 -49.578  11.734  1.00  0.00    -0.174 N 
ATOM      4  HN  UNL     1     -43.608 -49.735  11.250  1.00  0.00     0.186 HD
HETATM    5  C   UNL     1     -41.877 -48.520  11.580  1.00  0.00     0.160 A 
HETATM    6  N   UNL     1     -42.037 -47.464  10.698  1.00  0.00    -0.287 N 
HETATM    7  C   UNL     1     -43.149 -47.349   9.786  1.00  0.00     0.163 C 
HETATM    8  C   UNL     1     -41.083 -46.459  10.655  1.00  0.00     0.330 C 
HETATM    9  O   UNL     1     -41.143 -45.477   9.915  1.00  0.00    -0.246 OA
HETATM   10  N   UNL     1     -40.018 -46.574  11.506  1.00  0.00    -0.273 N 
HETATM   11  C   UNL     1     -39.840 -47.527  12.469  1.00  0.00     0.280 C 
HETATM   12  O   UNL     1     -38.916 -47.364  13.262  1.00  0.00    -0.265 OA
HETATM   13  C   UNL     1     -40.809 -48.586  12.438  1.00  0.00     0.164 A 
HETATM   14  H   UNL     1     -39.359 -45.810  11.508  1.00  0.00     0.173 HD
ENDROOT
BRANCH   1  15
HETATM   15  C   UNL     1     -40.171 -50.403  14.160  1.00  0.00     0.174 C 
BRANCH  15  16
HETATM   16  C   UNL     1     -39.273 -51.527  13.715  1.00  0.00     0.188 C 
BRANCH  16  17
HETATM   17  O   UNL     1     -38.799 -51.407  12.378  1.00  0.00    -0.390 OA
BRANCH  17  18
HETATM   18  C   UNL     1     -37.539 -50.720  12.436  1.00  0.00     0.163 C 
HETATM   19  C   UNL     1     -37.332 -49.962  11.148  1.00  0.00     0.033 C 
ENDBRANCH  17  18
ENDBRANCH  16  17
ENDBRANCH  15  16
ENDBRANCH   1  15
BRANCH   2  20
HETATM   20  N   UNL     1     -42.634 -51.533  13.150  1.00  0.00    -0.217 N 
HETATM   21  C   UNL     1     -43.834 -51.517  13.999  1.00  0.00     0.141 C 
HETATM   22  C   UNL     1     -44.527 -52.862  13.765  1.00  0.00     0.022 C 
HETATM   23  C   UNL     1     -44.045 -53.297  12.397  1.00  0.00     0.022 C 
HETATM   24  C   UNL     1     -42.633 -52.737  12.316  1.00  0.00     0.141 C 
ENDBRANCH   2  20
TORSDOF 5
ENDMDL
MODEL 3
REMARK VINA RESULT:      -5.5      4.490      6.348
REMARK  5 active torsions:
REMARK  status: ('A' for Active; 'I' for Inactive)
REMARK    1  A    between atoms: C_2  and  O_3 
REMARK    2  A    between atoms: O_3  and  C_4 
REMARK    3  A    between atoms: C_4  and  C_5 
REMARK    4  A    between atoms: C_5  and  N_6 
REMARK    5  A    between atoms: C_7  and  N_19 
ROOT
HETATM    1  N   UNL     1     -40.827 -54.163  14.345  1.00  0.00    -0.172 N 
HETATM    2  C   UNL     1     -41.325 -54.811  15.484  1.00  0.00     0.684 A 
HETATM    3  N   UNL     1     -42.644 -54.817  15.468  1.00  0.00    -0.174 N 
ATOM      4  HN  UNL     1     -43.266 -55.197  16.182  1.00  0.00     0.186 HD
HETATM    5  C   UNL     1     -43.006 -54.208  14.302  1.00  0.00     0.160 A 
HETATM    6  N   UNL     1     -44.299 -54.024  13.839  1.00  0.00    -0.287 N 
HETATM    7  C   UNL     1     -45.469 -54.481  14.546  1.00  0.00     0.163 C 
HETATM    8  C   UNL     1     -44.505 -53.386  12.626  1.00  0.00     0.330 C 
HETATM    9  O   UNL     1     -45.614 -53.167  12.138  1.00  0.00    -0.246 OA
HETATM   10  N   UNL     1     -43.395 -52.968  11.944  1.00  0.00    -0.273 N 
HETATM   11  C   UNL     1     -42.101 -53.021  12.378  1.00  0.00     0.280 C 
HETATM   12  O   UNL     1     -41.256 -52.429  11.712  1.00  0.00    -0.265 OA
HETATM   13  C   UNL     1     -41.919 -53.748  13.603  1.00  0.00     0.164 A 
HETATM   14  H   UNL     1     -43.558 -52.454  11.092  1.00  0.00     0.173 HD
ENDROOT
BRANCH   1  15
HETATM   15  C   UNL     1     -39.398 -53.951  14.130  1.00  0.00     0.174 C 
BRANCH  15  16
HETATM   16  C   UNL     1     -38.938 -52.520  14.223  1.00  0.00     0.188 C 
BRANCH  16  17
HETATM   17  O   UNL     1     -38.132 -52.089  13.131  1.00  0.00    -0.390 OA
BRANCH  17  18
HETATM   18  C   UNL     1     -38.385 -50.688  12.945  1.00  0.00     0.163 C 
HETATM   19  C   UNL     1     -37.595 -50.198  11.756  1.00  0.00     0.033 C 
ENDBRANCH  17  18
ENDBRANCH  16  17
ENDBRANCH  15  16
ENDBRANCH   1  15
BRANCH   2  20
HETATM   20  N   UNL     1     -40.489 -55.289  16.450  1.00  0.00    -0.217 N 
HETATM   21  C   UNL     1     -40.237 -54.475  17.648  1.00  0.00     0.141 C 
HETATM   22  C   UNL     1     -39.981 -55.472  18.781  1.00  0.00     0.022 C 
HETATM   23  C   UNL     1     -40.679 -56.738  18.330  1.00  0.00     0.022 C 
HETATM   24  C   UNL     1     -40.540 -56.707  16.815  1.00  0.00     0.141 C 
ENDBRANCH   2  20
TORSDOF 5
ENDMDL
MODEL 4
REMARK VINA RESULT:      -5.4      2.180      3.472
REMARK  5 active torsions:
REMARK  status: ('A' for Active; 'I' for Inactive)
REMARK    1  A    between atoms: C_2  and  O_3 
REMARK    2  A    between atoms: O_3  and  C_4 
REMARK    3  A    between atoms: C_4  and  C_5 
REMARK    4  A    between atoms: C_5  and  N_6 
REMARK    5  A    between atoms: C_7  and  N_19 
ROOT
HETATM    1  N   UNL     1     -41.862 -50.772  13.070  1.00  0.00    -0.172 N 
HETATM    2  C   UNL     1     -43.226 -50.450  13.084  1.00  0.00     0.684 A 
HETATM    3  N   UNL     1     -43.424 -49.267  12.533  1.00  0.00    -0.174 N 
ATOM      4  HN  UNL     1     -44.313 -48.777  12.434  1.00  0.00     0.186 HD
HETATM    5  C   UNL     1     -42.196 -48.836  12.126  1.00  0.00     0.160 A 
HETATM    6  N   UNL     1     -41.922 -47.654  11.456  1.00  0.00    -0.287 N 
HETATM    7  C   UNL     1     -42.936 -46.702  11.076  1.00  0.00     0.163 C 
HETATM    8  C   UNL     1     -40.615 -47.356  11.104  1.00  0.00     0.330 C 
HETATM    9  O   UNL     1     -40.272 -46.328  10.519  1.00  0.00    -0.246 OA
HETATM   10  N   UNL     1     -39.653 -48.266  11.447  1.00  0.00    -0.273 N 
HETATM   11  C   UNL     1     -39.828 -49.399  12.192  1.00  0.00     0.280 C 
HETATM   12  O   UNL     1     -38.819 -49.996  12.558  1.00  0.00    -0.265 OA
HETATM   13  C   UNL     1     -41.200 -49.710  12.478  1.00  0.00     0.164 A 
HETATM   14  H   UNL     1     -38.700 -48.013  11.239  1.00  0.00     0.173 HD
ENDROOT
BRANCH   1  15
HETATM   15  C   UNL     1     -41.343 -51.997  13.672  1.00  0.00     0.174 C 
BRANCH  15  16
HETATM   16  C   UNL     1     -41.174 -53.158  12.728  1.00  0.00     0.188 C 
BRANCH  16  17
HETATM   17  O   UNL     1     -42.047 -54.254  12.982  1.00  0.00    -0.390 OA
BRANCH  17  18
HETATM   18  C   UNL     1     -42.250 -54.312  14.402  1.00  0.00     0.163 C 
HETATM   19  C   UNL     1     -43.637 -54.839  14.680  1.00  0.00     0.033 C 
ENDBRANCH  17  18
ENDBRANCH  16  17
ENDBRANCH  15  16
ENDBRANCH   1  15
BRANCH   2  20
HETATM   20  N   UNL     1     -44.145 -51.280  13.658  1.00  0.00    -0.217 N 
HETATM   21  C   UNL     1     -44.752 -50.899  14.941  1.00  0.00     0.141 C 
HETATM   22  C   UNL     1     -46.159 -51.501  14.930  1.00  0.00     0.022 C 
HETATM   23  C   UNL     1     -46.487 -51.657  13.459  1.00  0.00     0.022 C 
HETATM   24  C   UNL     1     -45.140 -51.950  12.817  1.00  0.00     0.141 C 
ENDBRANCH   2  20
TORSDOF 5
ENDMDL
MODEL 5
REMARK VINA RESULT:      -5.4      1.389      2.234
REMARK  5 active torsions:
REMARK  status: ('A' for Active; 'I' for Inactive)
REMARK    1  A    between atoms: C_2  and  O_3 
REMARK    2  A    between atoms: O_3  and  C_4 
REMARK    3  A    between atoms: C_4  and  C_5 
REMARK    4  A    between atoms: C_5  and  N_6 
REMARK    5  A    between atoms: C_7  and  N_19 
ROOT
HETATM    1  N   UNL     1     -40.577 -48.751  11.723  1.00  0.00    -0.172 N 
HETATM    2  C   UNL     1     -41.587 -49.702  11.919  1.00  0.00     0.684 A 
HETATM    3  N   UNL     1     -42.725 -49.275  11.406  1.00  0.00    -0.174 N 
ATOM      4  HN  UNL     1     -43.627 -49.752  11.426  1.00  0.00     0.186 HD
HETATM    5  C   UNL     1     -42.448 -48.064  10.841  1.00  0.00     0.160 A 
HETATM    6  N   UNL     1     -43.337 -47.260  10.147  1.00  0.00    -0.287 N 
HETATM    7  C   UNL     1     -44.714 -47.617   9.909  1.00  0.00     0.163 C 
HETATM    8  C   UNL     1     -42.902 -46.051   9.627  1.00  0.00     0.330 C 
HETATM    9  O   UNL     1     -43.618 -45.265   9.007  1.00  0.00    -0.246 OA
HETATM   10  N   UNL     1     -41.591 -45.718   9.836  1.00  0.00    -0.273 N 
HETATM   11  C   UNL     1     -40.683 -46.405  10.591  1.00  0.00     0.280 C 
HETATM   12  O   UNL     1     -39.608 -45.859  10.818  1.00  0.00    -0.265 OA
HETATM   13  C   UNL     1     -41.148 -47.683  11.055  1.00  0.00     0.164 A 
HETATM   14  H   UNL     1     -41.299 -44.812   9.505  1.00  0.00     0.173 HD
ENDROOT
BRANCH   1  15
HETATM   15  C   UNL     1     -39.225 -48.929  12.246  1.00  0.00     0.174 C 
BRANCH  15  16
HETATM   16  C   UNL     1     -39.002 -48.415  13.644  1.00  0.00     0.188 C 
BRANCH  16  17
HETATM   17  O   UNL     1     -38.673 -47.031  13.716  1.00  0.00    -0.390 OA
BRANCH  17  18
HETATM   18  C   UNL     1     -39.777 -46.367  14.349  1.00  0.00     0.163 C 
HETATM   19  C   UNL     1     -39.533 -44.877  14.327  1.00  0.00     0.033 C 
ENDBRANCH  17  18
ENDBRANCH  16  17
ENDBRANCH  15  16
ENDBRANCH   1  15
BRANCH   2  20
HETATM   20  N   UNL     1     -41.350 -50.857  12.605  1.00  0.00    -0.217 N 
HETATM   21  C   UNL     1     -41.888 -51.007  13.965  1.00  0.00     0.141 C 
HETATM   22  C   UNL     1     -42.160 -52.502  14.142  1.00  0.00     0.022 C 
HETATM   23  C   UNL     1     -42.338 -53.020  12.730  1.00  0.00     0.022 C 
HETATM   24  C   UNL     1     -41.412 -52.142  11.903  1.00  0.00     0.141 C 
ENDBRANCH   2  20
TORSDOF 5
ENDMDL
MODEL 6
REMARK VINA RESULT:      -5.4      3.915      7.062
REMARK  5 active torsions:
REMARK  status: ('A' for Active; 'I' for Inactive)
REMARK    1  A    between atoms: C_2  and  O_3 
REMARK    2  A    between atoms: O_3  and  C_4 
REMARK    3  A    between atoms: C_4  and  C_5 
REMARK    4  A    between atoms: C_5  and  N_6 
REMARK    5  A    between atoms: C_7  and  N_19 
ROOT
HETATM    1  N   UNL     1     -41.678 -52.770  13.484  1.00  0.00    -0.172 N 
HETATM    2  C   UNL     1     -43.003 -52.947  13.904  1.00  0.00     0.684 A 
HETATM    3  N   UNL     1     -43.069 -53.876  14.839  1.00  0.00    -0.174 N 
ATOM      4  HN  UNL     1     -43.908 -54.223  15.303  1.00  0.00     0.186 HD
HETATM    5  C   UNL     1     -41.783 -54.277  15.056  1.00  0.00     0.160 A 
HETATM    6  N   UNL     1     -41.362 -55.213  15.987  1.00  0.00    -0.287 N 
HETATM    7  C   UNL     1     -42.257 -55.897  16.888  1.00  0.00     0.163 C 
HETATM    8  C   UNL     1     -40.013 -55.513  16.091  1.00  0.00     0.330 C 
HETATM    9  O   UNL     1     -39.545 -56.337  16.877  1.00  0.00    -0.246 OA
HETATM   10  N   UNL     1     -39.160 -54.852  15.250  1.00  0.00    -0.273 N 
HETATM   11  C   UNL     1     -39.505 -53.995  14.244  1.00  0.00     0.280 C 
HETATM   12  O   UNL     1     -38.618 -53.642  13.473  1.00  0.00    -0.265 OA
HETATM   13  C   UNL     1     -40.900 -53.656  14.211  1.00  0.00     0.164 A 
HETATM   14  H   UNL     1     -38.188 -55.119  15.294  1.00  0.00     0.173 HD
ENDROOT
BRANCH   1  15
HETATM   15  C   UNL     1     -41.315 -51.850  12.410  1.00  0.00     0.174 C 
BRANCH  15  16
HETATM   16  C   UNL     1     -40.754 -50.526  12.859  1.00  0.00     0.188 C 
BRANCH  16  17
HETATM   17  O   UNL     1     -39.333 -50.450  12.834  1.00  0.00    -0.390 OA
BRANCH  17  18
HETATM   18  C   UNL     1     -38.970 -49.706  11.661  1.00  0.00     0.163 C 
HETATM   19  C   UNL     1     -37.507 -49.935  11.366  1.00  0.00     0.033 C 
ENDBRANCH  17  18
ENDBRANCH  16  17
ENDBRANCH  15  16
ENDBRANCH   1  15
BRANCH   2  20
HETATM   20  N   UNL     1     -44.027 -52.251  13.330  1.00  0.00    -0.217 N 
HETATM   21  C   UNL     1     -45.054 -52.980  12.572  1.00  0.00     0.141 C 
HETATM   22  C   UNL     1     -46.344 -52.176  12.740  1.00  0.00     0.022 C 
HETATM   23  C   UNL     1     -46.141 -51.407  14.030  1.00  0.00     0.022 C 
HETATM   24  C   UNL     1     -44.644 -51.140  14.058  1.00  0.00     0.141 C 
ENDBRANCH   2  20
TORSDOF 5
ENDMDL
MODEL 7
REMARK VINA RESULT:      -5.3      2.903      5.893
REMARK  5 active torsions:
REMARK  status: ('A' for Active; 'I' for Inactive)
REMARK    1  A    between atoms: C_2  and  O_3 
REMARK    2  A    between atoms: O_3  and  C_4 
REMARK    3  A    between atoms: C_4  and  C_5 
REMARK    4  A    between atoms: C_5  and  N_6 
REMARK    5  A    between atoms: C_7  and  N_19 
ROOT
HETATM    1  N   UNL     1     -41.625 -51.480  13.847  1.00  0.00    -0.172 N 
HETATM    2  C   UNL     1     -42.281 -50.489  13.106  1.00  0.00     0.684 A 
HETATM    3  N   UNL     1     -43.445 -50.934  12.671  1.00  0.00    -0.174 N 
ATOM      4  HN  UNL     1     -44.116 -50.434  12.089  1.00  0.00     0.186 HD
HETATM    5  C   UNL     1     -43.565 -52.201  13.162  1.00  0.00     0.160 A 
HETATM    6  N   UNL     1     -44.650 -53.046  12.994  1.00  0.00    -0.287 N 
HETATM    7  C   UNL     1     -45.840 -52.678  12.268  1.00  0.00     0.163 C 
HETATM    8  C   UNL     1     -44.624 -54.312  13.560  1.00  0.00     0.330 C 
HETATM    9  O   UNL     1     -45.532 -55.136  13.457  1.00  0.00    -0.246 OA
HETATM   10  N   UNL     1     -43.503 -54.657  14.265  1.00  0.00    -0.273 N 
HETATM   11  C   UNL     1     -42.358 -53.923  14.390  1.00  0.00     0.280 C 
HETATM   12  O   UNL     1     -41.387 -54.472  14.904  1.00  0.00    -0.265 OA
HETATM   13  C   UNL     1     -42.447 -52.594  13.852  1.00  0.00     0.164 A 
HETATM   14  H   UNL     1     -43.469 -55.599  14.623  1.00  0.00     0.173 HD
ENDROOT
BRANCH   1  15
HETATM   15  C   UNL     1     -40.286 -51.287  14.397  1.00  0.00     0.174 C 
BRANCH  15  16
HETATM   16  C   UNL     1     -39.186 -52.038  13.693  1.00  0.00     0.188 C 
BRANCH  16  17
HETATM   17  O   UNL     1     -38.868 -51.538  12.399  1.00  0.00    -0.390 OA
BRANCH  17  18
HETATM   18  C   UNL     1     -37.617 -50.843  12.509  1.00  0.00     0.163 C 
HETATM   19  C   UNL     1     -37.490 -49.872  11.361  1.00  0.00     0.033 C 
ENDBRANCH  17  18
ENDBRANCH  16  17
ENDBRANCH  15  16
ENDBRANCH   1  15
BRANCH   2  20
HETATM   20  N   UNL     1     -41.698 -49.278  12.869  1.00  0.00    -0.217 N 
HETATM   21  C   UNL     1     -41.146 -48.996  11.537  1.00  0.00     0.141 C 
HETATM   22  C   UNL     1     -41.300 -47.487  11.334  1.00  0.00     0.022 C 
HETATM   23  C   UNL     1     -42.438 -47.100  12.255  1.00  0.00     0.022 C 
HETATM   24  C   UNL     1     -42.300 -48.063  13.424  1.00  0.00     0.141 C 
ENDBRANCH   2  20
TORSDOF 5
ENDMDL
MODEL 8
REMARK VINA RESULT:      -5.1      2.096      2.915
REMARK  5 active torsions:
REMARK  status: ('A' for Active; 'I' for Inactive)
REMARK    1  A    between atoms: C_2  and  O_3 
REMARK    2  A    between atoms: O_3  and  C_4 
REMARK    3  A    between atoms: C_4  and  C_5 
REMARK    4  A    between atoms: C_5  and  N_6 
REMARK    5  A    between atoms: C_7  and  N_19 
ROOT
HETATM    1  N   UNL     1     -40.325 -47.661  11.855  1.00  0.00    -0.172 N 
HETATM    2  C   UNL     1     -40.403 -48.869  11.149  1.00  0.00     0.684 A 
HETATM    3  N   UNL     1     -41.345 -48.803  10.228  1.00  0.00    -0.174 N 
ATOM      4  HN  UNL     1     -41.634 -49.543   9.588  1.00  0.00     0.186 HD
HETATM    5  C   UNL     1     -41.854 -47.539  10.306  1.00  0.00     0.160 A 
HETATM    6  N   UNL     1     -42.843 -47.001   9.498  1.00  0.00    -0.287 N 
HETATM    7  C   UNL     1     -43.474 -47.726   8.423  1.00  0.00     0.163 C 
HETATM    8  C   UNL     1     -43.254 -45.693   9.701  1.00  0.00     0.330 C 
HETATM    9  O   UNL     1     -44.131 -45.132   9.045  1.00  0.00    -0.246 OA
HETATM   10  N   UNL     1     -42.644 -44.997  10.709  1.00  0.00    -0.273 N 
HETATM   11  C   UNL     1     -41.739 -45.485  11.609  1.00  0.00     0.280 C 
HETATM   12  O   UNL     1     -41.440 -44.766  12.558  1.00  0.00    -0.265 OA
HETATM   13  C   UNL     1     -41.287 -46.819  11.326  1.00  0.00     0.164 A 
HETATM   14  H   UNL     1     -42.990 -44.066  10.886  1.00  0.00     0.173 HD
ENDROOT
BRANCH   1  15
HETATM   15  C   UNL     1     -39.411 -47.471  12.979  1.00  0.00     0.174 C 
BRANCH  15  16
HETATM   16  C   UNL     1     -40.042 -47.564  14.343  1.00  0.00     0.188 C 
BRANCH  16  17
HETATM   17  O   UNL     1     -39.163 -48.019  15.367  1.00  0.00    -0.390 OA
BRANCH  17  18
HETATM   18  C   UNL     1     -37.832 -47.646  14.978  1.00  0.00     0.163 C 
HETATM   19  C   UNL     1     -36.847 -48.585  15.630  1.00  0.00     0.033 C 
ENDBRANCH  17  18
ENDBRANCH  16  17
ENDBRANCH  15  16
ENDBRANCH   1  15
BRANCH   2  20
HETATM   20  N   UNL     1     -39.614 -49.933  11.475  1.00  0.00    -0.217 N 
HETATM   21  C   UNL     1     -38.158 -49.750  11.551  1.00  0.00     0.141 C 
HETATM   22  C   UNL     1     -37.669 -50.740  12.610  1.00  0.00     0.022 C 
HETATM   23  C   UNL     1     -38.883 -50.986  13.482  1.00  0.00     0.022 C 
HETATM   24  C   UNL     1     -40.051 -50.867  12.515  1.00  0.00     0.141 C 
ENDBRANCH   2  20
TORSDOF 5
ENDMDL
MODEL 9
REMARK VINA RESULT:      -5.0      2.815      5.057
REMARK  5 active torsions:
REMARK  status: ('A' for Active; 'I' for Inactive)
REMARK    1  A    between atoms: C_2  and  O_3 
REMARK    2  A    between atoms: O_3  and  C_4 
REMARK    3  A    between atoms: C_4  and  C_5 
REMARK    4  A    between atoms: C_5  and  N_6 
REMARK    5  A    between atoms: C_7  and  N_19 
ROOT
HETATM    1  N   UNL     1     -42.164 -52.503  13.411  1.00  0.00    -0.172 N 
HETATM    2  C   UNL     1     -43.281 -51.705  13.127  1.00  0.00     0.684 A 
HETATM    3  N   UNL     1     -42.907 -50.581  12.547  1.00  0.00    -0.174 N 
ATOM      4  HN  UNL     1     -43.508 -49.810  12.256  1.00  0.00     0.186 HD
HETATM    5  C   UNL     1     -41.551 -50.662  12.417  1.00  0.00     0.160 A 
HETATM    6  N   UNL     1     -40.727 -49.721  11.822  1.00  0.00    -0.287 N 
HETATM    7  C   UNL     1     -41.212 -48.499  11.230  1.00  0.00     0.163 C 
HETATM    8  C   UNL     1     -39.360 -49.949  11.763  1.00  0.00     0.330 C 
HETATM    9  O   UNL     1     -38.548 -49.169  11.267  1.00  0.00    -0.246 OA
HETATM   10  N   UNL     1     -38.900 -51.117  12.308  1.00  0.00    -0.273 N 
HETATM   11  C   UNL     1     -39.631 -52.043  12.997  1.00  0.00     0.280 C 
HETATM   12  O   UNL     1     -39.016 -52.934  13.574  1.00  0.00    -0.265 OA
HETATM   13  C   UNL     1     -41.048 -51.808  12.978  1.00  0.00     0.164 A 
HETATM   14  H   UNL     1     -37.900 -51.247  12.312  1.00  0.00     0.173 HD
ENDROOT
BRANCH   1  15
HETATM   15  C   UNL     1     -42.273 -53.779  14.113  1.00  0.00     0.174 C 
BRANCH  15  16
HETATM   16  C   UNL     1     -41.848 -53.757  15.558  1.00  0.00     0.188 C 
BRANCH  16  17
HETATM   17  O   UNL     1     -41.090 -54.892  15.964  1.00  0.00    -0.390 OA
BRANCH  17  18
HETATM   18  C   UNL     1     -42.022 -55.879  16.431  1.00  0.00     0.163 C 
HETATM   19  C   UNL     1     -42.552 -55.456  17.779  1.00  0.00     0.033 C 
ENDBRANCH  17  18
ENDBRANCH  16  17
ENDBRANCH  15  16
ENDBRANCH   1  15
BRANCH   2  20
HETATM   20  N   UNL     1     -44.539 -52.093  13.488  1.00  0.00    -0.217 N 
HETATM   21  C   UNL     1     -45.266 -51.315  14.501  1.00  0.00     0.141 C 
HETATM   22  C   UNL     1     -46.747 -51.448  14.142  1.00  0.00     0.022 C 
HETATM   23  C   UNL     1     -46.747 -51.762  12.660  1.00  0.00     0.022 C 
HETATM   24  C   UNL     1     -45.471 -52.567  12.463  1.00  0.00     0.141 C 
ENDBRANCH   2  20
TORSDOF 5
ENDMDL
