MODEL 1
REMARK VINA RESULT:      -6.3      0.000      0.000
REMARK  5 active torsions:
REMARK  status: ('A' for Active; 'I' for Inactive)
REMARK    1  A    between atoms: C_5  and  C_6 
REMARK    2  A    between atoms: C_6  and  C_7 
REMARK    3  A    between atoms: C_7  and  N_8 
REMARK       I    between atoms: N_8  and  C_9 
REMARK       I    between atoms: C_9  and  N_11 
REMARK    4  A    between atoms: N_11  and  C_12 
REMARK    5  A    between atoms: C_12  and  C_13 
ROOT
HETATM    1  N   UNL     1     -41.757 -49.647  11.129  1.00  0.00    -0.343 N 
HETATM    2  C   UNL     1     -42.436 -48.468  10.989  1.00  0.00     0.316 C 
HETATM    3  O   UNL     1     -42.946 -47.865  11.925  1.00  0.00    -0.247 OA
HETATM    4  N   UNL     1     -42.474 -48.042   9.694  1.00  0.00    -0.341 N 
HETATM    5  H   UNL     1     -41.193 -49.963  10.355  1.00  0.00     0.164 HD
HETATM    6  H   UNL     1     -42.311 -48.710   8.954  1.00  0.00     0.164 HD
ENDROOT
BRANCH   1   7
HETATM    7  C   UNL     1     -41.523 -50.219  12.445  1.00  0.00     0.131 C 
BRANCH   7   8
HETATM    8  C   UNL     1     -41.453 -51.744  12.398  1.00  0.00     0.084 C 
BRANCH   8   9
HETATM    9  C   UNL     1     -42.787 -52.355  12.685  1.00  0.00     0.053 A 
HETATM   10  N   UNL     1     -43.936 -51.732  12.531  1.00  0.00    -0.357 N 
HETATM   11  C   UNL     1     -44.983 -52.564  12.898  1.00  0.00     0.018 A 
ATOM     12  HN  UNL     1     -44.042 -50.777  12.190  1.00  0.00     0.166 HD
HETATM   13  C   UNL     1     -46.371 -52.037  12.811  1.00  0.00     0.069 C 
HETATM   14  C   UNL     1     -44.603 -53.828  13.318  1.00  0.00     0.003 A 
HETATM   15  S   UNL     1     -42.898 -53.969  13.262  1.00  0.00    -0.080 SA
HETATM   16  C   UNL     1     -45.450 -54.962  13.774  1.00  0.00     0.058 C 
ENDBRANCH   8   9
ENDBRANCH   7   8
ENDBRANCH   1   7
BRANCH   4  17
HETATM   17  C   UNL     1     -43.139 -46.807   9.310  1.00  0.00     0.156 C 
BRANCH  17  18
HETATM   18  C   UNL     1     -44.473 -47.052   8.606  1.00  0.00     0.139 C 
HETATM   19  C   UNL     1     -45.668 -47.291   9.520  1.00  0.00     0.035 C 
HETATM   20  C   UNL     1     -46.504 -48.325   8.790  1.00  0.00     0.029 C 
HETATM   21  C   UNL     1     -45.734 -48.629   7.521  1.00  0.00     0.168 C 
HETATM   22  O   UNL     1     -44.386 -48.227   7.777  1.00  0.00    -0.384 OA
ENDBRANCH  17  18
ENDBRANCH   4  17
TORSDOF 5
ENDMDL
MODEL 2
REMARK VINA RESULT:      -6.0      3.042      6.558
REMARK  5 active torsions:
REMARK  status: ('A' for Active; 'I' for Inactive)
REMARK    1  A    between atoms: C_5  and  C_6 
REMARK    2  A    between atoms: C_6  and  C_7 
REMARK    3  A    between atoms: C_7  and  N_8 
REMARK       I    between atoms: N_8  and  C_9 
REMARK       I    between atoms: C_9  and  N_11 
REMARK    4  A    between atoms: N_11  and  C_12 
REMARK    5  A    between atoms: C_12  and  C_13 
ROOT
HETATM    1  N   UNL     1     -42.001 -51.427  11.818  1.00  0.00    -0.343 N 
HETATM    2  C   UNL     1     -42.593 -52.327  12.660  1.00  0.00     0.316 C 
HETATM    3  O   UNL     1     -42.244 -52.498  13.822  1.00  0.00    -0.247 OA
HETATM    4  N   UNL     1     -43.613 -53.005  12.061  1.00  0.00    -0.341 N 
HETATM    5  H   UNL     1     -42.478 -51.198  10.959  1.00  0.00     0.164 HD
HETATM    6  H   UNL     1     -43.650 -53.042  11.052  1.00  0.00     0.164 HD
ENDROOT
BRANCH   1   7
HETATM    7  C   UNL     1     -40.955 -50.537  12.295  1.00  0.00     0.131 C 
BRANCH   7   8
HETATM    8  C   UNL     1     -40.329 -49.733  11.158  1.00  0.00     0.084 C 
BRANCH   8   9
HETATM    9  C   UNL     1     -41.151 -48.528  10.832  1.00  0.00     0.053 A 
HETATM   10  N   UNL     1     -42.149 -48.522   9.975  1.00  0.00    -0.357 N 
HETATM   11  C   UNL     1     -42.694 -47.250   9.885  1.00  0.00     0.018 A 
ATOM     12  HN  UNL     1     -42.476 -49.335   9.452  1.00  0.00     0.166 HD
HETATM   13  C   UNL     1     -43.830 -47.030   8.951  1.00  0.00     0.069 C 
HETATM   14  C   UNL     1     -42.096 -46.302  10.698  1.00  0.00     0.003 A 
HETATM   15  S   UNL     1     -40.820 -47.021  11.584  1.00  0.00    -0.080 SA
HETATM   16  C   UNL     1     -42.421 -44.860  10.857  1.00  0.00     0.058 C 
ENDBRANCH   8   9
ENDBRANCH   7   8
ENDBRANCH   1   7
BRANCH   4  17
HETATM   17  C   UNL     1     -44.390 -54.010  12.770  1.00  0.00     0.156 C 
BRANCH  17  18
HETATM   18  C   UNL     1     -45.708 -53.459  13.312  1.00  0.00     0.139 C 
HETATM   19  C   UNL     1     -46.022 -52.015  12.947  1.00  0.00     0.035 C 
HETATM   20  C   UNL     1     -46.709 -51.452  14.176  1.00  0.00     0.029 C 
HETATM   21  C   UNL     1     -46.731 -52.594  15.172  1.00  0.00     0.168 C 
HETATM   22  O   UNL     1     -45.704 -53.497  14.752  1.00  0.00    -0.384 OA
ENDBRANCH  17  18
ENDBRANCH   4  17
TORSDOF 5
ENDMDL
MODEL 3
REMARK VINA RESULT:      -5.8      4.024      6.977
REMARK  5 active torsions:
REMARK  status: ('A' for Active; 'I' for Inactive)
REMARK    1  A    between atoms: C_5  and  C_6 
REMARK    2  A    between atoms: C_6  and  C_7 
REMARK    3  A    between atoms: C_7  and  N_8 
REMARK       I    between atoms: N_8  and  C_9 
REMARK       I    between atoms: C_9  and  N_11 
REMARK    4  A    between atoms: N_11  and  C_12 
REMARK    5  A    between atoms: C_12  and  C_13 
ROOT
HETATM    1  N   UNL     1     -41.960 -51.379  11.778  1.00  0.00    -0.343 N 
HETATM    2  C   UNL     1     -42.501 -52.347  12.578  1.00  0.00     0.316 C 
HETATM    3  O   UNL     1     -42.047 -52.651  13.675  1.00  0.00    -0.247 OA
HETATM    4  N   UNL     1     -43.600 -52.929  12.018  1.00  0.00    -0.341 N 
HETATM    5  H   UNL     1     -42.510 -51.046  11.000  1.00  0.00     0.164 HD
HETATM    6  H   UNL     1     -43.736 -52.857  11.019  1.00  0.00     0.164 HD
ENDROOT
BRANCH   1   7
HETATM    7  C   UNL     1     -40.839 -50.575  12.236  1.00  0.00     0.131 C 
BRANCH   7   8
HETATM    8  C   UNL     1     -40.238 -49.740  11.107  1.00  0.00     0.084 C 
BRANCH   8   9
HETATM    9  C   UNL     1     -40.087 -48.310  11.514  1.00  0.00     0.053 A 
HETATM   10  N   UNL     1     -40.245 -47.287  10.701  1.00  0.00    -0.357 N 
HETATM   11  C   UNL     1     -40.020 -46.099  11.379  1.00  0.00     0.018 A 
ATOM     12  HN  UNL     1     -40.498 -47.358   9.716  1.00  0.00     0.166 HD
HETATM   13  C   UNL     1     -40.134 -44.821  10.626  1.00  0.00     0.069 C 
HETATM   14  C   UNL     1     -39.702 -46.243  12.719  1.00  0.00     0.003 A 
HETATM   15  S   UNL     1     -39.675 -47.905  13.132  1.00  0.00    -0.080 SA
HETATM   16  C   UNL     1     -39.406 -45.198  13.734  1.00  0.00     0.058 C 
ENDBRANCH   8   9
ENDBRANCH   7   8
ENDBRANCH   1   7
BRANCH   4  17
HETATM   17  C   UNL     1     -44.341 -53.982  12.694  1.00  0.00     0.156 C 
BRANCH  17  18
HETATM   18  C   UNL     1     -45.600 -53.461  13.389  1.00  0.00     0.139 C 
HETATM   19  C   UNL     1     -46.147 -52.142  12.863  1.00  0.00     0.035 C 
HETATM   20  C   UNL     1     -46.668 -51.429  14.097  1.00  0.00     0.029 C 
HETATM   21  C   UNL     1     -46.373 -52.367  15.248  1.00  0.00     0.168 C 
HETATM   22  O   UNL     1     -45.335 -53.236  14.787  1.00  0.00    -0.384 OA
ENDBRANCH  17  18
ENDBRANCH   4  17
TORSDOF 5
ENDMDL
MODEL 4
REMARK VINA RESULT:      -5.8      3.954      7.562
REMARK  5 active torsions:
REMARK  status: ('A' for Active; 'I' for Inactive)
REMARK    1  A    between atoms: C_5  and  C_6 
REMARK    2  A    between atoms: C_6  and  C_7 
REMARK    3  A    between atoms: C_7  and  N_8 
REMARK       I    between atoms: N_8  and  C_9 
REMARK       I    between atoms: C_9  and  N_11 
REMARK    4  A    between atoms: N_11  and  C_12 
REMARK    5  A    between atoms: C_12  and  C_13 
ROOT
HETATM    1  N   UNL     1     -40.636 -51.189  11.247  1.00  0.00    -0.343 N 
HETATM    2  C   UNL     1     -40.876 -51.942  12.364  1.00  0.00     0.316 C 
HETATM    3  O   UNL     1     -40.588 -51.581  13.499  1.00  0.00    -0.247 OA
HETATM    4  N   UNL     1     -41.474 -53.131  12.069  1.00  0.00    -0.341 N 
HETATM    5  H   UNL     1     -41.090 -51.459  10.388  1.00  0.00     0.164 HD
HETATM    6  H   UNL     1     -41.407 -53.493  11.128  1.00  0.00     0.164 HD
ENDROOT
BRANCH   1   7
HETATM    7  C   UNL     1     -40.091 -49.846  11.358  1.00  0.00     0.131 C 
BRANCH   7   8
HETATM    8  C   UNL     1     -41.189 -48.787  11.395  1.00  0.00     0.084 C 
BRANCH   8   9
HETATM    9  C   UNL     1     -40.611 -47.410  11.457  1.00  0.00     0.053 A 
HETATM   10  N   UNL     1     -40.311 -46.684  10.401  1.00  0.00    -0.357 N 
HETATM   11  C   UNL     1     -39.778 -45.466  10.795  1.00  0.00     0.018 A 
ATOM     12  HN  UNL     1     -40.451 -46.974   9.433  1.00  0.00     0.166 HD
HETATM   13  C   UNL     1     -39.358 -44.503   9.742  1.00  0.00     0.069 C 
HETATM   14  C   UNL     1     -39.694 -45.282  12.164  1.00  0.00     0.003 A 
HETATM   15  S   UNL     1     -40.285 -46.671  12.972  1.00  0.00    -0.080 SA
HETATM   16  C   UNL     1     -39.184 -44.112  12.927  1.00  0.00     0.058 C 
ENDBRANCH   8   9
ENDBRANCH   7   8
ENDBRANCH   1   7
BRANCH   4  17
HETATM   17  C   UNL     1     -41.828 -54.091  13.103  1.00  0.00     0.156 C 
BRANCH  17  18
HETATM   18  C   UNL     1     -43.224 -53.849  13.677  1.00  0.00     0.139 C 
HETATM   19  C   UNL     1     -43.861 -55.034  14.389  1.00  0.00     0.035 C 
HETATM   20  C   UNL     1     -45.335 -54.937  14.044  1.00  0.00     0.029 C 
HETATM   21  C   UNL     1     -45.450 -53.722  13.147  1.00  0.00     0.168 C 
HETATM   22  O   UNL     1     -44.139 -53.500  12.620  1.00  0.00    -0.384 OA
ENDBRANCH  17  18
ENDBRANCH   4  17
TORSDOF 5
ENDMDL
MODEL 5
REMARK VINA RESULT:      -5.4      4.298      7.016
REMARK  5 active torsions:
REMARK  status: ('A' for Active; 'I' for Inactive)
REMARK    1  A    between atoms: C_5  and  C_6 
REMARK    2  A    between atoms: C_6  and  C_7 
REMARK    3  A    between atoms: C_7  and  N_8 
REMARK       I    between atoms: N_8  and  C_9 
REMARK       I    between atoms: C_9  and  N_11 
REMARK    4  A    between atoms: N_11  and  C_12 
REMARK    5  A    between atoms: C_12  and  C_13 
ROOT
HETATM    1  N   UNL     1     -41.247 -51.544  11.574  1.00  0.00    -0.343 N 
HETATM    2  C   UNL     1     -41.903 -52.417  12.398  1.00  0.00     0.316 C 
HETATM    3  O   UNL     1     -41.457 -52.800  13.472  1.00  0.00    -0.247 OA
HETATM    4  N   UNL     1     -43.108 -52.805  11.889  1.00  0.00    -0.341 N 
HETATM    5  H   UNL     1     -41.769 -51.120  10.823  1.00  0.00     0.164 HD
HETATM    6  H   UNL     1     -43.275 -52.703  10.897  1.00  0.00     0.164 HD
ENDROOT
BRANCH   1   7
HETATM    7  C   UNL     1     -39.989 -50.940  11.981  1.00  0.00     0.131 C 
BRANCH   7   8
HETATM    8  C   UNL     1     -39.830 -49.527  11.424  1.00  0.00     0.084 C 
BRANCH   8   9
HETATM    9  C   UNL     1     -39.343 -48.583  12.476  1.00  0.00     0.053 A 
HETATM   10  N   UNL     1     -38.267 -48.781  13.208  1.00  0.00    -0.357 N 
HETATM   11  C   UNL     1     -38.098 -47.734  14.101  1.00  0.00     0.018 A 
ATOM     12  HN  UNL     1     -37.646 -49.586  13.129  1.00  0.00     0.166 HD
HETATM   13  C   UNL     1     -36.940 -47.777  15.033  1.00  0.00     0.069 C 
HETATM   14  C   UNL     1     -39.057 -46.739  14.020  1.00  0.00     0.003 A 
HETATM   15  S   UNL     1     -40.199 -47.132  12.807  1.00  0.00    -0.080 SA
HETATM   16  C   UNL     1     -39.183 -45.486  14.812  1.00  0.00     0.058 C 
ENDBRANCH   8   9
ENDBRANCH   7   8
ENDBRANCH   1   7
BRANCH   4  17
HETATM   17  C   UNL     1     -43.981 -53.727  12.597  1.00  0.00     0.156 C 
BRANCH  17  18
HETATM   18  C   UNL     1     -45.355 -53.125  12.892  1.00  0.00     0.139 C 
HETATM   19  C   UNL     1     -45.377 -51.627  13.160  1.00  0.00     0.035 C 
HETATM   20  C   UNL     1     -46.440 -51.448  14.227  1.00  0.00     0.029 C 
HETATM   21  C   UNL     1     -46.946 -52.845  14.518  1.00  0.00     0.168 C 
HETATM   22  O   UNL     1     -45.918 -53.733  14.071  1.00  0.00    -0.384 OA
ENDBRANCH  17  18
ENDBRANCH   4  17
TORSDOF 5
ENDMDL
MODEL 6
REMARK VINA RESULT:      -5.3      2.779      3.666
REMARK  5 active torsions:
REMARK  status: ('A' for Active; 'I' for Inactive)
REMARK    1  A    between atoms: C_5  and  C_6 
REMARK    2  A    between atoms: C_6  and  C_7 
REMARK    3  A    between atoms: C_7  and  N_8 
REMARK       I    between atoms: N_8  and  C_9 
REMARK       I    between atoms: C_9  and  N_11 
REMARK    4  A    between atoms: N_11  and  C_12 
REMARK    5  A    between atoms: C_12  and  C_13 
ROOT
HETATM    1  N   UNL     1     -41.007 -52.178  12.269  1.00  0.00    -0.343 N 
HETATM    2  C   UNL     1     -40.512 -50.931  12.534  1.00  0.00     0.316 C 
HETATM    3  O   UNL     1     -40.469 -50.444  13.657  1.00  0.00    -0.247 OA
HETATM    4  N   UNL     1     -40.069 -50.298  11.409  1.00  0.00    -0.341 N 
HETATM    5  H   UNL     1     -40.812 -52.582  11.366  1.00  0.00     0.164 HD
HETATM    6  H   UNL     1     -40.403 -50.612  10.509  1.00  0.00     0.164 HD
ENDROOT
BRANCH   1   7
HETATM    7  C   UNL     1     -41.440 -53.051  13.347  1.00  0.00     0.131 C 
BRANCH   7   8
HETATM    8  C   UNL     1     -42.625 -53.921  12.934  1.00  0.00     0.084 C 
BRANCH   8   9
HETATM    9  C   UNL     1     -43.921 -53.212  13.160  1.00  0.00     0.053 A 
HETATM   10  N   UNL     1     -44.745 -52.849  12.199  1.00  0.00    -0.357 N 
HETATM   11  C   UNL     1     -45.846 -52.199  12.735  1.00  0.00     0.018 A 
ATOM     12  HN  UNL     1     -44.596 -53.022  11.205  1.00  0.00     0.166 HD
HETATM   13  C   UNL     1     -46.892 -51.693  11.806  1.00  0.00     0.069 C 
HETATM   14  C   UNL     1     -45.843 -52.089  14.115  1.00  0.00     0.003 A 
HETATM   15  S   UNL     1     -44.425 -52.807  14.751  1.00  0.00    -0.080 SA
HETATM   16  C   UNL     1     -46.852 -51.464  15.012  1.00  0.00     0.058 C 
ENDBRANCH   8   9
ENDBRANCH   7   8
ENDBRANCH   1   7
BRANCH   4  17
HETATM   17  C   UNL     1     -39.497 -48.962  11.454  1.00  0.00     0.156 C 
BRANCH  17  18
HETATM   18  C   UNL     1     -40.563 -47.866  11.464  1.00  0.00     0.139 C 
HETATM   19  C   UNL     1     -41.794 -48.134  10.609  1.00  0.00     0.035 C 
HETATM   20  C   UNL     1     -42.169 -46.776  10.048  1.00  0.00     0.029 C 
HETATM   21  C   UNL     1     -41.128 -45.822  10.595  1.00  0.00     0.168 C 
HETATM   22  O   UNL     1     -40.009 -46.635  10.962  1.00  0.00    -0.384 OA
ENDBRANCH  17  18
ENDBRANCH   4  17
TORSDOF 5
ENDMDL
MODEL 7
REMARK VINA RESULT:      -5.3      1.906      2.392
REMARK  5 active torsions:
REMARK  status: ('A' for Active; 'I' for Inactive)
REMARK    1  A    between atoms: C_5  and  C_6 
REMARK    2  A    between atoms: C_6  and  C_7 
REMARK    3  A    between atoms: C_7  and  N_8 
REMARK       I    between atoms: N_8  and  C_9 
REMARK       I    between atoms: C_9  and  N_11 
REMARK    4  A    between atoms: N_11  and  C_12 
REMARK    5  A    between atoms: C_12  and  C_13 
ROOT
HETATM    1  N   UNL     1     -41.496 -51.627  11.897  1.00  0.00    -0.343 N 
HETATM    2  C   UNL     1     -41.028 -50.343  11.840  1.00  0.00     0.316 C 
HETATM    3  O   UNL     1     -40.100 -49.930  12.524  1.00  0.00    -0.247 OA
HETATM    4  N   UNL     1     -41.707 -49.583  10.934  1.00  0.00    -0.341 N 
HETATM    5  H   UNL     1     -42.109 -51.940  11.160  1.00  0.00     0.164 HD
HETATM    6  H   UNL     1     -42.626 -49.880  10.637  1.00  0.00     0.164 HD
ENDROOT
BRANCH   1   7
HETATM    7  C   UNL     1     -40.842 -52.621  12.732  1.00  0.00     0.131 C 
BRANCH   7   8
HETATM    8  C   UNL     1     -41.732 -53.840  12.969  1.00  0.00     0.084 C 
BRANCH   8   9
HETATM    9  C   UNL     1     -42.991 -53.459  13.679  1.00  0.00     0.053 A 
HETATM   10  N   UNL     1     -43.044 -52.642  14.709  1.00  0.00    -0.357 N 
HETATM   11  C   UNL     1     -44.352 -52.510  15.147  1.00  0.00     0.018 A 
ATOM     12  HN  UNL     1     -42.238 -52.174  15.125  1.00  0.00     0.166 HD
HETATM   13  C   UNL     1     -44.622 -51.636  16.320  1.00  0.00     0.069 C 
HETATM   14  C   UNL     1     -45.285 -53.230  14.422  1.00  0.00     0.003 A 
HETATM   15  S   UNL     1     -44.502 -54.100  13.172  1.00  0.00    -0.080 SA
HETATM   16  C   UNL     1     -46.758 -53.318  14.607  1.00  0.00     0.058 C 
ENDBRANCH   8   9
ENDBRANCH   7   8
ENDBRANCH   1   7
BRANCH   4  17
HETATM   17  C   UNL     1     -41.377 -48.186  10.701  1.00  0.00     0.156 C 
BRANCH  17  18
HETATM   18  C   UNL     1     -42.523 -47.412  10.049  1.00  0.00     0.139 C 
HETATM   19  C   UNL     1     -43.861 -47.478  10.773  1.00  0.00     0.035 C 
HETATM   20  C   UNL     1     -44.893 -47.509   9.661  1.00  0.00     0.029 C 
HETATM   21  C   UNL     1     -44.089 -47.478   8.377  1.00  0.00     0.168 C 
HETATM   22  O   UNL     1     -42.777 -47.926   8.727  1.00  0.00    -0.384 OA
ENDBRANCH  17  18
ENDBRANCH   4  17
TORSDOF 5
ENDMDL
MODEL 8
REMARK VINA RESULT:      -5.2      3.723      5.330
REMARK  5 active torsions:
REMARK  status: ('A' for Active; 'I' for Inactive)
REMARK    1  A    between atoms: C_5  and  C_6 
REMARK    2  A    between atoms: C_6  and  C_7 
REMARK    3  A    between atoms: C_7  and  N_8 
REMARK       I    between atoms: N_8  and  C_9 
REMARK       I    between atoms: C_9  and  N_11 
REMARK    4  A    between atoms: N_11  and  C_12 
REMARK    5  A    between atoms: C_12  and  C_13 
ROOT
HETATM    1  N   UNL     1     -41.675 -52.809  11.907  1.00  0.00    -0.343 N 
HETATM    2  C   UNL     1     -41.550 -51.464  12.120  1.00  0.00     0.316 C 
HETATM    3  O   UNL     1     -42.021 -50.886  13.092  1.00  0.00    -0.247 OA
HETATM    4  N   UNL     1     -40.840 -50.846  11.133  1.00  0.00    -0.341 N 
HETATM    5  H   UNL     1     -41.086 -53.234  11.207  1.00  0.00     0.164 HD
HETATM    6  H   UNL     1     -40.749 -51.303  10.236  1.00  0.00     0.164 HD
ENDROOT
BRANCH   1   7
HETATM    7  C   UNL     1     -42.316 -53.663  12.894  1.00  0.00     0.131 C 
BRANCH   7   8
HETATM    8  C   UNL     1     -43.798 -53.871  12.590  1.00  0.00     0.084 C 
BRANCH   8   9
HETATM    9  C   UNL     1     -44.650 -53.435  13.738  1.00  0.00     0.053 A 
HETATM   10  N   UNL     1     -44.715 -54.062  14.893  1.00  0.00    -0.357 N 
HETATM   11  C   UNL     1     -45.607 -53.417  15.737  1.00  0.00     0.018 A 
ATOM     12  HN  UNL     1     -44.186 -54.900  15.134  1.00  0.00     0.166 HD
HETATM   13  C   UNL     1     -45.835 -53.983  17.093  1.00  0.00     0.069 C 
HETATM   14  C   UNL     1     -46.202 -52.287  15.202  1.00  0.00     0.003 A 
HETATM   15  S   UNL     1     -45.638 -52.037  13.605  1.00  0.00    -0.080 SA
HETATM   16  C   UNL     1     -47.190 -51.362  15.818  1.00  0.00     0.058 C 
ENDBRANCH   8   9
ENDBRANCH   7   8
ENDBRANCH   1   7
BRANCH   4  17
HETATM   17  C   UNL     1     -40.578 -49.416  11.155  1.00  0.00     0.156 C 
BRANCH  17  18
HETATM   18  C   UNL     1     -39.246 -49.073  11.821  1.00  0.00     0.139 C 
HETATM   19  C   UNL     1     -38.193 -50.172  11.798  1.00  0.00     0.035 C 
HETATM   20  C   UNL     1     -37.479 -50.042  13.130  1.00  0.00     0.029 C 
HETATM   21  C   UNL     1     -38.173 -48.897  13.839  1.00  0.00     0.168 C 
HETATM   22  O   UNL     1     -39.454 -48.771  13.215  1.00  0.00    -0.384 OA
ENDBRANCH  17  18
ENDBRANCH   4  17
TORSDOF 5
ENDMDL
MODEL 9
REMARK VINA RESULT:      -5.1      4.302      6.601
REMARK  5 active torsions:
REMARK  status: ('A' for Active; 'I' for Inactive)
REMARK    1  A    between atoms: C_5  and  C_6 
REMARK    2  A    between atoms: C_6  and  C_7 
REMARK    3  A    between atoms: C_7  and  N_8 
REMARK       I    between atoms: N_8  and  C_9 
REMARK       I    between atoms: C_9  and  N_11 
REMARK    4  A    between atoms: N_11  and  C_12 
REMARK    5  A    between atoms: C_12  and  C_13 
ROOT
HETATM    1  N   UNL     1     -41.385 -51.195  11.347  1.00  0.00    -0.343 N 
HETATM    2  C   UNL     1     -41.782 -52.250  12.121  1.00  0.00     0.316 C 
HETATM    3  O   UNL     1     -41.067 -52.779  12.964  1.00  0.00    -0.247 OA
HETATM    4  N   UNL     1     -43.061 -52.639  11.851  1.00  0.00    -0.341 N 
HETATM    5  H   UNL     1     -42.093 -50.688  10.839  1.00  0.00     0.164 HD
HETATM    6  H   UNL     1     -43.475 -52.378  10.967  1.00  0.00     0.164 HD
ENDROOT
BRANCH   1   7
HETATM    7  C   UNL     1     -40.088 -50.571  11.549  1.00  0.00     0.131 C 
BRANCH   7   8
HETATM    8  C   UNL     1     -40.140 -49.479  12.615  1.00  0.00     0.084 C 
BRANCH   8   9
HETATM    9  C   UNL     1     -39.198 -49.773  13.737  1.00  0.00     0.053 A 
HETATM   10  N   UNL     1     -39.345 -50.766  14.588  1.00  0.00    -0.357 N 
HETATM   11  C   UNL     1     -38.315 -50.757  15.516  1.00  0.00     0.018 A 
ATOM     12  HN  UNL     1     -40.106 -51.445  14.567  1.00  0.00     0.166 HD
HETATM   13  C   UNL     1     -38.310 -51.797  16.579  1.00  0.00     0.069 C 
HETATM   14  C   UNL     1     -37.383 -49.748  15.342  1.00  0.00     0.003 A 
HETATM   15  S   UNL     1     -37.816 -48.786  13.993  1.00  0.00    -0.080 SA
HETATM   16  C   UNL     1     -36.164 -49.444  16.138  1.00  0.00     0.058 C 
ENDBRANCH   8   9
ENDBRANCH   7   8
ENDBRANCH   1   7
BRANCH   4  17
HETATM   17  C   UNL     1     -43.695 -53.741  12.558  1.00  0.00     0.156 C 
BRANCH  17  18
HETATM   18  C   UNL     1     -44.927 -53.300  13.348  1.00  0.00     0.139 C 
HETATM   19  C   UNL     1     -45.964 -52.506  12.567  1.00  0.00     0.035 C 
HETATM   20  C   UNL     1     -46.492 -51.488  13.560  1.00  0.00     0.029 C 
HETATM   21  C   UNL     1     -45.717 -51.745  14.836  1.00  0.00     0.168 C 
HETATM   22  O   UNL     1     -44.534 -52.445  14.440  1.00  0.00    -0.384 OA
ENDBRANCH  17  18
ENDBRANCH   4  17
TORSDOF 5
ENDMDL
