MODEL 1
REMARK VINA RESULT:      -6.7      0.000      0.000
REMARK  6 active torsions:
REMARK  status: ('A' for Active; 'I' for Inactive)
REMARK    1  A    between atoms: C_6  and  O_7 
REMARK    2  A    between atoms: O_7  and  C_8 
REMARK    3  A    between atoms: C_8  and  C_9 
REMARK    4  A    between atoms: C_9  and  N_10 
REMARK    5  A    between atoms: C_11  and  C_12 
REMARK    6  A    between atoms: C_12  and  O_13 
ROOT
HETATM    1  N   UNL     1     -42.917 -51.045  13.128  1.00  0.00    -0.331 N 
HETATM    2  C   UNL     1     -42.363 -52.032  12.334  1.00  0.00     0.108 A 
HETATM    3  N   UNL     1     -43.217 -53.024  12.163  1.00  0.00    -0.342 N 
ATOM      4  HN  UNL     1     -43.071 -53.870  11.612  1.00  0.00     0.167 HD
HETATM    5  C   UNL     1     -44.338 -52.689  12.875  1.00  0.00     0.060 A 
HETATM    6  C   UNL     1     -45.530 -53.412  13.045  1.00  0.00     0.032 A 
HETATM    7  C   UNL     1     -46.549 -52.867  13.827  1.00  0.00     0.002 A 
HETATM    8  C   UNL     1     -46.391 -51.619  14.427  1.00  0.00     0.002 A 
HETATM    9  C   UNL     1     -45.205 -50.882  14.270  1.00  0.00     0.032 A 
HETATM   10  C   UNL     1     -44.189 -51.448  13.489  1.00  0.00     0.062 A 
ENDROOT
BRANCH   1  11
HETATM   11  C   UNL     1     -42.278 -49.800  13.512  1.00  0.00     0.157 C 
BRANCH  11  12
HETATM   12  C   UNL     1     -42.871 -48.590  12.791  1.00  0.00     0.196 C 
BRANCH  12  13
HETATM   13  O   UNL     1     -42.519 -48.567  11.401  1.00  0.00    -0.350 OA
BRANCH  13  14
HETATM   14  C   UNL     1     -43.241 -47.724  10.601  1.00  0.00     0.069 A 
HETATM   15  C   UNL     1     -42.540 -46.664  10.029  1.00  0.00     0.037 A 
HETATM   16  C   UNL     1     -43.192 -45.770   9.174  1.00  0.00     0.003 A 
HETATM   17  C   UNL     1     -44.540 -45.950   8.863  1.00  0.00     0.007 A 
HETATM   18  C   UNL     1     -45.245 -47.025   9.408  1.00  0.00    -0.059 A 
HETATM   19  C   UNL     1     -46.681 -47.291   9.069  1.00  0.00     0.048 C 
HETATM   20  C   UNL     1     -44.587 -47.894  10.286  1.00  0.00     0.043 A 
ENDBRANCH  13  14
ENDBRANCH  12  13
ENDBRANCH  11  12
ENDBRANCH   1  11
BRANCH   2  21
HETATM   21  C   UNL     1     -40.981 -52.000  11.782  1.00  0.00     0.240 C 
BRANCH  21  22
HETATM   22  O   UNL     1     -40.650 -53.303  11.320  1.00  0.00    -0.393 OA
HETATM   23  H   UNL     1     -39.785 -53.219  10.880  1.00  0.00     0.209 HD
ENDBRANCH  21  22
ENDBRANCH   2  21
TORSDOF 6
ENDMDL
MODEL 2
REMARK VINA RESULT:      -6.4      3.080      4.414
REMARK  6 active torsions:
REMARK  status: ('A' for Active; 'I' for Inactive)
REMARK    1  A    between atoms: C_6  and  O_7 
REMARK    2  A    between atoms: O_7  and  C_8 
REMARK    3  A    between atoms: C_8  and  C_9 
REMARK    4  A    between atoms: C_9  and  N_10 
REMARK    5  A    between atoms: C_11  and  C_12 
REMARK    6  A    between atoms: C_12  and  O_13 
ROOT
HETATM    1  N   UNL     1     -42.737 -52.859  14.215  1.00  0.00    -0.331 N 
HETATM    2  C   UNL     1     -42.462 -53.389  12.969  1.00  0.00     0.108 A 
HETATM    3  N   UNL     1     -43.491 -53.228  12.158  1.00  0.00    -0.342 N 
ATOM      4  HN  UNL     1     -43.552 -53.512  11.181  1.00  0.00     0.167 HD
HETATM    5  C   UNL     1     -44.460 -52.601  12.894  1.00  0.00     0.060 A 
HETATM    6  C   UNL     1     -45.758 -52.223  12.513  1.00  0.00     0.032 A 
HETATM    7  C   UNL     1     -46.583 -51.591  13.444  1.00  0.00     0.002 A 
HETATM    8  C   UNL     1     -46.125 -51.333  14.735  1.00  0.00     0.002 A 
HETATM    9  C   UNL     1     -44.832 -51.706  15.136  1.00  0.00     0.032 A 
HETATM   10  C   UNL     1     -44.020 -52.347  14.190  1.00  0.00     0.062 A 
ENDROOT
BRANCH   1  11
HETATM   11  C   UNL     1     -41.834 -52.838  15.351  1.00  0.00     0.157 C 
BRANCH  11  12
HETATM   12  C   UNL     1     -40.951 -51.591  15.377  1.00  0.00     0.196 C 
BRANCH  12  13
HETATM   13  O   UNL     1     -39.656 -51.838  14.813  1.00  0.00    -0.350 OA
BRANCH  13  14
HETATM   14  C   UNL     1     -39.288 -51.051  13.755  1.00  0.00     0.069 A 
HETATM   15  C   UNL     1     -37.962 -51.151  13.342  1.00  0.00     0.037 A 
HETATM   16  C   UNL     1     -37.507 -50.406  12.250  1.00  0.00     0.003 A 
HETATM   17  C   UNL     1     -38.385 -49.579  11.548  1.00  0.00     0.007 A 
HETATM   18  C   UNL     1     -39.723 -49.493  11.936  1.00  0.00    -0.059 A 
HETATM   19  C   UNL     1     -40.718 -48.657  11.186  1.00  0.00     0.048 C 
HETATM   20  C   UNL     1     -40.157 -50.222  13.048  1.00  0.00     0.043 A 
ENDBRANCH  13  14
ENDBRANCH  12  13
ENDBRANCH  11  12
ENDBRANCH   1  11
BRANCH   2  21
HETATM   21  C   UNL     1     -41.196 -54.083  12.602  1.00  0.00     0.240 C 
BRANCH  21  22
HETATM   22  O   UNL     1     -40.594 -53.383  11.522  1.00  0.00    -0.393 OA
HETATM   23  H   UNL     1     -40.157 -54.060  10.975  1.00  0.00     0.209 HD
ENDBRANCH  21  22
ENDBRANCH   2  21
TORSDOF 6
ENDMDL
MODEL 3
REMARK VINA RESULT:      -6.3      3.446      5.761
REMARK  6 active torsions:
REMARK  status: ('A' for Active; 'I' for Inactive)
REMARK    1  A    between atoms: C_6  and  O_7 
REMARK    2  A    between atoms: O_7  and  C_8 
REMARK    3  A    between atoms: C_8  and  C_9 
REMARK    4  A    between atoms: C_9  and  N_10 
REMARK    5  A    between atoms: C_11  and  C_12 
REMARK    6  A    between atoms: C_12  and  O_13 
ROOT
HETATM    1  N   UNL     1     -41.593 -53.008  14.574  1.00  0.00    -0.331 N 
HETATM    2  C   UNL     1     -40.343 -53.267  14.046  1.00  0.00     0.108 A 
HETATM    3  N   UNL     1     -39.956 -52.278  13.262  1.00  0.00    -0.342 N 
ATOM      4  HN  UNL     1     -39.072 -52.205  12.758  1.00  0.00     0.167 HD
HETATM    5  C   UNL     1     -40.980 -51.369  13.263  1.00  0.00     0.060 A 
HETATM    6  C   UNL     1     -41.085 -50.151  12.571  1.00  0.00     0.032 A 
HETATM    7  C   UNL     1     -42.239 -49.381  12.723  1.00  0.00     0.002 A 
HETATM    8  C   UNL     1     -43.272 -49.811  13.555  1.00  0.00     0.002 A 
HETATM    9  C   UNL     1     -43.186 -51.026  14.253  1.00  0.00     0.032 A 
HETATM   10  C   UNL     1     -42.023 -51.791  14.082  1.00  0.00     0.062 A 
ENDROOT
BRANCH   1  11
HETATM   11  C   UNL     1     -42.326 -53.863  15.490  1.00  0.00     0.157 C 
BRANCH  11  12
HETATM   12  C   UNL     1     -43.247 -54.845  14.767  1.00  0.00     0.196 C 
BRANCH  12  13
HETATM   13  O   UNL     1     -44.576 -54.831  15.306  1.00  0.00    -0.350 OA
BRANCH  13  14
HETATM   14  C   UNL     1     -45.370 -53.775  14.951  1.00  0.00     0.069 A 
HETATM   15  C   UNL     1     -45.826 -52.967  15.990  1.00  0.00     0.037 A 
HETATM   16  C   UNL     1     -46.618 -51.848  15.716  1.00  0.00     0.003 A 
HETATM   17  C   UNL     1     -46.933 -51.515  14.399  1.00  0.00     0.007 A 
HETATM   18  C   UNL     1     -46.457 -52.301  13.347  1.00  0.00    -0.059 A 
HETATM   19  C   UNL     1     -46.726 -51.959  11.912  1.00  0.00     0.048 C 
HETATM   20  C   UNL     1     -45.690 -53.434  13.638  1.00  0.00     0.043 A 
ENDBRANCH  13  14
ENDBRANCH  12  13
ENDBRANCH  11  12
ENDBRANCH   1  11
BRANCH   2  21
HETATM   21  C   UNL     1     -39.557 -54.508  14.293  1.00  0.00     0.240 C 
BRANCH  21  22
HETATM   22  O   UNL     1     -38.585 -54.638  13.265  1.00  0.00    -0.393 OA
HETATM   23  H   UNL     1     -38.216 -55.534  13.358  1.00  0.00     0.209 HD
ENDBRANCH  21  22
ENDBRANCH   2  21
TORSDOF 6
ENDMDL
MODEL 4
REMARK VINA RESULT:      -6.2      1.837      2.795
REMARK  6 active torsions:
REMARK  status: ('A' for Active; 'I' for Inactive)
REMARK    1  A    between atoms: C_6  and  O_7 
REMARK    2  A    between atoms: O_7  and  C_8 
REMARK    3  A    between atoms: C_8  and  C_9 
REMARK    4  A    between atoms: C_9  and  N_10 
REMARK    5  A    between atoms: C_11  and  C_12 
REMARK    6  A    between atoms: C_12  and  O_13 
ROOT
HETATM    1  N   UNL     1     -42.581 -52.207  13.935  1.00  0.00    -0.331 N 
HETATM    2  C   UNL     1     -42.271 -53.090  12.918  1.00  0.00     0.108 A 
HETATM    3  N   UNL     1     -43.355 -53.416  12.239  1.00  0.00    -0.342 N 
ATOM      4  HN  UNL     1     -43.409 -54.037  11.432  1.00  0.00     0.167 HD
HETATM    5  C   UNL     1     -44.392 -52.750  12.835  1.00  0.00     0.060 A 
HETATM    6  C   UNL     1     -45.760 -52.770  12.516  1.00  0.00     0.032 A 
HETATM    7  C   UNL     1     -46.646 -52.005  13.275  1.00  0.00     0.002 A 
HETATM    8  C   UNL     1     -46.180 -51.224  14.332  1.00  0.00     0.002 A 
HETATM    9  C   UNL     1     -44.817 -51.193  14.668  1.00  0.00     0.032 A 
HETATM   10  C   UNL     1     -43.943 -51.975  13.901  1.00  0.00     0.062 A 
ENDROOT
BRANCH   1  11
HETATM   11  C   UNL     1     -41.641 -51.621  14.872  1.00  0.00     0.157 C 
BRANCH  11  12
HETATM   12  C   UNL     1     -41.260 -50.187  14.501  1.00  0.00     0.196 C 
BRANCH  12  13
HETATM   13  O   UNL     1     -40.720 -50.101  13.176  1.00  0.00    -0.350 OA
BRANCH  13  14
HETATM   14  C   UNL     1     -41.168 -49.067  12.399  1.00  0.00     0.069 A 
HETATM   15  C   UNL     1     -42.539 -49.024  12.157  1.00  0.00     0.037 A 
HETATM   16  C   UNL     1     -43.088 -47.986  11.398  1.00  0.00     0.003 A 
HETATM   17  C   UNL     1     -42.271 -46.970  10.902  1.00  0.00     0.007 A 
HETATM   18  C   UNL     1     -40.899 -46.987  11.162  1.00  0.00    -0.059 A 
HETATM   19  C   UNL     1     -39.986 -45.894  10.693  1.00  0.00     0.048 C 
HETATM   20  C   UNL     1     -40.360 -48.048  11.898  1.00  0.00     0.043 A 
ENDBRANCH  13  14
ENDBRANCH  12  13
ENDBRANCH  11  12
ENDBRANCH   1  11
BRANCH   2  21
HETATM   21  C   UNL     1     -40.910 -53.632  12.651  1.00  0.00     0.240 C 
BRANCH  21  22
HETATM   22  O   UNL     1     -40.553 -53.315  11.312  1.00  0.00    -0.393 OA
HETATM   23  H   UNL     1     -40.937 -52.439  11.133  1.00  0.00     0.209 HD
ENDBRANCH  21  22
ENDBRANCH   2  21
TORSDOF 6
ENDMDL
MODEL 5
REMARK VINA RESULT:      -6.1      3.061      4.721
REMARK  6 active torsions:
REMARK  status: ('A' for Active; 'I' for Inactive)
REMARK    1  A    between atoms: C_6  and  O_7 
REMARK    2  A    between atoms: O_7  and  C_8 
REMARK    3  A    between atoms: C_8  and  C_9 
REMARK    4  A    between atoms: C_9  and  N_10 
REMARK    5  A    between atoms: C_11  and  C_12 
REMARK    6  A    between atoms: C_12  and  O_13 
ROOT
HETATM    1  N   UNL     1     -42.972 -51.519  12.929  1.00  0.00    -0.331 N 
HETATM    2  C   UNL     1     -42.228 -52.676  12.796  1.00  0.00     0.108 A 
HETATM    3  N   UNL     1     -42.961 -53.736  13.083  1.00  0.00    -0.342 N 
ATOM      4  HN  UNL     1     -42.667 -54.712  13.053  1.00  0.00     0.167 HD
HETATM    5  C   UNL     1     -44.198 -53.260  13.429  1.00  0.00     0.060 A 
HETATM    6  C   UNL     1     -45.337 -53.970  13.844  1.00  0.00     0.032 A 
HETATM    7  C   UNL     1     -46.501 -53.265  14.154  1.00  0.00     0.002 A 
HETATM    8  C   UNL     1     -46.537 -51.876  14.046  1.00  0.00     0.002 A 
HETATM    9  C   UNL     1     -45.408 -51.148  13.636  1.00  0.00     0.032 A 
HETATM   10  C   UNL     1     -44.244 -51.872  13.338  1.00  0.00     0.062 A 
ENDROOT
BRANCH   1  11
HETATM   11  C   UNL     1     -42.502 -50.169  12.679  1.00  0.00     0.157 C 
BRANCH  11  12
HETATM   12  C   UNL     1     -42.032 -49.466  13.952  1.00  0.00     0.196 C 
BRANCH  12  13
HETATM   13  O   UNL     1     -40.868 -48.659  13.721  1.00  0.00    -0.350 OA
BRANCH  13  14
HETATM   14  C   UNL     1     -39.697 -49.327  13.491  1.00  0.00     0.069 A 
HETATM   15  C   UNL     1     -39.231 -50.134  14.528  1.00  0.00     0.037 A 
HETATM   16  C   UNL     1     -38.057 -50.876  14.369  1.00  0.00     0.003 A 
HETATM   17  C   UNL     1     -37.359 -50.837  13.161  1.00  0.00     0.007 A 
HETATM   18  C   UNL     1     -37.831 -50.055  12.106  1.00  0.00    -0.059 A 
HETATM   19  C   UNL     1     -37.144 -50.016  10.773  1.00  0.00     0.048 C 
HETATM   20  C   UNL     1     -38.991 -49.294  12.290  1.00  0.00     0.043 A 
ENDBRANCH  13  14
ENDBRANCH  12  13
ENDBRANCH  11  12
ENDBRANCH   1  11
BRANCH   2  21
HETATM   21  C   UNL     1     -40.788 -52.721  12.421  1.00  0.00     0.240 C 
BRANCH  21  22
HETATM   22  O   UNL     1     -40.662 -53.429  11.195  1.00  0.00    -0.393 OA
HETATM   23  H   UNL     1     -40.095 -54.197  11.387  1.00  0.00     0.209 HD
ENDBRANCH  21  22
ENDBRANCH   2  21
TORSDOF 6
ENDMDL
MODEL 6
REMARK VINA RESULT:      -6.1      2.067      2.931
REMARK  6 active torsions:
REMARK  status: ('A' for Active; 'I' for Inactive)
REMARK    1  A    between atoms: C_6  and  O_7 
REMARK    2  A    between atoms: O_7  and  C_8 
REMARK    3  A    between atoms: C_8  and  C_9 
REMARK    4  A    between atoms: C_9  and  N_10 
REMARK    5  A    between atoms: C_11  and  C_12 
REMARK    6  A    between atoms: C_12  and  O_13 
ROOT
HETATM    1  N   UNL     1     -41.491 -53.109  12.954  1.00  0.00    -0.331 N 
HETATM    2  C   UNL     1     -40.704 -53.729  13.906  1.00  0.00     0.108 A 
HETATM    3  N   UNL     1     -41.432 -54.533  14.659  1.00  0.00    -0.342 N 
ATOM      4  HN  UNL     1     -41.102 -55.120  15.425  1.00  0.00     0.167 HD
HETATM    5  C   UNL     1     -42.718 -54.420  14.203  1.00  0.00     0.060 A 
HETATM    6  C   UNL     1     -43.884 -55.045  14.675  1.00  0.00     0.032 A 
HETATM    7  C   UNL     1     -45.101 -54.773  14.049  1.00  0.00     0.002 A 
HETATM    8  C   UNL     1     -45.160 -53.898  12.966  1.00  0.00     0.002 A 
HETATM    9  C   UNL     1     -44.005 -53.261  12.482  1.00  0.00     0.032 A 
HETATM   10  C   UNL     1     -42.793 -53.539  13.128  1.00  0.00     0.062 A 
ENDROOT
BRANCH   1  11
HETATM   11  C   UNL     1     -41.031 -52.175  11.944  1.00  0.00     0.157 C 
BRANCH  11  12
HETATM   12  C   UNL     1     -41.013 -50.731  12.446  1.00  0.00     0.196 C 
BRANCH  12  13
HETATM   13  O   UNL     1     -42.141 -49.983  11.970  1.00  0.00    -0.350 OA
BRANCH  13  14
HETATM   14  C   UNL     1     -41.885 -48.723  11.501  1.00  0.00     0.069 A 
HETATM   15  C   UNL     1     -40.613 -48.215  11.754  1.00  0.00     0.037 A 
HETATM   16  C   UNL     1     -40.255 -46.947  11.286  1.00  0.00     0.003 A 
HETATM   17  C   UNL     1     -41.160 -46.193  10.537  1.00  0.00     0.007 A 
HETATM   18  C   UNL     1     -42.428 -46.704  10.254  1.00  0.00    -0.059 A 
HETATM   19  C   UNL     1     -43.419 -45.954   9.414  1.00  0.00     0.048 C 
HETATM   20  C   UNL     1     -42.782 -47.962  10.754  1.00  0.00     0.043 A 
ENDBRANCH  13  14
ENDBRANCH  12  13
ENDBRANCH  11  12
ENDBRANCH   1  11
BRANCH   2  21
HETATM   21  C   UNL     1     -39.245 -53.492  14.086  1.00  0.00     0.240 C 
BRANCH  21  22
HETATM   22  O   UNL     1     -38.534 -54.531  13.428  1.00  0.00    -0.393 OA
HETATM   23  H   UNL     1     -39.114 -55.312  13.457  1.00  0.00     0.209 HD
ENDBRANCH  21  22
ENDBRANCH   2  21
TORSDOF 6
ENDMDL
MODEL 7
REMARK VINA RESULT:      -6.0      3.150      5.902
REMARK  6 active torsions:
REMARK  status: ('A' for Active; 'I' for Inactive)
REMARK    1  A    between atoms: C_6  and  O_7 
REMARK    2  A    between atoms: O_7  and  C_8 
REMARK    3  A    between atoms: C_8  and  C_9 
REMARK    4  A    between atoms: C_9  and  N_10 
REMARK    5  A    between atoms: C_11  and  C_12 
REMARK    6  A    between atoms: C_12  and  O_13 
ROOT
HETATM    1  N   UNL     1     -40.274 -50.626  12.939  1.00  0.00    -0.331 N 
HETATM    2  C   UNL     1     -40.032 -51.951  13.250  1.00  0.00     0.108 A 
HETATM    3  N   UNL     1     -38.972 -52.060  14.029  1.00  0.00    -0.342 N 
ATOM      4  HN  UNL     1     -38.582 -52.918  14.416  1.00  0.00     0.167 HD
HETATM    5  C   UNL     1     -38.503 -50.786  14.212  1.00  0.00     0.060 A 
HETATM    6  C   UNL     1     -37.382 -50.350  14.938  1.00  0.00     0.032 A 
HETATM    7  C   UNL     1     -37.091 -48.987  14.982  1.00  0.00     0.002 A 
HETATM    8  C   UNL     1     -37.904 -48.067  14.322  1.00  0.00     0.002 A 
HETATM    9  C   UNL     1     -39.027 -48.484  13.589  1.00  0.00     0.032 A 
HETATM   10  C   UNL     1     -39.300 -49.858  13.547  1.00  0.00     0.062 A 
ENDROOT
BRANCH   1  11
HETATM   11  C   UNL     1     -41.363 -50.127  12.121  1.00  0.00     0.157 C 
BRANCH  11  12
HETATM   12  C   UNL     1     -42.486 -49.507  12.953  1.00  0.00     0.196 C 
BRANCH  12  13
HETATM   13  O   UNL     1     -42.842 -50.330  14.072  1.00  0.00    -0.350 OA
BRANCH  13  14
HETATM   14  C   UNL     1     -44.139 -50.761  14.127  1.00  0.00     0.069 A 
HETATM   15  C   UNL     1     -44.724 -50.803  15.391  1.00  0.00     0.037 A 
HETATM   16  C   UNL     1     -46.055 -51.202  15.538  1.00  0.00     0.003 A 
HETATM   17  C   UNL     1     -46.818 -51.532  14.417  1.00  0.00     0.007 A 
HETATM   18  C   UNL     1     -46.251 -51.466  13.143  1.00  0.00    -0.059 A 
HETATM   19  C   UNL     1     -47.041 -51.764  11.903  1.00  0.00     0.048 C 
HETATM   20  C   UNL     1     -44.909 -51.093  13.014  1.00  0.00     0.043 A 
ENDBRANCH  13  14
ENDBRANCH  12  13
ENDBRANCH  11  12
ENDBRANCH   1  11
BRANCH   2  21
HETATM   21  C   UNL     1     -40.831 -53.101  12.743  1.00  0.00     0.240 C 
BRANCH  21  22
HETATM   22  O   UNL     1     -40.458 -53.351  11.395  1.00  0.00    -0.393 OA
HETATM   23  H   UNL     1     -40.268 -54.304  11.342  1.00  0.00     0.209 HD
ENDBRANCH  21  22
ENDBRANCH   2  21
TORSDOF 6
ENDMDL
MODEL 8
REMARK VINA RESULT:      -6.0      2.589      6.683
REMARK  6 active torsions:
REMARK  status: ('A' for Active; 'I' for Inactive)
REMARK    1  A    between atoms: C_6  and  O_7 
REMARK    2  A    between atoms: O_7  and  C_8 
REMARK    3  A    between atoms: C_8  and  C_9 
REMARK    4  A    between atoms: C_9  and  N_10 
REMARK    5  A    between atoms: C_11  and  C_12 
REMARK    6  A    between atoms: C_12  and  O_13 
ROOT
HETATM    1  N   UNL     1     -40.328 -49.789  12.493  1.00  0.00    -0.331 N 
HETATM    2  C   UNL     1     -39.105 -49.313  12.060  1.00  0.00     0.108 A 
HETATM    3  N   UNL     1     -39.260 -48.206  11.358  1.00  0.00    -0.342 N 
ATOM      4  HN  UNL     1     -38.524 -47.641  10.934  1.00  0.00     0.167 HD
HETATM    5  C   UNL     1     -40.607 -47.967  11.317  1.00  0.00     0.060 A 
HETATM    6  C   UNL     1     -41.305 -46.929  10.677  1.00  0.00     0.032 A 
HETATM    7  C   UNL     1     -42.697 -46.889  10.769  1.00  0.00     0.002 A 
HETATM    8  C   UNL     1     -43.387 -47.861  11.491  1.00  0.00     0.002 A 
HETATM    9  C   UNL     1     -42.707 -48.908  12.135  1.00  0.00     0.032 A 
HETATM   10  C   UNL     1     -41.310 -48.938  12.026  1.00  0.00     0.062 A 
ENDROOT
BRANCH   1  11
HETATM   11  C   UNL     1     -40.543 -50.973  13.304  1.00  0.00     0.157 C 
BRANCH  11  12
HETATM   12  C   UNL     1     -40.758 -52.230  12.461  1.00  0.00     0.196 C 
BRANCH  12  13
HETATM   13  O   UNL     1     -42.135 -52.407  12.102  1.00  0.00    -0.350 OA
BRANCH  13  14
HETATM   14  C   UNL     1     -42.867 -53.256  12.886  1.00  0.00     0.069 A 
HETATM   15  C   UNL     1     -44.191 -53.465  12.503  1.00  0.00     0.037 A 
HETATM   16  C   UNL     1     -45.004 -54.340  13.229  1.00  0.00     0.003 A 
HETATM   17  C   UNL     1     -44.488 -55.033  14.325  1.00  0.00     0.007 A 
HETATM   18  C   UNL     1     -43.156 -54.853  14.701  1.00  0.00    -0.059 A 
HETATM   19  C   UNL     1     -42.540 -55.610  15.841  1.00  0.00     0.048 C 
HETATM   20  C   UNL     1     -42.362 -53.952  13.983  1.00  0.00     0.043 A 
ENDBRANCH  13  14
ENDBRANCH  12  13
ENDBRANCH  11  12
ENDBRANCH   1  11
BRANCH   2  21
HETATM   21  C   UNL     1     -37.797 -49.979  12.312  1.00  0.00     0.240 C 
BRANCH  21  22
HETATM   22  O   UNL     1     -37.623 -51.010  11.350  1.00  0.00    -0.393 OA
HETATM   23  H   UNL     1     -37.637 -50.572  10.481  1.00  0.00     0.209 HD
ENDBRANCH  21  22
ENDBRANCH   2  21
TORSDOF 6
ENDMDL
MODEL 9
REMARK VINA RESULT:      -5.9      3.649      6.066
REMARK  6 active torsions:
REMARK  status: ('A' for Active; 'I' for Inactive)
REMARK    1  A    between atoms: C_6  and  O_7 
REMARK    2  A    between atoms: O_7  and  C_8 
REMARK    3  A    between atoms: C_8  and  C_9 
REMARK    4  A    between atoms: C_9  and  N_10 
REMARK    5  A    between atoms: C_11  and  C_12 
REMARK    6  A    between atoms: C_12  and  O_13 
ROOT
HETATM    1  N   UNL     1     -40.427 -53.166  13.403  1.00  0.00    -0.331 N 
HETATM    2  C   UNL     1     -39.395 -53.307  14.312  1.00  0.00     0.108 A 
HETATM    3  N   UNL     1     -38.636 -52.228  14.324  1.00  0.00    -0.342 N 
ATOM      4  HN  UNL     1     -37.817 -52.061  14.909  1.00  0.00     0.167 HD
HETATM    5  C   UNL     1     -39.169 -51.376  13.394  1.00  0.00     0.060 A 
HETATM    6  C   UNL     1     -38.726 -50.103  12.999  1.00  0.00     0.032 A 
HETATM    7  C   UNL     1     -39.435 -49.412  12.016  1.00  0.00     0.002 A 
HETATM    8  C   UNL     1     -40.572 -49.973  11.437  1.00  0.00     0.002 A 
HETATM    9  C   UNL     1     -41.030 -51.245  11.817  1.00  0.00     0.032 A 
HETATM   10  C   UNL     1     -40.300 -51.929  12.799  1.00  0.00     0.062 A 
ENDROOT
BRANCH   1  11
HETATM   11  C   UNL     1     -41.466 -54.142  13.134  1.00  0.00     0.157 C 
BRANCH  11  12
HETATM   12  C   UNL     1     -42.618 -54.065  14.135  1.00  0.00     0.196 C 
BRANCH  12  13
HETATM   13  O   UNL     1     -42.866 -52.719  14.565  1.00  0.00    -0.350 OA
BRANCH  13  14
HETATM   14  C   UNL     1     -44.145 -52.256  14.418  1.00  0.00     0.069 A 
HETATM   15  C   UNL     1     -44.617 -52.147  13.111  1.00  0.00     0.037 A 
HETATM   16  C   UNL     1     -45.922 -51.711  12.868  1.00  0.00     0.003 A 
HETATM   17  C   UNL     1     -46.772 -51.409  13.933  1.00  0.00     0.007 A 
HETATM   18  C   UNL     1     -46.320 -51.541  15.247  1.00  0.00    -0.059 A 
HETATM   19  C   UNL     1     -47.208 -51.276  16.426  1.00  0.00     0.048 C 
HETATM   20  C   UNL     1     -45.001 -51.951  15.474  1.00  0.00     0.043 A 
ENDBRANCH  13  14
ENDBRANCH  12  13
ENDBRANCH  11  12
ENDBRANCH   1  11
BRANCH   2  21
HETATM   21  C   UNL     1     -39.148 -54.525  15.133  1.00  0.00     0.240 C 
BRANCH  21  22
HETATM   22  O   UNL     1     -38.486 -55.488  14.325  1.00  0.00    -0.393 OA
HETATM   23  H   UNL     1     -37.930 -56.009  14.930  1.00  0.00     0.209 HD
ENDBRANCH  21  22
ENDBRANCH   2  21
TORSDOF 6
ENDMDL
