MODEL 1
REMARK VINA RESULT:      -6.7      0.000      0.000
REMARK  6 active torsions:
REMARK  status: ('A' for Active; 'I' for Inactive)
REMARK    1  A    between atoms: N_9  and  C_10 
REMARK    2  A    between atoms: C_10  and  C_11 
REMARK    3  A    between atoms: C_11  and  O_12 
REMARK    4  A    between atoms: C_11  and  C_13 
REMARK    5  A    between atoms: C_13  and  O_14 
REMARK    6  A    between atoms: C_15  and  N_19 
ROOT
HETATM    1  C   UNL     1     -41.265 -56.010  17.353  1.00  0.00     0.163 C 
HETATM    2  N   UNL     1     -40.570 -55.479  16.195  1.00  0.00    -0.287 N 
HETATM    3  C   UNL     1     -39.236 -55.804  15.972  1.00  0.00     0.330 C 
HETATM    4  O   UNL     1     -38.569 -56.532  16.706  1.00  0.00    -0.246 OA
HETATM    5  N   UNL     1     -38.626 -55.234  14.876  1.00  0.00    -0.273 N 
HETATM    6  C   UNL     1     -39.104 -54.155  14.174  1.00  0.00     0.280 C 
HETATM    7  O   UNL     1     -38.352 -53.400  13.571  1.00  0.00    -0.265 OA
HETATM    8  C   UNL     1     -40.509 -53.986  14.320  1.00  0.00     0.150 A 
HETATM    9  N   UNL     1     -41.453 -53.270  13.630  1.00  0.00    -0.313 N 
HETATM   10  C   UNL     1     -42.648 -53.405  14.333  1.00  0.00     0.164 A 
HETATM   11  N   UNL     1     -42.508 -54.251  15.338  1.00  0.00    -0.316 N 
ATOM     12  HN  UNL     1     -43.228 -54.564  15.989  1.00  0.00     0.170 HD
HETATM   13  C   UNL     1     -41.200 -54.615  15.318  1.00  0.00     0.146 A 
HETATM   14  H   UNL     1     -37.635 -55.403  14.806  1.00  0.00     0.173 HD
ENDROOT
BRANCH   9  15
HETATM   15  C   UNL     1     -41.303 -52.543  12.379  1.00  0.00     0.166 C 
BRANCH  15  16
HETATM   16  C   UNL     1     -40.519 -51.226  12.409  1.00  0.00     0.160 C 
BRANCH  16  17
HETATM   17  O   UNL     1     -39.177 -51.408  11.946  1.00  0.00    -0.392 OA
HETATM   18  H   UNL     1     -38.828 -50.543  11.659  1.00  0.00     0.210 HD
ENDBRANCH  16  17
BRANCH  16  19
HETATM   19  C   UNL     1     -41.228 -50.152  11.570  1.00  0.00     0.197 C 
BRANCH  19  20
HETATM   20  O   UNL     1     -40.592 -49.980  10.305  1.00  0.00    -0.398 OA
HETATM   21  H   UNL     1     -40.906 -49.142   9.918  1.00  0.00     0.209 HD
ENDBRANCH  19  20
ENDBRANCH  16  19
ENDBRANCH  15  16
ENDBRANCH   9  15
BRANCH  10  22
HETATM   22  N   UNL     1     -43.795 -52.778  13.930  1.00  0.00    -0.254 NA
HETATM   23  C   UNL     1     -44.715 -53.612  13.132  1.00  0.00     0.098 C 
HETATM   24  C   UNL     1     -45.721 -52.711  12.407  1.00  0.00     0.015 C 
HETATM   25  C   UNL     1     -46.466 -51.804  13.385  1.00  0.00     0.002 C 
HETATM   26  C   UNL     1     -45.481 -51.034  14.259  1.00  0.00     0.015 C 
HETATM   27  C   UNL     1     -44.509 -51.987  14.952  1.00  0.00     0.098 C 
ENDBRANCH  10  22
TORSDOF 6
ENDMDL
MODEL 2
REMARK VINA RESULT:      -6.6      2.420      5.543
REMARK  6 active torsions:
REMARK  status: ('A' for Active; 'I' for Inactive)
REMARK    1  A    between atoms: N_9  and  C_10 
REMARK    2  A    between atoms: C_10  and  C_11 
REMARK    3  A    between atoms: C_11  and  O_12 
REMARK    4  A    between atoms: C_11  and  C_13 
REMARK    5  A    between atoms: C_13  and  O_14 
REMARK    6  A    between atoms: C_15  and  N_19 
ROOT
HETATM    1  C   UNL     1     -43.481 -47.674  10.983  1.00  0.00     0.163 C 
HETATM    2  N   UNL     1     -42.328 -48.394  11.491  1.00  0.00    -0.287 N 
HETATM    3  C   UNL     1     -41.047 -47.893  11.286  1.00  0.00     0.330 C 
HETATM    4  O   UNL     1     -40.800 -46.849  10.684  1.00  0.00    -0.246 OA
HETATM    5  N   UNL     1     -39.996 -48.646  11.761  1.00  0.00    -0.273 N 
HETATM    6  C   UNL     1     -40.069 -49.966  12.132  1.00  0.00     0.280 C 
HETATM    7  O   UNL     1     -39.095 -50.705  12.066  1.00  0.00    -0.265 OA
HETATM    8  C   UNL     1     -41.388 -50.362  12.488  1.00  0.00     0.150 A 
HETATM    9  N   UNL     1     -41.904 -51.436  13.165  1.00  0.00    -0.313 N 
HETATM   10  C   UNL     1     -43.291 -51.330  13.084  1.00  0.00     0.164 A 
HETATM   11  N   UNL     1     -43.642 -50.198  12.501  1.00  0.00    -0.316 N 
ATOM     12  HN  UNL     1     -44.586 -49.846  12.347  1.00  0.00     0.170 HD
HETATM   13  C   UNL     1     -42.474 -49.601  12.150  1.00  0.00     0.146 A 
HETATM   14  H   UNL     1     -39.081 -48.311  11.501  1.00  0.00     0.173 HD
ENDROOT
BRANCH   9  15
HETATM   15  C   UNL     1     -41.192 -52.478  13.888  1.00  0.00     0.166 C 
BRANCH  15  16
HETATM   16  C   UNL     1     -40.856 -53.769  13.132  1.00  0.00     0.160 C 
BRANCH  16  17
HETATM   17  O   UNL     1     -40.403 -53.492  11.803  1.00  0.00    -0.392 OA
HETATM   18  H   UNL     1     -39.477 -53.791  11.723  1.00  0.00     0.210 HD
ENDBRANCH  16  17
BRANCH  16  19
HETATM   19  C   UNL     1     -39.800 -54.585  13.893  1.00  0.00     0.197 C 
BRANCH  19  20
HETATM   20  O   UNL     1     -38.507 -54.427  13.312  1.00  0.00    -0.398 OA
HETATM   21  H   UNL     1     -38.121 -55.314  13.185  1.00  0.00     0.209 HD
ENDBRANCH  19  20
ENDBRANCH  16  19
ENDBRANCH  15  16
ENDBRANCH   9  15
BRANCH  10  22
HETATM   22  N   UNL     1     -44.118 -52.272  13.631  1.00  0.00    -0.254 NA
HETATM   23  C   UNL     1     -45.232 -51.733  14.437  1.00  0.00     0.098 C 
HETATM   24  C   UNL     1     -45.813 -52.848  15.312  1.00  0.00     0.015 C 
HETATM   25  C   UNL     1     -46.237 -54.054  14.476  1.00  0.00     0.002 C 
HETATM   26  C   UNL     1     -45.089 -54.518  13.585  1.00  0.00     0.015 C 
HETATM   27  C   UNL     1     -44.557 -53.363  12.739  1.00  0.00     0.098 C 
ENDBRANCH  10  22
TORSDOF 6
ENDMDL
MODEL 3
REMARK VINA RESULT:      -6.1      3.005      5.321
REMARK  6 active torsions:
REMARK  status: ('A' for Active; 'I' for Inactive)
REMARK    1  A    between atoms: N_9  and  C_10 
REMARK    2  A    between atoms: C_10  and  C_11 
REMARK    3  A    between atoms: C_11  and  O_12 
REMARK    4  A    between atoms: C_11  and  C_13 
REMARK    5  A    between atoms: C_13  and  O_14 
REMARK    6  A    between atoms: C_15  and  N_19 
ROOT
HETATM    1  C   UNL     1     -45.909 -51.550  13.297  1.00  0.00     0.163 C 
HETATM    2  N   UNL     1     -44.655 -52.209  12.984  1.00  0.00    -0.287 N 
HETATM    3  C   UNL     1     -44.593 -53.596  12.917  1.00  0.00     0.330 C 
HETATM    4  O   UNL     1     -45.553 -54.343  13.110  1.00  0.00    -0.246 OA
HETATM    5  N   UNL     1     -43.363 -54.158  12.654  1.00  0.00    -0.273 N 
HETATM    6  C   UNL     1     -42.157 -53.510  12.759  1.00  0.00     0.280 C 
HETATM    7  O   UNL     1     -41.123 -54.119  13.004  1.00  0.00    -0.265 OA
HETATM    8  C   UNL     1     -42.283 -52.098  12.652  1.00  0.00     0.150 A 
HETATM    9  N   UNL     1     -41.392 -51.083  12.418  1.00  0.00    -0.313 N 
HETATM   10  C   UNL     1     -42.100 -49.890  12.554  1.00  0.00     0.164 A 
HETATM   11  N   UNL     1     -43.386 -50.128  12.741  1.00  0.00    -0.316 N 
ATOM     12  HN  UNL     1     -44.135 -49.443  12.832  1.00  0.00     0.170 HD
HETATM   13  C   UNL     1     -43.496 -51.480  12.786  1.00  0.00     0.146 A 
HETATM   14  H   UNL     1     -43.331 -55.163  12.720  1.00  0.00     0.173 HD
ENDROOT
BRANCH   9  15
HETATM   15  C   UNL     1     -39.989 -51.177  12.044  1.00  0.00     0.166 C 
BRANCH  15  16
HETATM   16  C   UNL     1     -38.956 -51.290  13.170  1.00  0.00     0.160 C 
BRANCH  16  17
HETATM   17  O   UNL     1     -38.817 -52.643  13.616  1.00  0.00    -0.392 OA
HETATM   18  H   UNL     1     -37.869 -52.876  13.606  1.00  0.00     0.210 HD
ENDBRANCH  16  17
BRANCH  16  19
HETATM   19  C   UNL     1     -37.595 -50.738  12.718  1.00  0.00     0.197 C 
BRANCH  19  20
HETATM   20  O   UNL     1     -36.773 -51.770  12.176  1.00  0.00    -0.398 OA
HETATM   21  H   UNL     1     -36.535 -51.521  11.264  1.00  0.00     0.209 HD
ENDBRANCH  19  20
ENDBRANCH  16  19
ENDBRANCH  15  16
ENDBRANCH   9  15
BRANCH  10  22
HETATM   22  N   UNL     1     -41.492 -48.672  12.419  1.00  0.00    -0.254 NA
HETATM   23  C   UNL     1     -41.763 -47.978  11.145  1.00  0.00     0.098 C 
HETATM   24  C   UNL     1     -40.728 -46.866  10.941  1.00  0.00     0.015 C 
HETATM   25  C   UNL     1     -40.699 -45.904  12.127  1.00  0.00     0.002 C 
HETATM   26  C   UNL     1     -40.516 -46.670  13.434  1.00  0.00     0.015 C 
HETATM   27  C   UNL     1     -41.577 -47.761  13.577  1.00  0.00     0.098 C 
ENDBRANCH  10  22
TORSDOF 6
ENDMDL
MODEL 4
REMARK VINA RESULT:      -5.9      1.951      5.417
REMARK  6 active torsions:
REMARK  status: ('A' for Active; 'I' for Inactive)
REMARK    1  A    between atoms: N_9  and  C_10 
REMARK    2  A    between atoms: C_10  and  C_11 
REMARK    3  A    between atoms: C_11  and  O_12 
REMARK    4  A    between atoms: C_11  and  C_13 
REMARK    5  A    between atoms: C_13  and  O_14 
REMARK    6  A    between atoms: C_15  and  N_19 
ROOT
HETATM    1  C   UNL     1     -45.509 -55.069  13.909  1.00  0.00     0.163 C 
HETATM    2  N   UNL     1     -44.576 -53.994  13.627  1.00  0.00    -0.287 N 
HETATM    3  C   UNL     1     -44.877 -53.045  12.656  1.00  0.00     0.330 C 
HETATM    4  O   UNL     1     -45.910 -53.041  11.988  1.00  0.00    -0.246 OA
HETATM    5  N   UNL     1     -43.929 -52.075  12.412  1.00  0.00    -0.273 N 
HETATM    6  C   UNL     1     -42.615 -52.134  12.802  1.00  0.00     0.280 C 
HETATM    7  O   UNL     1     -41.735 -51.553  12.180  1.00  0.00    -0.265 OA
HETATM    8  C   UNL     1     -42.412 -53.002  13.911  1.00  0.00     0.150 A 
HETATM    9  N   UNL     1     -41.386 -53.172  14.805  1.00  0.00    -0.313 N 
HETATM   10  C   UNL     1     -41.721 -54.272  15.592  1.00  0.00     0.164 A 
HETATM   11  N   UNL     1     -42.937 -54.702  15.304  1.00  0.00    -0.316 N 
ATOM     12  HN  UNL     1     -43.447 -55.463  15.751  1.00  0.00     0.170 HD
HETATM   13  C   UNL     1     -43.361 -53.913  14.284  1.00  0.00     0.146 A 
HETATM   14  H   UNL     1     -44.131 -51.471  11.630  1.00  0.00     0.173 HD
ENDROOT
BRANCH   9  15
HETATM   15  C   UNL     1     -40.190 -52.362  14.977  1.00  0.00     0.166 C 
BRANCH  15  16
HETATM   16  C   UNL     1     -38.944 -52.751  14.175  1.00  0.00     0.160 C 
BRANCH  16  17
HETATM   17  O   UNL     1     -39.231 -53.794  13.238  1.00  0.00    -0.392 OA
HETATM   18  H   UNL     1     -38.798 -53.578  12.391  1.00  0.00     0.210 HD
ENDBRANCH  16  17
BRANCH  16  19
HETATM   19  C   UNL     1     -38.364 -51.529  13.445  1.00  0.00     0.197 C 
BRANCH  19  20
HETATM   20  O   UNL     1     -38.852 -51.445  12.107  1.00  0.00    -0.398 OA
HETATM   21  H   UNL     1     -39.321 -50.596  12.008  1.00  0.00     0.209 HD
ENDBRANCH  19  20
ENDBRANCH  16  19
ENDBRANCH  15  16
ENDBRANCH   9  15
BRANCH  10  22
HETATM   22  N   UNL     1     -40.887 -54.739  16.570  1.00  0.00    -0.254 NA
HETATM   23  C   UNL     1     -41.521 -54.945  17.887  1.00  0.00     0.098 C 
HETATM   24  C   UNL     1     -40.437 -55.056  18.963  1.00  0.00     0.015 C 
HETATM   25  C   UNL     1     -39.428 -56.154  18.631  1.00  0.00     0.002 C 
HETATM   26  C   UNL     1     -38.869 -55.961  17.225  1.00  0.00     0.015 C 
HETATM   27  C   UNL     1     -39.999 -55.859  16.201  1.00  0.00     0.098 C 
ENDBRANCH  10  22
TORSDOF 6
ENDMDL
MODEL 5
REMARK VINA RESULT:      -5.7      2.996      5.841
REMARK  6 active torsions:
REMARK  status: ('A' for Active; 'I' for Inactive)
REMARK    1  A    between atoms: N_9  and  C_10 
REMARK    2  A    between atoms: C_10  and  C_11 
REMARK    3  A    between atoms: C_11  and  O_12 
REMARK    4  A    between atoms: C_11  and  C_13 
REMARK    5  A    between atoms: C_13  and  O_14 
REMARK    6  A    between atoms: C_15  and  N_19 
ROOT
HETATM    1  C   UNL     1     -46.174 -52.918  17.958  1.00  0.00     0.163 C 
HETATM    2  N   UNL     1     -45.805 -52.887  16.555  1.00  0.00    -0.287 N 
HETATM    3  C   UNL     1     -46.643 -52.279  15.627  1.00  0.00     0.330 C 
HETATM    4  O   UNL     1     -47.716 -51.745  15.908  1.00  0.00    -0.246 OA
HETATM    5  N   UNL     1     -46.252 -52.320  14.307  1.00  0.00    -0.273 N 
HETATM    6  C   UNL     1     -45.293 -53.155  13.789  1.00  0.00     0.280 C 
HETATM    7  O   UNL     1     -45.320 -53.513  12.619  1.00  0.00    -0.265 OA
HETATM    8  C   UNL     1     -44.370 -53.605  14.773  1.00  0.00     0.150 A 
HETATM    9  N   UNL     1     -43.132 -54.190  14.713  1.00  0.00    -0.313 N 
HETATM   10  C   UNL     1     -42.780 -54.516  16.022  1.00  0.00     0.164 A 
HETATM   11  N   UNL     1     -43.678 -54.059  16.876  1.00  0.00    -0.316 N 
ATOM     12  HN  UNL     1     -43.653 -54.120  17.893  1.00  0.00     0.170 HD
HETATM   13  C   UNL     1     -44.643 -53.489  16.109  1.00  0.00     0.146 A 
HETATM   14  H   UNL     1     -46.932 -51.968  13.651  1.00  0.00     0.173 HD
ENDROOT
BRANCH   9  15
HETATM   15  C   UNL     1     -42.286 -54.403  13.549  1.00  0.00     0.166 C 
BRANCH  15  16
HETATM   16  C   UNL     1     -41.227 -53.341  13.234  1.00  0.00     0.160 C 
BRANCH  16  17
HETATM   17  O   UNL     1     -40.072 -53.923  12.620  1.00  0.00    -0.392 OA
HETATM   18  H   UNL     1     -39.673 -53.263  12.023  1.00  0.00     0.210 HD
ENDBRANCH  16  17
BRANCH  16  19
HETATM   19  C   UNL     1     -41.810 -52.243  12.330  1.00  0.00     0.197 C 
BRANCH  19  20
HETATM   20  O   UNL     1     -42.758 -52.780  11.410  1.00  0.00    -0.398 OA
HETATM   21  H   UNL     1     -42.368 -53.575  11.001  1.00  0.00     0.209 HD
ENDBRANCH  19  20
ENDBRANCH  16  19
ENDBRANCH  15  16
ENDBRANCH   9  15
BRANCH  10  22
HETATM   22  N   UNL     1     -41.606 -55.154  16.315  1.00  0.00    -0.254 NA
HETATM   23  C   UNL     1     -40.518 -54.274  16.782  1.00  0.00     0.098 C 
HETATM   24  C   UNL     1     -39.181 -55.015  16.674  1.00  0.00     0.015 C 
HETATM   25  C   UNL     1     -39.214 -56.343  17.428  1.00  0.00     0.002 C 
HETATM   26  C   UNL     1     -40.410 -57.181  16.986  1.00  0.00     0.015 C 
HETATM   27  C   UNL     1     -41.708 -56.387  17.120  1.00  0.00     0.098 C 
ENDBRANCH  10  22
TORSDOF 6
ENDMDL
MODEL 6
REMARK VINA RESULT:      -5.7      3.711      5.290
REMARK  6 active torsions:
REMARK  status: ('A' for Active; 'I' for Inactive)
REMARK    1  A    between atoms: N_9  and  C_10 
REMARK    2  A    between atoms: C_10  and  C_11 
REMARK    3  A    between atoms: C_11  and  O_12 
REMARK    4  A    between atoms: C_11  and  C_13 
REMARK    5  A    between atoms: C_13  and  O_14 
REMARK    6  A    between atoms: C_15  and  N_19 
ROOT
HETATM    1  C   UNL     1     -36.344 -50.389  16.581  1.00  0.00     0.163 C 
HETATM    2  N   UNL     1     -37.032 -49.513  15.652  1.00  0.00    -0.287 N 
HETATM    3  C   UNL     1     -36.556 -48.226  15.424  1.00  0.00     0.330 C 
HETATM    4  O   UNL     1     -35.562 -47.748  15.970  1.00  0.00    -0.246 OA
HETATM    5  N   UNL     1     -37.279 -47.433  14.560  1.00  0.00    -0.273 N 
HETATM    6  C   UNL     1     -38.567 -47.675  14.150  1.00  0.00     0.280 C 
HETATM    7  O   UNL     1     -39.315 -46.765  13.818  1.00  0.00    -0.265 OA
HETATM    8  C   UNL     1     -38.926 -49.047  14.257  1.00  0.00     0.150 A 
HETATM    9  N   UNL     1     -39.944 -49.803  13.735  1.00  0.00    -0.313 N 
HETATM   10  C   UNL     1     -39.835 -51.069  14.306  1.00  0.00     0.164 A 
HETATM   11  N   UNL     1     -38.746 -51.155  15.051  1.00  0.00    -0.316 N 
ATOM     12  HN  UNL     1     -38.402 -51.974  15.551  1.00  0.00     0.170 HD
HETATM   13  C   UNL     1     -38.186 -49.920  15.006  1.00  0.00     0.146 A 
HETATM   14  H   UNL     1     -36.971 -46.475  14.503  1.00  0.00     0.173 HD
ENDROOT
BRANCH   9  15
HETATM   15  C   UNL     1     -40.934 -49.425  12.738  1.00  0.00     0.166 C 
BRANCH  15  16
HETATM   16  C   UNL     1     -40.431 -49.040  11.343  1.00  0.00     0.160 C 
BRANCH  16  17
HETATM   17  O   UNL     1     -40.397 -50.173  10.470  1.00  0.00    -0.392 OA
HETATM   18  H   UNL     1     -40.552 -50.977  11.000  1.00  0.00     0.210 HD
ENDBRANCH  16  17
BRANCH  16  19
HETATM   19  C   UNL     1     -41.304 -47.930  10.737  1.00  0.00     0.197 C 
BRANCH  19  20
HETATM   20  O   UNL     1     -41.864 -48.335   9.490  1.00  0.00    -0.398 OA
HETATM   21  H   UNL     1     -42.116 -49.274   9.560  1.00  0.00     0.209 HD
ENDBRANCH  19  20
ENDBRANCH  16  19
ENDBRANCH  15  16
ENDBRANCH   9  15
BRANCH  10  22
HETATM   22  N   UNL     1     -40.727 -52.066  14.024  1.00  0.00    -0.254 NA
HETATM   23  C   UNL     1     -40.122 -53.362  13.658  1.00  0.00     0.098 C 
HETATM   24  C   UNL     1     -41.175 -54.242  12.977  1.00  0.00     0.015 C 
HETATM   25  C   UNL     1     -42.415 -54.412  13.853  1.00  0.00     0.002 C 
HETATM   26  C   UNL     1     -42.952 -53.052  14.291  1.00  0.00     0.015 C 
HETATM   27  C   UNL     1     -41.856 -52.226  14.962  1.00  0.00     0.098 C 
ENDBRANCH  10  22
TORSDOF 6
ENDMDL
MODEL 7
REMARK VINA RESULT:      -5.6      4.717      8.241
REMARK  6 active torsions:
REMARK  status: ('A' for Active; 'I' for Inactive)
REMARK    1  A    between atoms: N_9  and  C_10 
REMARK    2  A    between atoms: C_10  and  C_11 
REMARK    3  A    between atoms: C_11  and  O_12 
REMARK    4  A    between atoms: C_11  and  C_13 
REMARK    5  A    between atoms: C_13  and  O_14 
REMARK    6  A    between atoms: C_15  and  N_19 
ROOT
HETATM    1  C   UNL     1     -40.203 -44.560  12.923  1.00  0.00     0.163 C 
HETATM    2  N   UNL     1     -40.182 -45.834  12.229  1.00  0.00    -0.287 N 
HETATM    3  C   UNL     1     -40.811 -45.967  10.995  1.00  0.00     0.330 C 
HETATM    4  O   UNL     1     -41.410 -45.057  10.422  1.00  0.00    -0.246 OA
HETATM    5  N   UNL     1     -40.786 -47.213  10.410  1.00  0.00    -0.273 N 
HETATM    6  C   UNL     1     -40.479 -48.387  11.053  1.00  0.00     0.280 C 
HETATM    7  O   UNL     1     -40.929 -49.461  10.675  1.00  0.00    -0.265 OA
HETATM    8  C   UNL     1     -39.691 -48.181  12.219  1.00  0.00     0.150 A 
HETATM    9  N   UNL     1     -38.927 -49.006  13.003  1.00  0.00    -0.313 N 
HETATM   10  C   UNL     1     -38.495 -48.242  14.085  1.00  0.00     0.164 A 
HETATM   11  N   UNL     1     -38.856 -46.979  13.940  1.00  0.00    -0.316 N 
ATOM     12  HN  UNL     1     -38.640 -46.199  14.560  1.00  0.00     0.170 HD
HETATM   13  C   UNL     1     -39.575 -46.944  12.790  1.00  0.00     0.146 A 
HETATM   14  H   UNL     1     -41.343 -47.301   9.573  1.00  0.00     0.173 HD
ENDROOT
BRANCH   9  15
HETATM   15  C   UNL     1     -38.562 -50.395  12.770  1.00  0.00     0.166 C 
BRANCH  15  16
HETATM   16  C   UNL     1     -39.616 -51.468  13.065  1.00  0.00     0.160 C 
BRANCH  16  17
HETATM   17  O   UNL     1     -40.117 -52.052  11.858  1.00  0.00    -0.392 OA
HETATM   18  H   UNL     1     -41.078 -51.888  11.810  1.00  0.00     0.210 HD
ENDBRANCH  16  17
BRANCH  16  19
HETATM   19  C   UNL     1     -39.040 -52.559  13.982  1.00  0.00     0.197 C 
BRANCH  19  20
HETATM   20  O   UNL     1     -39.125 -53.845  13.373  1.00  0.00    -0.398 OA
HETATM   21  H   UNL     1     -38.234 -54.239  13.368  1.00  0.00     0.209 HD
ENDBRANCH  19  20
ENDBRANCH  16  19
ENDBRANCH  15  16
ENDBRANCH   9  15
BRANCH  10  22
HETATM   22  N   UNL     1     -37.733 -48.777  15.086  1.00  0.00    -0.254 NA
HETATM   23  C   UNL     1     -36.649 -47.906  15.581  1.00  0.00     0.098 C 
HETATM   24  C   UNL     1     -35.641 -48.746  16.371  1.00  0.00     0.015 C 
HETATM   25  C   UNL     1     -36.318 -49.520  17.500  1.00  0.00     0.002 C 
HETATM   26  C   UNL     1     -37.494 -50.331  16.963  1.00  0.00     0.015 C 
HETATM   27  C   UNL     1     -38.461 -49.437  16.189  1.00  0.00     0.098 C 
ENDBRANCH  10  22
TORSDOF 6
ENDMDL
MODEL 8
REMARK VINA RESULT:      -5.4      3.138      4.376
REMARK  6 active torsions:
REMARK  status: ('A' for Active; 'I' for Inactive)
REMARK    1  A    between atoms: N_9  and  C_10 
REMARK    2  A    between atoms: C_10  and  C_11 
REMARK    3  A    between atoms: C_11  and  O_12 
REMARK    4  A    between atoms: C_11  and  C_13 
REMARK    5  A    between atoms: C_13  and  O_14 
REMARK    6  A    between atoms: C_15  and  N_19 
ROOT
HETATM    1  C   UNL     1     -39.999 -54.486  16.109  1.00  0.00     0.163 C 
HETATM    2  N   UNL     1     -40.946 -54.243  15.036  1.00  0.00    -0.287 N 
HETATM    3  C   UNL     1     -40.517 -54.244  13.713  1.00  0.00     0.330 C 
HETATM    4  O   UNL     1     -39.353 -54.440  13.362  1.00  0.00    -0.246 OA
HETATM    5  N   UNL     1     -41.460 -53.967  12.748  1.00  0.00    -0.273 N 
HETATM    6  C   UNL     1     -42.687 -53.396  12.977  1.00  0.00     0.280 C 
HETATM    7  O   UNL     1     -43.257 -52.736  12.118  1.00  0.00    -0.265 OA
HETATM    8  C   UNL     1     -43.135 -53.582  14.315  1.00  0.00     0.150 A 
HETATM    9  N   UNL     1     -44.353 -53.458  14.931  1.00  0.00    -0.313 N 
HETATM   10  C   UNL     1     -44.133 -53.653  16.293  1.00  0.00     0.164 A 
HETATM   11  N   UNL     1     -42.879 -54.001  16.520  1.00  0.00    -0.316 N 
ATOM     12  HN  UNL     1     -42.456 -54.241  17.416  1.00  0.00     0.170 HD
HETATM   13  C   UNL     1     -42.275 -53.969  15.305  1.00  0.00     0.146 A 
HETATM   14  H   UNL     1     -41.095 -53.868  11.813  1.00  0.00     0.173 HD
ENDROOT
BRANCH   9  15
HETATM   15  C   UNL     1     -45.655 -53.225  14.325  1.00  0.00     0.166 C 
BRANCH  15  16
HETATM   16  C   UNL     1     -46.043 -51.778  14.002  1.00  0.00     0.160 C 
BRANCH  16  17
HETATM   17  O   UNL     1     -44.934 -50.890  14.175  1.00  0.00    -0.392 OA
HETATM   18  H   UNL     1     -44.823 -50.370  13.357  1.00  0.00     0.210 HD
ENDBRANCH  16  17
BRANCH  16  19
HETATM   19  C   UNL     1     -46.590 -51.669  12.570  1.00  0.00     0.197 C 
BRANCH  19  20
HETATM   20  O   UNL     1     -46.178 -52.777  11.772  1.00  0.00    -0.398 OA
HETATM   21  H   UNL     1     -45.845 -52.433  10.923  1.00  0.00     0.209 HD
ENDBRANCH  19  20
ENDBRANCH  16  19
ENDBRANCH  15  16
ENDBRANCH   9  15
BRANCH  10  22
HETATM   22  N   UNL     1     -45.147 -53.560  17.206  1.00  0.00    -0.254 NA
HETATM   23  C   UNL     1     -45.081 -54.533  18.314  1.00  0.00     0.098 C 
HETATM   24  C   UNL     1     -46.444 -54.608  19.009  1.00  0.00     0.015 C 
HETATM   25  C   UNL     1     -46.910 -53.231  19.479  1.00  0.00     0.002 C 
HETATM   26  C   UNL     1     -46.870 -52.231  18.327  1.00  0.00     0.015 C 
HETATM   27  C   UNL     1     -45.486 -52.203  17.680  1.00  0.00     0.098 C 
ENDBRANCH  10  22
TORSDOF 6
ENDMDL
MODEL 9
REMARK VINA RESULT:      -5.3      2.780      5.254
REMARK  6 active torsions:
REMARK  status: ('A' for Active; 'I' for Inactive)
REMARK    1  A    between atoms: N_9  and  C_10 
REMARK    2  A    between atoms: C_10  and  C_11 
REMARK    3  A    between atoms: C_11  and  O_12 
REMARK    4  A    between atoms: C_11  and  C_13 
REMARK    5  A    between atoms: C_13  and  O_14 
REMARK    6  A    between atoms: C_15  and  N_19 
ROOT
HETATM    1  C   UNL     1     -46.579 -51.456  14.317  1.00  0.00     0.163 C 
HETATM    2  N   UNL     1     -45.486 -52.390  14.121  1.00  0.00    -0.287 N 
HETATM    3  C   UNL     1     -45.688 -53.752  14.319  1.00  0.00     0.330 C 
HETATM    4  O   UNL     1     -46.759 -54.250  14.662  1.00  0.00    -0.246 OA
HETATM    5  N   UNL     1     -44.598 -54.578  14.154  1.00  0.00    -0.273 N 
HETATM    6  C   UNL     1     -43.288 -54.166  14.119  1.00  0.00     0.280 C 
HETATM    7  O   UNL     1     -42.376 -54.906  14.463  1.00  0.00    -0.265 OA
HETATM    8  C   UNL     1     -43.154 -52.800  13.746  1.00  0.00     0.150 A 
HETATM    9  N   UNL     1     -42.101 -52.037  13.312  1.00  0.00    -0.313 N 
HETATM   10  C   UNL     1     -42.567 -50.726  13.227  1.00  0.00     0.164 A 
HETATM   11  N   UNL     1     -43.865 -50.673  13.471  1.00  0.00    -0.316 N 
ATOM     12  HN  UNL     1     -44.468 -49.852  13.438  1.00  0.00     0.170 HD
HETATM   13  C   UNL     1     -44.222 -51.947  13.774  1.00  0.00     0.146 A 
HETATM   14  H   UNL     1     -44.751 -55.540  14.411  1.00  0.00     0.173 HD
ENDROOT
BRANCH   9  15
HETATM   15  C   UNL     1     -40.760 -52.466  12.946  1.00  0.00     0.166 C 
BRANCH  15  16
HETATM   16  C   UNL     1     -39.666 -52.375  14.015  1.00  0.00     0.160 C 
BRANCH  16  17
HETATM   17  O   UNL     1     -40.118 -51.651  15.164  1.00  0.00    -0.392 OA
HETATM   18  H   UNL     1     -40.332 -52.290  15.869  1.00  0.00     0.210 HD
ENDBRANCH  16  17
BRANCH  16  19
HETATM   19  C   UNL     1     -39.190 -53.778  14.427  1.00  0.00     0.197 C 
BRANCH  19  20
HETATM   20  O   UNL     1     -38.513 -54.430  13.354  1.00  0.00    -0.398 OA
HETATM   21  H   UNL     1     -39.129 -54.494  12.601  1.00  0.00     0.209 HD
ENDBRANCH  19  20
ENDBRANCH  16  19
ENDBRANCH  15  16
ENDBRANCH   9  15
BRANCH  10  22
HETATM   22  N   UNL     1     -41.751 -49.694  12.854  1.00  0.00    -0.254 NA
HETATM   23  C   UNL     1     -42.135 -49.014  11.602  1.00  0.00     0.098 C 
HETATM   24  C   UNL     1     -40.951 -48.190  11.086  1.00  0.00     0.015 C 
HETATM   25  C   UNL     1     -40.448 -47.209  12.143  1.00  0.00     0.002 C 
HETATM   26  C   UNL     1     -40.156 -47.936  13.452  1.00  0.00     0.015 C 
HETATM   27  C   UNL     1     -41.373 -48.737  13.912  1.00  0.00     0.098 C 
ENDBRANCH  10  22
TORSDOF 6
ENDMDL
