MODEL 1
REMARK VINA RESULT:      -6.1      0.000      0.000
REMARK  7 active torsions:
REMARK  status: ('A' for Active; 'I' for Inactive)
REMARK    1  A    between atoms: C_2  and  C_3 
REMARK    2  A    between atoms: C_2  and  N_10 
REMARK    3  A    between atoms: C_3  and  O_4 
REMARK    4  A    between atoms: O_4  and  C_5 
REMARK    5  A    between atoms: N_10  and  C_11 
REMARK    6  A    between atoms: C_14  and  O_15 
REMARK    7  A    between atoms: O_15  and  C_16 
ROOT
HETATM    1  C   UNL     1     -41.615 -52.436  11.989  1.00  0.00     0.080 A 
HETATM    2  C   UNL     1     -41.077 -53.270  12.962  1.00  0.00     0.045 A 
HETATM    3  C   UNL     1     -41.922 -54.098  13.706  1.00  0.00     0.041 A 
HETATM    4  C   UNL     1     -43.294 -54.073  13.481  1.00  0.00     0.090 A 
HETATM    5  C   UNL     1     -43.745 -53.228  12.483  1.00  0.00     0.126 A 
HETATM    6  N   UNL     1     -42.940 -52.427  11.748  1.00  0.00    -0.354 N 
ATOM      7  HN  UNL     1     -43.331 -51.825  11.023  1.00  0.00     0.166 HD
ENDROOT
BRANCH   1   8
HETATM    8  N   UNL     1     -40.764 -51.548  11.305  1.00  0.00    -0.273 NA
HETATM    9  H   UNL     1     -41.097 -51.460  10.346  1.00  0.00     0.129 HD
BRANCH   8  10
HETATM   10  C   UNL     1     -40.619 -50.210  11.914  1.00  0.00     0.081 C 
HETATM   11  C   UNL     1     -39.142 -49.813  12.038  1.00  0.00     0.029 C 
BRANCH  10  12
HETATM   12  C   UNL     1     -41.304 -49.147  11.017  1.00  0.00     0.187 C 
BRANCH  12  13
HETATM   13  O   UNL     1     -42.547 -48.710  11.578  1.00  0.00    -0.382 OA
BRANCH  13  14
HETATM   14  C   UNL     1     -42.946 -47.436  11.069  1.00  0.00     0.147 C 
HETATM   15  C   UNL     1     -43.833 -47.512   9.841  1.00  0.00     0.060 C 
HETATM   16  C   UNL     1     -43.408 -46.336   8.981  1.00  0.00     0.170 C 
HETATM   17  O   UNL     1     -42.274 -45.724   9.597  1.00  0.00    -0.389 OA
HETATM   18  C   UNL     1     -41.751 -46.657  10.551  1.00  0.00     0.199 C 
ENDBRANCH  13  14
ENDBRANCH  12  13
ENDBRANCH  10  12
ENDBRANCH   8  10
ENDBRANCH   1   8
BRANCH   4  19
HETATM   19  O   UNL     1     -44.053 -54.920  14.232  1.00  0.00    -0.289 OA
BRANCH  19  20
HETATM   20  C   UNL     1     -45.453 -54.883  13.999  1.00  0.00     0.505 C 
HETATM   21  F   UNL     1     -45.898 -56.105  13.625  1.00  0.00    -0.184 F 
HETATM   22  F   UNL     1     -46.048 -54.612  15.190  1.00  0.00    -0.184 F 
ENDBRANCH  19  20
ENDBRANCH   4  19
TORSDOF 7
ENDMDL
MODEL 2
REMARK VINA RESULT:      -5.9      3.687      6.851
REMARK  7 active torsions:
REMARK  status: ('A' for Active; 'I' for Inactive)
REMARK    1  A    between atoms: C_2  and  C_3 
REMARK    2  A    between atoms: C_2  and  N_10 
REMARK    3  A    between atoms: C_3  and  O_4 
REMARK    4  A    between atoms: O_4  and  C_5 
REMARK    5  A    between atoms: N_10  and  C_11 
REMARK    6  A    between atoms: C_14  and  O_15 
REMARK    7  A    between atoms: O_15  and  C_16 
ROOT
HETATM    1  C   UNL     1     -41.836 -48.303  10.932  1.00  0.00     0.080 A 
HETATM    2  C   UNL     1     -42.995 -48.009  11.641  1.00  0.00     0.045 A 
HETATM    3  C   UNL     1     -44.142 -47.601  10.953  1.00  0.00     0.041 A 
HETATM    4  C   UNL     1     -44.114 -47.477   9.568  1.00  0.00     0.090 A 
HETATM    5  C   UNL     1     -42.927 -47.806   8.938  1.00  0.00     0.126 A 
HETATM    6  N   UNL     1     -41.812 -48.211   9.588  1.00  0.00    -0.354 N 
ATOM      7  HN  UNL     1     -40.965 -48.442   9.068  1.00  0.00     0.166 HD
ENDROOT
BRANCH   1   8
HETATM    8  N   UNL     1     -40.667 -48.633  11.641  1.00  0.00    -0.273 NA
HETATM    9  H   UNL     1     -40.890 -48.651  12.636  1.00  0.00     0.129 HD
BRANCH   8  10
HETATM   10  C   UNL     1     -40.019 -49.900  11.246  1.00  0.00     0.081 C 
HETATM   11  C   UNL     1     -38.530 -49.902  11.617  1.00  0.00     0.029 C 
BRANCH  10  12
HETATM   12  C   UNL     1     -40.679 -51.085  11.998  1.00  0.00     0.187 C 
BRANCH  12  13
HETATM   13  O   UNL     1     -39.696 -51.981  12.529  1.00  0.00    -0.382 OA
BRANCH  13  14
HETATM   14  C   UNL     1     -40.251 -52.868  13.501  1.00  0.00     0.147 C 
HETATM   15  C   UNL     1     -40.999 -54.046  12.906  1.00  0.00     0.060 C 
HETATM   16  C   UNL     1     -42.170 -54.277  13.844  1.00  0.00     0.170 C 
HETATM   17  O   UNL     1     -42.174 -53.228  14.813  1.00  0.00    -0.389 OA
HETATM   18  C   UNL     1     -41.334 -52.180  14.313  1.00  0.00     0.199 C 
ENDBRANCH  13  14
ENDBRANCH  12  13
ENDBRANCH  10  12
ENDBRANCH   8  10
ENDBRANCH   1   8
BRANCH   4  19
HETATM   19  O   UNL     1     -45.274 -47.092   8.965  1.00  0.00    -0.289 OA
BRANCH  19  20
HETATM   20  C   UNL     1     -46.341 -48.028   9.001  1.00  0.00     0.505 C 
HETATM   21  F   UNL     1     -47.527 -47.381   9.083  1.00  0.00    -0.184 F 
HETATM   22  F   UNL     1     -46.344 -48.675   7.807  1.00  0.00    -0.184 F 
ENDBRANCH  19  20
ENDBRANCH   4  19
TORSDOF 7
ENDMDL
MODEL 3
REMARK VINA RESULT:      -5.8      4.574      6.761
REMARK  7 active torsions:
REMARK  status: ('A' for Active; 'I' for Inactive)
REMARK    1  A    between atoms: C_2  and  C_3 
REMARK    2  A    between atoms: C_2  and  N_10 
REMARK    3  A    between atoms: C_3  and  O_4 
REMARK    4  A    between atoms: O_4  and  C_5 
REMARK    5  A    between atoms: N_10  and  C_11 
REMARK    6  A    between atoms: C_14  and  O_15 
REMARK    7  A    between atoms: O_15  and  C_16 
ROOT
HETATM    1  C   UNL     1     -43.814 -53.284  12.543  1.00  0.00     0.080 A 
HETATM    2  C   UNL     1     -43.280 -54.176  13.467  1.00  0.00     0.045 A 
HETATM    3  C   UNL     1     -41.895 -54.231  13.653  1.00  0.00     0.041 A 
HETATM    4  C   UNL     1     -41.060 -53.408  12.906  1.00  0.00     0.090 A 
HETATM    5  C   UNL     1     -41.673 -52.537  12.023  1.00  0.00     0.126 A 
HETATM    6  N   UNL     1     -43.011 -52.464  11.836  1.00  0.00    -0.354 N 
ATOM      7  HN  UNL     1     -43.406 -51.801  11.171  1.00  0.00     0.166 HD
ENDROOT
BRANCH   1   8
HETATM    8  N   UNL     1     -45.200 -53.296  12.306  1.00  0.00    -0.273 NA
HETATM    9  H   UNL     1     -45.610 -54.059  12.842  1.00  0.00     0.129 HD
BRANCH   8  10
HETATM   10  C   UNL     1     -45.907 -52.034  12.603  1.00  0.00     0.081 C 
HETATM   11  C   UNL     1     -47.051 -51.789  11.609  1.00  0.00     0.029 C 
BRANCH  10  12
HETATM   12  C   UNL     1     -46.540 -52.105  14.018  1.00  0.00     0.187 C 
BRANCH  12  13
HETATM   13  O   UNL     1     -45.679 -51.528  15.006  1.00  0.00    -0.382 OA
BRANCH  13  14
HETATM   14  C   UNL     1     -45.580 -52.346  16.172  1.00  0.00     0.147 C 
HETATM   15  C   UNL     1     -44.158 -52.561  16.657  1.00  0.00     0.060 C 
HETATM   16  C   UNL     1     -44.133 -53.991  17.166  1.00  0.00     0.170 C 
HETATM   17  O   UNL     1     -45.394 -54.590  16.864  1.00  0.00    -0.389 OA
HETATM   18  C   UNL     1     -46.036 -53.765  15.884  1.00  0.00     0.199 C 
ENDBRANCH  13  14
ENDBRANCH  12  13
ENDBRANCH  10  12
ENDBRANCH   8  10
ENDBRANCH   1   8
BRANCH   4  19
HETATM   19  O   UNL     1     -39.724 -53.504  13.155  1.00  0.00    -0.289 OA
BRANCH  19  20
HETATM   20  C   UNL     1     -39.189 -52.574  14.085  1.00  0.00     0.505 C 
HETATM   21  F   UNL     1     -38.780 -53.214  15.205  1.00  0.00    -0.184 F 
HETATM   22  F   UNL     1     -38.071 -52.045  13.522  1.00  0.00    -0.184 F 
ENDBRANCH  19  20
ENDBRANCH   4  19
TORSDOF 7
ENDMDL
MODEL 4
REMARK VINA RESULT:      -5.7      1.910      2.185
REMARK  7 active torsions:
REMARK  status: ('A' for Active; 'I' for Inactive)
REMARK    1  A    between atoms: C_2  and  C_3 
REMARK    2  A    between atoms: C_2  and  N_10 
REMARK    3  A    between atoms: C_3  and  O_4 
REMARK    4  A    between atoms: O_4  and  C_5 
REMARK    5  A    between atoms: N_10  and  C_11 
REMARK    6  A    between atoms: C_14  and  O_15 
REMARK    7  A    between atoms: O_15  and  C_16 
ROOT
HETATM    1  C   UNL     1     -41.917 -51.263  12.085  1.00  0.00     0.080 A 
HETATM    2  C   UNL     1     -42.563 -50.486  13.041  1.00  0.00     0.045 A 
HETATM    3  C   UNL     1     -43.697 -50.988  13.688  1.00  0.00     0.041 A 
HETATM    4  C   UNL     1     -44.181 -52.249  13.361  1.00  0.00     0.090 A 
HETATM    5  C   UNL     1     -43.470 -52.963  12.413  1.00  0.00     0.126 A 
HETATM    6  N   UNL     1     -42.367 -52.497  11.785  1.00  0.00    -0.354 N 
ATOM      7  HN  UNL     1     -41.883 -53.070  11.094  1.00  0.00     0.166 HD
ENDROOT
BRANCH   1   8
HETATM    8  N   UNL     1     -40.828 -50.715  11.384  1.00  0.00    -0.273 NA
HETATM    9  H   UNL     1     -41.144 -50.458  10.450  1.00  0.00     0.129 HD
BRANCH   8  10
HETATM   10  C   UNL     1     -40.173 -49.559  12.029  1.00  0.00     0.081 C 
HETATM   11  C   UNL     1     -38.645 -49.702  12.008  1.00  0.00     0.029 C 
BRANCH  10  12
HETATM   12  C   UNL     1     -40.521 -48.258  11.259  1.00  0.00     0.187 C 
BRANCH  12  13
HETATM   13  O   UNL     1     -41.482 -48.503  10.226  1.00  0.00    -0.382 OA
BRANCH  13  14
HETATM   14  C   UNL     1     -42.534 -47.536  10.235  1.00  0.00     0.147 C 
HETATM   15  C   UNL     1     -43.386 -47.539   8.979  1.00  0.00     0.060 C 
HETATM   16  C   UNL     1     -43.726 -46.080   8.737  1.00  0.00     0.170 C 
HETATM   17  O   UNL     1     -43.009 -45.294   9.690  1.00  0.00    -0.389 OA
HETATM   18  C   UNL     1     -41.977 -46.124  10.239  1.00  0.00     0.199 C 
ENDBRANCH  13  14
ENDBRANCH  12  13
ENDBRANCH  10  12
ENDBRANCH   8  10
ENDBRANCH   1   8
BRANCH   4  19
HETATM   19  O   UNL     1     -45.280 -52.678  14.045  1.00  0.00    -0.289 OA
BRANCH  19  20
HETATM   20  C   UNL     1     -46.537 -52.241  13.551  1.00  0.00     0.505 C 
HETATM   21  F   UNL     1     -46.870 -51.052  14.105  1.00  0.00    -0.184 F 
HETATM   22  F   UNL     1     -46.384 -52.010  12.221  1.00  0.00    -0.184 F 
ENDBRANCH  19  20
ENDBRANCH   4  19
TORSDOF 7
ENDMDL
MODEL 5
REMARK VINA RESULT:      -5.6      3.409      4.413
REMARK  7 active torsions:
REMARK  status: ('A' for Active; 'I' for Inactive)
REMARK    1  A    between atoms: C_2  and  C_3 
REMARK    2  A    between atoms: C_2  and  N_10 
REMARK    3  A    between atoms: C_3  and  O_4 
REMARK    4  A    between atoms: O_4  and  C_5 
REMARK    5  A    between atoms: N_10  and  C_11 
REMARK    6  A    between atoms: C_14  and  O_15 
REMARK    7  A    between atoms: O_15  and  C_16 
ROOT
HETATM    1  C   UNL     1     -42.041 -54.096  13.589  1.00  0.00     0.080 A 
HETATM    2  C   UNL     1     -43.070 -54.603  14.375  1.00  0.00     0.045 A 
HETATM    3  C   UNL     1     -44.397 -54.297  14.057  1.00  0.00     0.041 A 
HETATM    4  C   UNL     1     -44.679 -53.478  12.969  1.00  0.00     0.090 A 
HETATM    5  C   UNL     1     -43.599 -53.031  12.230  1.00  0.00     0.126 A 
HETATM    6  N   UNL     1     -42.310 -53.324  12.518  1.00  0.00    -0.354 N 
ATOM      7  HN  UNL     1     -41.555 -52.966  11.935  1.00  0.00     0.166 HD
ENDROOT
BRANCH   1   8
HETATM    8  N   UNL     1     -40.709 -54.343  13.968  1.00  0.00    -0.273 NA
HETATM    9  H   UNL     1     -40.149 -54.447  13.123  1.00  0.00     0.129 HD
BRANCH   8  10
HETATM   10  C   UNL     1     -40.101 -53.329  14.853  1.00  0.00     0.081 C 
HETATM   11  C   UNL     1     -39.427 -53.983  16.067  1.00  0.00     0.029 C 
BRANCH  10  12
HETATM   12  C   UNL     1     -39.002 -52.550  14.085  1.00  0.00     0.187 C 
BRANCH  12  13
HETATM   13  O   UNL     1     -39.420 -52.231  12.753  1.00  0.00    -0.382 OA
BRANCH  13  14
HETATM   14  C   UNL     1     -39.151 -50.867  12.422  1.00  0.00     0.147 C 
HETATM   15  C   UNL     1     -37.760 -50.400  12.809  1.00  0.00     0.060 C 
HETATM   16  C   UNL     1     -37.943 -48.960  13.253  1.00  0.00     0.170 C 
HETATM   17  O   UNL     1     -39.342 -48.673  13.257  1.00  0.00    -0.389 OA
HETATM   18  C   UNL     1     -40.036 -49.926  13.218  1.00  0.00     0.199 C 
ENDBRANCH  13  14
ENDBRANCH  12  13
ENDBRANCH  10  12
ENDBRANCH   8  10
ENDBRANCH   1   8
BRANCH   4  19
HETATM   19  O   UNL     1     -45.996 -53.238  12.710  1.00  0.00    -0.289 OA
BRANCH  19  20
HETATM   20  C   UNL     1     -46.342 -51.895  12.405  1.00  0.00     0.505 C 
HETATM   21  F   UNL     1     -47.285 -51.864  11.435  1.00  0.00    -0.184 F 
HETATM   22  F   UNL     1     -46.924 -51.372  13.516  1.00  0.00    -0.184 F 
ENDBRANCH  19  20
ENDBRANCH   4  19
TORSDOF 7
ENDMDL
MODEL 6
REMARK VINA RESULT:      -5.5      1.042      1.459
REMARK  7 active torsions:
REMARK  status: ('A' for Active; 'I' for Inactive)
REMARK    1  A    between atoms: C_2  and  C_3 
REMARK    2  A    between atoms: C_2  and  N_10 
REMARK    3  A    between atoms: C_3  and  O_4 
REMARK    4  A    between atoms: O_4  and  C_5 
REMARK    5  A    between atoms: N_10  and  C_11 
REMARK    6  A    between atoms: C_14  and  O_15 
REMARK    7  A    between atoms: O_15  and  C_16 
ROOT
HETATM    1  C   UNL     1     -41.779 -52.473  12.167  1.00  0.00     0.080 A 
HETATM    2  C   UNL     1     -41.330 -53.568  12.896  1.00  0.00     0.045 A 
HETATM    3  C   UNL     1     -42.227 -54.278  13.700  1.00  0.00     0.041 A 
HETATM    4  C   UNL     1     -43.556 -53.878  13.779  1.00  0.00     0.090 A 
HETATM    5  C   UNL     1     -43.925 -52.790  13.008  1.00  0.00     0.126 A 
HETATM    6  N   UNL     1     -43.072 -52.097  12.219  1.00  0.00    -0.354 N 
ATOM      7  HN  UNL     1     -43.402 -51.303  11.671  1.00  0.00     0.166 HD
ENDROOT
BRANCH   1   8
HETATM    8  N   UNL     1     -40.851 -51.718  11.428  1.00  0.00    -0.273 NA
HETATM    9  H   UNL     1     -41.264 -51.498  10.523  1.00  0.00     0.129 HD
BRANCH   8  10
HETATM   10  C   UNL     1     -40.374 -50.481  12.079  1.00  0.00     0.081 C 
HETATM   11  C   UNL     1     -38.841 -50.436  12.134  1.00  0.00     0.029 C 
BRANCH  10  12
HETATM   12  C   UNL     1     -40.838 -49.245  11.265  1.00  0.00     0.187 C 
BRANCH  12  13
HETATM   13  O   UNL     1     -39.991 -48.115  11.500  1.00  0.00    -0.382 OA
BRANCH  13  14
HETATM   14  C   UNL     1     -40.583 -46.898  11.042  1.00  0.00     0.147 C 
HETATM   15  C   UNL     1     -40.983 -45.949  12.156  1.00  0.00     0.060 C 
HETATM   16  C   UNL     1     -42.271 -45.305  11.674  1.00  0.00     0.170 C 
HETATM   17  O   UNL     1     -42.653 -45.940  10.453  1.00  0.00    -0.389 OA
HETATM   18  C   UNL     1     -41.912 -47.162  10.356  1.00  0.00     0.199 C 
ENDBRANCH  13  14
ENDBRANCH  12  13
ENDBRANCH  10  12
ENDBRANCH   8  10
ENDBRANCH   1   8
BRANCH   4  19
HETATM   19  O   UNL     1     -44.375 -54.629  14.568  1.00  0.00    -0.289 OA
BRANCH  19  20
HETATM   20  C   UNL     1     -45.686 -54.859  14.074  1.00  0.00     0.505 C 
HETATM   21  F   UNL     1     -45.785 -56.114  13.578  1.00  0.00    -0.184 F 
HETATM   22  F   UNL     1     -46.528 -54.805  15.138  1.00  0.00    -0.184 F 
ENDBRANCH  19  20
ENDBRANCH   4  19
TORSDOF 7
ENDMDL
MODEL 7
REMARK VINA RESULT:      -5.2      3.762      6.712
REMARK  7 active torsions:
REMARK  status: ('A' for Active; 'I' for Inactive)
REMARK    1  A    between atoms: C_2  and  C_3 
REMARK    2  A    between atoms: C_2  and  N_10 
REMARK    3  A    between atoms: C_3  and  O_4 
REMARK    4  A    between atoms: O_4  and  C_5 
REMARK    5  A    between atoms: N_10  and  C_11 
REMARK    6  A    between atoms: C_14  and  O_15 
REMARK    7  A    between atoms: O_15  and  C_16 
ROOT
HETATM    1  C   UNL     1     -42.080 -50.749  12.650  1.00  0.00     0.080 A 
HETATM    2  C   UNL     1     -43.076 -49.830  12.960  1.00  0.00     0.045 A 
HETATM    3  C   UNL     1     -43.177 -48.646  12.223  1.00  0.00     0.041 A 
HETATM    4  C   UNL     1     -42.276 -48.388  11.197  1.00  0.00     0.090 A 
HETATM    5  C   UNL     1     -41.327 -49.362  10.941  1.00  0.00     0.126 A 
HETATM    6  N   UNL     1     -41.220 -50.516  11.639  1.00  0.00    -0.354 N 
ATOM      7  HN  UNL     1     -40.500 -51.199  11.404  1.00  0.00     0.166 HD
ENDROOT
BRANCH   1   8
HETATM    8  N   UNL     1     -41.937 -51.896  13.452  1.00  0.00    -0.273 NA
HETATM    9  H   UNL     1     -42.641 -51.863  14.188  1.00  0.00     0.129 HD
BRANCH   8  10
HETATM   10  C   UNL     1     -42.017 -53.186  12.737  1.00  0.00     0.081 C 
HETATM   11  C   UNL     1     -40.928 -54.156  13.216  1.00  0.00     0.029 C 
BRANCH  10  12
HETATM   12  C   UNL     1     -43.385 -53.860  13.018  1.00  0.00     0.187 C 
BRANCH  12  13
HETATM   13  O   UNL     1     -44.405 -53.358  12.148  1.00  0.00    -0.382 OA
BRANCH  13  14
HETATM   14  C   UNL     1     -45.635 -53.136  12.840  1.00  0.00     0.147 C 
HETATM   15  C   UNL     1     -46.132 -51.704  12.772  1.00  0.00     0.060 C 
HETATM   16  C   UNL     1     -46.758 -51.446  14.131  1.00  0.00     0.170 C 
HETATM   17  O   UNL     1     -46.511 -52.585  14.956  1.00  0.00    -0.389 OA
HETATM   18  C   UNL     1     -45.468 -53.345  14.334  1.00  0.00     0.199 C 
ENDBRANCH  13  14
ENDBRANCH  12  13
ENDBRANCH  10  12
ENDBRANCH   8  10
ENDBRANCH   1   8
BRANCH   4  19
HETATM   19  O   UNL     1     -42.448 -47.223  10.510  1.00  0.00    -0.289 OA
BRANCH  19  20
HETATM   20  C   UNL     1     -43.071 -47.329   9.239  1.00  0.00     0.505 C 
HETATM   21  F   UNL     1     -44.389 -47.599   9.385  1.00  0.00    -0.184 F 
HETATM   22  F   UNL     1     -42.998 -46.104   8.656  1.00  0.00    -0.184 F 
ENDBRANCH  19  20
ENDBRANCH   4  19
TORSDOF 7
ENDMDL
MODEL 8
REMARK VINA RESULT:      -5.2      2.331      4.172
REMARK  7 active torsions:
REMARK  status: ('A' for Active; 'I' for Inactive)
REMARK    1  A    between atoms: C_2  and  C_3 
REMARK    2  A    between atoms: C_2  and  N_10 
REMARK    3  A    between atoms: C_3  and  O_4 
REMARK    4  A    between atoms: O_4  and  C_5 
REMARK    5  A    between atoms: N_10  and  C_11 
REMARK    6  A    between atoms: C_14  and  O_15 
REMARK    7  A    between atoms: O_15  and  C_16 
ROOT
HETATM    1  C   UNL     1     -42.588 -50.887  12.609  1.00  0.00     0.080 A 
HETATM    2  C   UNL     1     -42.020 -52.092  12.211  1.00  0.00     0.045 A 
HETATM    3  C   UNL     1     -42.793 -53.257  12.222  1.00  0.00     0.041 A 
HETATM    4  C   UNL     1     -44.117 -53.208  12.643  1.00  0.00     0.090 A 
HETATM    5  C   UNL     1     -44.610 -51.967  13.005  1.00  0.00     0.126 A 
HETATM    6  N   UNL     1     -43.879 -50.829  12.992  1.00  0.00    -0.354 N 
ATOM      7  HN  UNL     1     -44.297 -49.942  13.269  1.00  0.00     0.166 HD
ENDROOT
BRANCH   1   8
HETATM    8  N   UNL     1     -41.778 -49.739  12.672  1.00  0.00    -0.273 NA
HETATM    9  H   UNL     1     -41.137 -49.842  13.457  1.00  0.00     0.129 HD
BRANCH   8  10
HETATM   10  C   UNL     1     -41.021 -49.426  11.442  1.00  0.00     0.081 C 
HETATM   11  C   UNL     1     -41.619 -48.213  10.715  1.00  0.00     0.029 C 
BRANCH  10  12
HETATM   12  C   UNL     1     -39.556 -49.067  11.802  1.00  0.00     0.187 C 
BRANCH  12  13
HETATM   13  O   UNL     1     -38.685 -50.190  11.631  1.00  0.00    -0.382 OA
BRANCH  13  14
HETATM   14  C   UNL     1     -37.946 -50.479  12.819  1.00  0.00     0.147 C 
HETATM   15  C   UNL     1     -38.606 -51.503  13.723  1.00  0.00     0.060 C 
HETATM   16  C   UNL     1     -38.298 -51.032  15.133  1.00  0.00     0.170 C 
HETATM   17  O   UNL     1     -37.641 -49.767  15.044  1.00  0.00    -0.389 OA
HETATM   18  C   UNL     1     -37.865 -49.261  13.722  1.00  0.00     0.199 C 
ENDBRANCH  13  14
ENDBRANCH  12  13
ENDBRANCH  10  12
ENDBRANCH   8  10
ENDBRANCH   1   8
BRANCH   4  19
HETATM   19  O   UNL     1     -44.813 -54.380  12.610  1.00  0.00    -0.289 OA
BRANCH  19  20
HETATM   20  C   UNL     1     -45.187 -54.925  13.867  1.00  0.00     0.505 C 
HETATM   21  F   UNL     1     -46.001 -55.992  13.691  1.00  0.00    -0.184 F 
HETATM   22  F   UNL     1     -44.055 -55.403  14.446  1.00  0.00    -0.184 F 
ENDBRANCH  19  20
ENDBRANCH   4  19
TORSDOF 7
ENDMDL
MODEL 9
REMARK VINA RESULT:      -5.1      2.726      3.391
REMARK  7 active torsions:
REMARK  status: ('A' for Active; 'I' for Inactive)
REMARK    1  A    between atoms: C_2  and  C_3 
REMARK    2  A    between atoms: C_2  and  N_10 
REMARK    3  A    between atoms: C_3  and  O_4 
REMARK    4  A    between atoms: O_4  and  C_5 
REMARK    5  A    between atoms: N_10  and  C_11 
REMARK    6  A    between atoms: C_14  and  O_15 
REMARK    7  A    between atoms: O_15  and  C_16 
ROOT
HETATM    1  C   UNL     1     -41.430 -52.822  12.364  1.00  0.00     0.080 A 
HETATM    2  C   UNL     1     -41.360 -53.665  13.467  1.00  0.00     0.045 A 
HETATM    3  C   UNL     1     -42.524 -54.276  13.944  1.00  0.00     0.041 A 
HETATM    4  C   UNL     1     -43.744 -54.025  13.326  1.00  0.00     0.090 A 
HETATM    5  C   UNL     1     -43.723 -53.188  12.225  1.00  0.00     0.126 A 
HETATM    6  N   UNL     1     -42.605 -52.596  11.744  1.00  0.00    -0.354 N 
ATOM      7  HN  UNL     1     -42.651 -51.989  10.926  1.00  0.00     0.166 HD
ENDROOT
BRANCH   1   8
HETATM    8  N   UNL     1     -40.267 -52.150  11.944  1.00  0.00    -0.273 NA
HETATM    9  H   UNL     1     -40.469 -51.680  11.063  1.00  0.00     0.129 HD
BRANCH   8  10
HETATM   10  C   UNL     1     -39.705 -51.187  12.912  1.00  0.00     0.081 C 
HETATM   11  C   UNL     1     -38.267 -50.799  12.540  1.00  0.00     0.029 C 
BRANCH  10  12
HETATM   12  C   UNL     1     -40.545 -49.883  12.907  1.00  0.00     0.187 C 
BRANCH  12  13
HETATM   13  O   UNL     1     -40.606 -49.294  14.211  1.00  0.00    -0.382 OA
BRANCH  13  14
HETATM   14  C   UNL     1     -41.916 -49.379  14.775  1.00  0.00     0.147 C 
HETATM   15  C   UNL     1     -42.116 -50.570  15.694  1.00  0.00     0.060 C 
HETATM   16  C   UNL     1     -43.543 -51.020  15.443  1.00  0.00     0.170 C 
HETATM   17  O   UNL     1     -44.069 -50.243  14.366  1.00  0.00    -0.389 OA
HETATM   18  C   UNL     1     -42.959 -49.628  13.700  1.00  0.00     0.199 C 
ENDBRANCH  13  14
ENDBRANCH  12  13
ENDBRANCH  10  12
ENDBRANCH   8  10
ENDBRANCH   1   8
BRANCH   4  19
HETATM   19  O   UNL     1     -44.831 -54.669  13.836  1.00  0.00    -0.289 OA
BRANCH  19  20
HETATM   20  C   UNL     1     -45.706 -53.887  14.636  1.00  0.00     0.505 C 
HETATM   21  F   UNL     1     -46.597 -53.234  13.854  1.00  0.00    -0.184 F 
HETATM   22  F   UNL     1     -46.430 -54.750  15.396  1.00  0.00    -0.184 F 
ENDBRANCH  19  20
ENDBRANCH   4  19
TORSDOF 7
ENDMDL
