MODEL 1
REMARK VINA RESULT:      -5.6      0.000      0.000
REMARK  4 active torsions:
REMARK  status: ('A' for Active; 'I' for Inactive)
REMARK    1  A    between atoms: O_2  and  C_3 
REMARK    2  A    between atoms: C_3  and  C_4 
REMARK    3  A    between atoms: C_4  and  N_5 
REMARK       I    between atoms: N_5  and  C_6 
REMARK       I    between atoms: C_6  and  N_8 
REMARK    4  A    between atoms: N_8  and  C_9 
ROOT
HETATM    1  N   UNL     1     -42.187 -48.538  10.168  1.00  0.00    -0.340 N 
HETATM    2  C   UNL     1     -41.186 -48.835  11.064  1.00  0.00     0.321 C 
HETATM    3  O   UNL     1     -41.046 -48.214  12.111  1.00  0.00    -0.247 OA
HETATM    4  N   UNL     1     -40.406 -49.891  10.659  1.00  0.00    -0.301 N 
HETATM    5  H   UNL     1     -42.365 -49.137   9.373  1.00  0.00     0.164 HD
HETATM    6  H   UNL     1     -40.798 -50.544   9.999  1.00  0.00     0.171 HD
ENDROOT
BRANCH   1   7
HETATM    7  C   UNL     1     -43.244 -47.619  10.572  1.00  0.00     0.162 C 
BRANCH   7   8
HETATM    8  C   UNL     1     -43.700 -46.811   9.358  1.00  0.00     0.076 C 
HETATM    9  C   UNL     1     -43.647 -47.628   8.031  1.00  0.00     0.040 C 
HETATM   10  C   UNL     1     -45.138 -47.951   8.204  1.00  0.00     0.006 C 
HETATM   11  C   UNL     1     -45.247 -46.754   9.153  1.00  0.00     0.040 C 
BRANCH   8  12
HETATM   12  O   UNL     1     -43.072 -45.496   9.326  1.00  0.00    -0.383 OA
HETATM   13  C   UNL     1     -42.560 -44.987  10.553  1.00  0.00     0.202 C 
ENDBRANCH   8  12
ENDBRANCH   7   8
ENDBRANCH   1   7
BRANCH   4  14
HETATM   14  C   UNL     1     -39.395 -50.339  11.480  1.00  0.00     0.108 A 
HETATM   15  C   UNL     1     -38.058 -50.035  11.617  1.00  0.00     0.142 A 
HETATM   16  N   UNL     1     -37.417 -50.692  12.660  1.00  0.00    -0.301 N 
HETATM   17  N   UNL     1     -38.248 -51.487  13.318  1.00  0.00    -0.060 NA
ATOM     18  HN  UNL     1     -36.430 -50.576  12.891  1.00  0.00     0.182 HD
HETATM   19  S   UNL     1     -39.790 -51.503  12.658  1.00  0.00     0.019 SA
ENDBRANCH   4  14
TORSDOF 4
ENDMDL
MODEL 2
REMARK VINA RESULT:      -5.5      2.801      6.380
REMARK  4 active torsions:
REMARK  status: ('A' for Active; 'I' for Inactive)
REMARK    1  A    between atoms: O_2  and  C_3 
REMARK    2  A    between atoms: C_3  and  C_4 
REMARK    3  A    between atoms: C_4  and  N_5 
REMARK       I    between atoms: N_5  and  C_6 
REMARK       I    between atoms: C_6  and  N_8 
REMARK    4  A    between atoms: N_8  and  C_9 
ROOT
HETATM    1  N   UNL     1     -40.577 -49.936  10.782  1.00  0.00    -0.340 N 
HETATM    2  C   UNL     1     -41.600 -49.018  10.823  1.00  0.00     0.321 C 
HETATM    3  O   UNL     1     -42.357 -48.931  11.782  1.00  0.00    -0.247 OA
HETATM    4  N   UNL     1     -41.650 -48.226   9.701  1.00  0.00    -0.301 N 
HETATM    5  H   UNL     1     -39.887 -49.911  10.042  1.00  0.00     0.164 HD
HETATM    6  H   UNL     1     -40.809 -48.125   9.155  1.00  0.00     0.171 HD
ENDROOT
BRANCH   1   7
HETATM    7  C   UNL     1     -40.238 -50.667  11.997  1.00  0.00     0.162 C 
BRANCH   7   8
HETATM    8  C   UNL     1     -39.030 -50.008  12.660  1.00  0.00     0.076 C 
HETATM    9  C   UNL     1     -37.981 -51.040  13.174  1.00  0.00     0.040 C 
HETATM   10  C   UNL     1     -37.196 -50.851  11.869  1.00  0.00     0.006 C 
HETATM   11  C   UNL     1     -37.925 -49.519  11.669  1.00  0.00     0.040 C 
BRANCH   8  12
HETATM   12  O   UNL     1     -39.437 -48.979  13.609  1.00  0.00    -0.383 OA
HETATM   13  C   UNL     1     -39.132 -47.629  13.279  1.00  0.00     0.202 C 
ENDBRANCH   8  12
ENDBRANCH   7   8
ENDBRANCH   1   7
BRANCH   4  14
HETATM   14  C   UNL     1     -42.590 -47.224   9.621  1.00  0.00     0.108 A 
HETATM   15  C   UNL     1     -42.709 -45.967  10.174  1.00  0.00     0.142 A 
HETATM   16  N   UNL     1     -43.816 -45.245   9.743  1.00  0.00    -0.301 N 
HETATM   17  N   UNL     1     -44.537 -45.935   8.871  1.00  0.00    -0.060 NA
ATOM     18  HN  UNL     1     -44.046 -44.303  10.059  1.00  0.00     0.182 HD
HETATM   19  S   UNL     1     -43.930 -47.476   8.602  1.00  0.00     0.019 SA
ENDBRANCH   4  14
TORSDOF 4
ENDMDL
MODEL 3
REMARK VINA RESULT:      -5.4      4.635      6.905
REMARK  4 active torsions:
REMARK  status: ('A' for Active; 'I' for Inactive)
REMARK    1  A    between atoms: O_2  and  C_3 
REMARK    2  A    between atoms: C_3  and  C_4 
REMARK    3  A    between atoms: C_4  and  N_5 
REMARK       I    between atoms: N_5  and  C_6 
REMARK       I    between atoms: C_6  and  N_8 
REMARK    4  A    between atoms: N_8  and  C_9 
ROOT
HETATM    1  N   UNL     1     -41.193 -51.716  11.527  1.00  0.00    -0.340 N 
HETATM    2  C   UNL     1     -42.286 -51.903  12.341  1.00  0.00     0.321 C 
HETATM    3  O   UNL     1     -42.492 -51.199  13.323  1.00  0.00    -0.247 OA
HETATM    4  N   UNL     1     -43.097 -52.928  11.916  1.00  0.00    -0.301 N 
HETATM    5  H   UNL     1     -41.105 -52.221  10.654  1.00  0.00     0.164 HD
HETATM    6  H   UNL     1     -43.051 -53.197  10.947  1.00  0.00     0.171 HD
ENDROOT
BRANCH   1   7
HETATM    7  C   UNL     1     -40.385 -50.515  11.697  1.00  0.00     0.162 C 
BRANCH   7   8
HETATM    8  C   UNL     1     -39.130 -50.862  12.496  1.00  0.00     0.076 C 
HETATM    9  C   UNL     1     -37.827 -50.291  11.859  1.00  0.00     0.040 C 
HETATM   10  C   UNL     1     -37.929 -49.085  12.804  1.00  0.00     0.006 C 
HETATM   11  C   UNL     1     -38.842 -49.918  13.708  1.00  0.00     0.040 C 
BRANCH   8  12
HETATM   12  O   UNL     1     -39.101 -52.275  12.857  1.00  0.00    -0.383 OA
HETATM   13  C   UNL     1     -39.006 -52.593  14.241  1.00  0.00     0.202 C 
ENDBRANCH   8  12
ENDBRANCH   7   8
ENDBRANCH   1   7
BRANCH   4  14
HETATM   14  C   UNL     1     -44.259 -53.199  12.603  1.00  0.00     0.108 A 
HETATM   15  C   UNL     1     -45.558 -52.747  12.516  1.00  0.00     0.142 A 
HETATM   16  N   UNL     1     -46.450 -53.371  13.380  1.00  0.00    -0.301 N 
HETATM   17  N   UNL     1     -45.846 -54.291  14.120  1.00  0.00    -0.060 NA
ATOM     18  HN  UNL     1     -47.443 -53.149  13.439  1.00  0.00     0.182 HD
HETATM   19  S   UNL     1     -44.196 -54.377  13.830  1.00  0.00     0.019 SA
ENDBRANCH   4  14
TORSDOF 4
ENDMDL
MODEL 4
REMARK VINA RESULT:      -5.4      4.755      6.080
REMARK  4 active torsions:
REMARK  status: ('A' for Active; 'I' for Inactive)
REMARK    1  A    between atoms: O_2  and  C_3 
REMARK    2  A    between atoms: C_3  and  C_4 
REMARK    3  A    between atoms: C_4  and  N_5 
REMARK       I    between atoms: N_5  and  C_6 
REMARK       I    between atoms: C_6  and  N_8 
REMARK    4  A    between atoms: N_8  and  C_9 
ROOT
HETATM    1  N   UNL     1     -43.229 -51.739  12.808  1.00  0.00    -0.340 N 
HETATM    2  C   UNL     1     -42.782 -50.452  12.612  1.00  0.00     0.321 C 
HETATM    3  O   UNL     1     -43.123 -49.529  13.341  1.00  0.00    -0.247 OA
HETATM    4  N   UNL     1     -41.921 -50.345  11.547  1.00  0.00    -0.301 N 
HETATM    5  H   UNL     1     -42.841 -52.509  12.278  1.00  0.00     0.164 HD
HETATM    6  H   UNL     1     -41.433 -51.174  11.247  1.00  0.00     0.171 HD
ENDROOT
BRANCH   1   7
HETATM    7  C   UNL     1     -43.938 -52.057  14.041  1.00  0.00     0.162 C 
BRANCH   7   8
HETATM    8  C   UNL     1     -45.311 -52.634  13.696  1.00  0.00     0.076 C 
HETATM    9  C   UNL     1     -46.287 -52.645  14.911  1.00  0.00     0.040 C 
HETATM   10  C   UNL     1     -46.873 -51.316  14.415  1.00  0.00     0.006 C 
HETATM   11  C   UNL     1     -46.297 -51.623  13.030  1.00  0.00     0.040 C 
BRANCH   8  12
HETATM   12  O   UNL     1     -45.193 -53.885  12.957  1.00  0.00    -0.383 OA
HETATM   13  C   UNL     1     -45.405 -55.093  13.680  1.00  0.00     0.202 C 
ENDBRANCH   8  12
ENDBRANCH   7   8
ENDBRANCH   1   7
BRANCH   4  14
HETATM   14  C   UNL     1     -41.349 -49.126  11.260  1.00  0.00     0.108 A 
HETATM   15  C   UNL     1     -41.685 -48.073  10.437  1.00  0.00     0.142 A 
HETATM   16  N   UNL     1     -40.838 -46.975  10.523  1.00  0.00    -0.301 N 
HETATM   17  N   UNL     1     -39.865 -47.179  11.400  1.00  0.00    -0.060 NA
ATOM     18  HN  UNL     1     -40.950 -46.119   9.980  1.00  0.00     0.182 HD
HETATM   19  S   UNL     1     -39.921 -48.708  12.087  1.00  0.00     0.019 SA
ENDBRANCH   4  14
TORSDOF 4
ENDMDL
MODEL 5
REMARK VINA RESULT:      -5.1      4.996      6.107
REMARK  4 active torsions:
REMARK  status: ('A' for Active; 'I' for Inactive)
REMARK    1  A    between atoms: O_2  and  C_3 
REMARK    2  A    between atoms: C_3  and  C_4 
REMARK    3  A    between atoms: C_4  and  N_5 
REMARK       I    between atoms: N_5  and  C_6 
REMARK       I    between atoms: C_6  and  N_8 
REMARK    4  A    between atoms: N_8  and  C_9 
ROOT
HETATM    1  N   UNL     1     -42.839 -53.109  12.103  1.00  0.00    -0.340 N 
HETATM    2  C   UNL     1     -42.092 -52.007  12.448  1.00  0.00     0.321 C 
HETATM    3  O   UNL     1     -42.016 -51.610  13.605  1.00  0.00    -0.247 OA
HETATM    4  N   UNL     1     -41.450 -51.442  11.373  1.00  0.00    -0.301 N 
HETATM    5  H   UNL     1     -42.791 -53.497  11.170  1.00  0.00     0.164 HD
HETATM    6  H   UNL     1     -41.282 -52.019  10.565  1.00  0.00     0.171 HD
ENDROOT
BRANCH   1   7
HETATM    7  C   UNL     1     -43.366 -53.962  13.162  1.00  0.00     0.162 C 
BRANCH   7   8
HETATM    8  C   UNL     1     -44.868 -53.717  13.303  1.00  0.00     0.076 C 
HETATM    9  C   UNL     1     -45.625 -54.929  13.926  1.00  0.00     0.040 C 
HETATM   10  C   UNL     1     -45.523 -54.250  15.299  1.00  0.00     0.006 C 
HETATM   11  C   UNL     1     -45.284 -52.919  14.580  1.00  0.00     0.040 C 
BRANCH   8  12
HETATM   12  O   UNL     1     -45.437 -53.167  12.078  1.00  0.00    -0.383 OA
HETATM   13  C   UNL     1     -46.449 -52.176  12.216  1.00  0.00     0.202 C 
ENDBRANCH   8  12
ENDBRANCH   7   8
ENDBRANCH   1   7
BRANCH   4  14
HETATM   14  C   UNL     1     -40.622 -50.360  11.572  1.00  0.00     0.108 A 
HETATM   15  C   UNL     1     -39.295 -50.211  11.912  1.00  0.00     0.142 A 
HETATM   16  N   UNL     1     -38.841 -48.898  11.923  1.00  0.00    -0.301 N 
HETATM   17  N   UNL     1     -39.804 -48.048  11.595  1.00  0.00    -0.060 NA
ATOM     18  HN  UNL     1     -37.887 -48.621  12.155  1.00  0.00     0.182 HD
HETATM   19  S   UNL     1     -41.276 -48.808  11.327  1.00  0.00     0.019 SA
ENDBRANCH   4  14
TORSDOF 4
ENDMDL
MODEL 6
REMARK VINA RESULT:      -5.1      2.561      3.491
REMARK  4 active torsions:
REMARK  status: ('A' for Active; 'I' for Inactive)
REMARK    1  A    between atoms: O_2  and  C_3 
REMARK    2  A    between atoms: C_3  and  C_4 
REMARK    3  A    between atoms: C_4  and  N_5 
REMARK       I    between atoms: N_5  and  C_6 
REMARK       I    between atoms: C_6  and  N_8 
REMARK    4  A    between atoms: N_8  and  C_9 
ROOT
HETATM    1  N   UNL     1     -40.708 -49.397  10.724  1.00  0.00    -0.340 N 
HETATM    2  C   UNL     1     -40.905 -50.304  11.739  1.00  0.00     0.321 C 
HETATM    3  O   UNL     1     -40.862 -49.978  12.919  1.00  0.00    -0.247 OA
HETATM    4  N   UNL     1     -41.166 -51.571  11.277  1.00  0.00    -0.301 N 
HETATM    5  H   UNL     1     -40.870 -49.655   9.759  1.00  0.00     0.164 HD
HETATM    6  H   UNL     1     -41.528 -51.669  10.341  1.00  0.00     0.171 HD
ENDROOT
BRANCH   1   7
HETATM    7  C   UNL     1     -40.675 -47.975  11.046  1.00  0.00     0.162 C 
BRANCH   7   8
HETATM    8  C   UNL     1     -42.012 -47.342  10.661  1.00  0.00     0.076 C 
HETATM    9  C   UNL     1     -42.955 -47.125  11.882  1.00  0.00     0.040 C 
HETATM   10  C   UNL     1     -42.453 -45.678  11.977  1.00  0.00     0.006 C 
HETATM   11  C   UNL     1     -41.983 -45.786  10.523  1.00  0.00     0.040 C 
BRANCH   8  12
HETATM   12  O   UNL     1     -42.602 -48.005   9.504  1.00  0.00    -0.383 OA
HETATM   13  C   UNL     1     -43.442 -47.222   8.663  1.00  0.00     0.202 C 
ENDBRANCH   8  12
ENDBRANCH   7   8
ENDBRANCH   1   7
BRANCH   4  14
HETATM   14  C   UNL     1     -41.438 -52.577  12.177  1.00  0.00     0.108 A 
HETATM   15  C   UNL     1     -40.666 -53.474  12.882  1.00  0.00     0.142 A 
HETATM   16  N   UNL     1     -41.372 -54.281  13.765  1.00  0.00    -0.301 N 
HETATM   17  N   UNL     1     -42.669 -54.007  13.742  1.00  0.00    -0.060 NA
ATOM     18  HN  UNL     1     -40.947 -54.995  14.357  1.00  0.00     0.182 HD
HETATM   19  S   UNL     1     -43.062 -52.823  12.621  1.00  0.00     0.019 SA
ENDBRANCH   4  14
TORSDOF 4
ENDMDL
MODEL 7
REMARK VINA RESULT:      -4.9      2.978      6.704
REMARK  4 active torsions:
REMARK  status: ('A' for Active; 'I' for Inactive)
REMARK    1  A    between atoms: O_2  and  C_3 
REMARK    2  A    between atoms: C_3  and  C_4 
REMARK    3  A    between atoms: C_4  and  N_5 
REMARK       I    between atoms: N_5  and  C_6 
REMARK       I    between atoms: C_6  and  N_8 
REMARK    4  A    between atoms: N_8  and  C_9 
ROOT
HETATM    1  N   UNL     1     -41.671 -50.460  11.665  1.00  0.00    -0.340 N 
HETATM    2  C   UNL     1     -42.185 -49.185  11.605  1.00  0.00     0.321 C 
HETATM    3  O   UNL     1     -42.646 -48.623  12.592  1.00  0.00    -0.247 OA
HETATM    4  N   UNL     1     -42.099 -48.636  10.349  1.00  0.00    -0.301 N 
HETATM    5  H   UNL     1     -41.182 -50.860  10.875  1.00  0.00     0.164 HD
HETATM    6  H   UNL     1     -41.409 -49.007   9.716  1.00  0.00     0.171 HD
ENDROOT
BRANCH   1   7
HETATM    7  C   UNL     1     -41.457 -51.072  12.972  1.00  0.00     0.162 C 
BRANCH   7   8
HETATM    8  C   UNL     1     -40.073 -51.717  13.004  1.00  0.00     0.076 C 
HETATM    9  C   UNL     1     -38.962 -50.801  12.406  1.00  0.00     0.040 C 
HETATM   10  C   UNL     1     -38.625 -50.330  13.827  1.00  0.00     0.006 C 
HETATM   11  C   UNL     1     -39.320 -51.584  14.366  1.00  0.00     0.040 C 
BRANCH   8  12
HETATM   12  O   UNL     1     -40.111 -53.087  12.506  1.00  0.00    -0.383 OA
HETATM   13  C   UNL     1     -41.156 -53.926  12.985  1.00  0.00     0.202 C 
ENDBRANCH   8  12
ENDBRANCH   7   8
ENDBRANCH   1   7
BRANCH   4  14
HETATM   14  C   UNL     1     -42.526 -47.343  10.145  1.00  0.00     0.108 A 
HETATM   15  C   UNL     1     -43.696 -46.773   9.693  1.00  0.00     0.142 A 
HETATM   16  N   UNL     1     -43.718 -45.384   9.727  1.00  0.00    -0.301 N 
HETATM   17  N   UNL     1     -42.582 -44.892  10.200  1.00  0.00    -0.060 NA
ATOM     18  HN  UNL     1     -44.508 -44.815   9.425  1.00  0.00     0.182 HD
HETATM   19  S   UNL     1     -41.456 -46.084  10.554  1.00  0.00     0.019 SA
ENDBRANCH   4  14
TORSDOF 4
ENDMDL
MODEL 8
REMARK VINA RESULT:      -4.8      5.293      7.378
REMARK  4 active torsions:
REMARK  status: ('A' for Active; 'I' for Inactive)
REMARK    1  A    between atoms: O_2  and  C_3 
REMARK    2  A    between atoms: C_3  and  C_4 
REMARK    3  A    between atoms: C_4  and  N_5 
REMARK       I    between atoms: N_5  and  C_6 
REMARK       I    between atoms: C_6  and  N_8 
REMARK    4  A    between atoms: N_8  and  C_9 
ROOT
HETATM    1  N   UNL     1     -41.480 -53.521  12.374  1.00  0.00    -0.340 N 
HETATM    2  C   UNL     1     -42.554 -53.741  13.205  1.00  0.00     0.321 C 
HETATM    3  O   UNL     1     -42.437 -53.772  14.424  1.00  0.00    -0.247 OA
HETATM    4  N   UNL     1     -43.734 -53.895  12.518  1.00  0.00    -0.301 N 
HETATM    5  H   UNL     1     -41.613 -53.373  11.383  1.00  0.00     0.164 HD
HETATM    6  H   UNL     1     -43.796 -53.508  11.590  1.00  0.00     0.171 HD
ENDROOT
BRANCH   1   7
HETATM    7  C   UNL     1     -40.216 -53.087  12.958  1.00  0.00     0.162 C 
BRANCH   7   8
HETATM    8  C   UNL     1     -40.095 -51.570  12.823  1.00  0.00     0.076 C 
HETATM    9  C   UNL     1     -40.316 -50.821  14.172  1.00  0.00     0.040 C 
HETATM   10  C   UNL     1     -38.794 -50.788  14.370  1.00  0.00     0.006 C 
HETATM   11  C   UNL     1     -38.632 -51.024  12.866  1.00  0.00     0.040 C 
BRANCH   8  12
HETATM   12  O   UNL     1     -40.855 -51.073  11.682  1.00  0.00    -0.383 OA
HETATM   13  C   UNL     1     -40.983 -49.662  11.549  1.00  0.00     0.202 C 
ENDBRANCH   8  12
ENDBRANCH   7   8
ENDBRANCH   1   7
BRANCH   4  14
HETATM   14  C   UNL     1     -44.907 -54.069  13.219  1.00  0.00     0.108 A 
HETATM   15  C   UNL     1     -45.551 -55.158  13.765  1.00  0.00     0.142 A 
HETATM   16  N   UNL     1     -46.705 -54.854  14.477  1.00  0.00    -0.301 N 
HETATM   17  N   UNL     1     -46.944 -53.551  14.482  1.00  0.00    -0.060 NA
ATOM     18  HN  UNL     1     -47.294 -55.547  14.938  1.00  0.00     0.182 HD
HETATM   19  S   UNL     1     -45.823 -52.682  13.585  1.00  0.00     0.019 SA
ENDBRANCH   4  14
TORSDOF 4
ENDMDL
MODEL 9
REMARK VINA RESULT:      -4.8      3.328      6.564
REMARK  4 active torsions:
REMARK  status: ('A' for Active; 'I' for Inactive)
REMARK    1  A    between atoms: O_2  and  C_3 
REMARK    2  A    between atoms: C_3  and  C_4 
REMARK    3  A    between atoms: C_4  and  N_5 
REMARK       I    between atoms: N_5  and  C_6 
REMARK       I    between atoms: C_6  and  N_8 
REMARK    4  A    between atoms: N_8  and  C_9 
ROOT
HETATM    1  N   UNL     1     -41.971 -50.804  11.972  1.00  0.00    -0.340 N 
HETATM    2  C   UNL     1     -41.796 -49.506  11.550  1.00  0.00     0.321 C 
HETATM    3  O   UNL     1     -40.695 -49.066  11.244  1.00  0.00    -0.247 OA
HETATM    4  N   UNL     1     -42.974 -48.801  11.498  1.00  0.00    -0.301 N 
HETATM    5  H   UNL     1     -42.899 -51.187  12.099  1.00  0.00     0.164 HD
HETATM    6  H   UNL     1     -43.834 -49.319  11.417  1.00  0.00     0.171 HD
ENDROOT
BRANCH   1   7
HETATM    7  C   UNL     1     -40.865 -51.744  11.835  1.00  0.00     0.162 C 
BRANCH   7   8
HETATM    8  C   UNL     1     -40.738 -52.560  13.120  1.00  0.00     0.076 C 
HETATM    9  C   UNL     1     -42.059 -52.602  13.947  1.00  0.00     0.040 C 
HETATM   10  C   UNL     1     -42.396 -53.946  13.287  1.00  0.00     0.006 C 
HETATM   11  C   UNL     1     -40.913 -54.102  12.936  1.00  0.00     0.040 C 
BRANCH   8  12
HETATM   12  O   UNL     1     -39.530 -52.209  13.858  1.00  0.00    -0.383 OA
HETATM   13  C   UNL     1     -38.693 -51.203  13.299  1.00  0.00     0.202 C 
ENDBRANCH   8  12
ENDBRANCH   7   8
ENDBRANCH   1   7
BRANCH   4  14
HETATM   14  C   UNL     1     -42.964 -47.501  11.042  1.00  0.00     0.108 A 
HETATM   15  C   UNL     1     -42.747 -46.274  11.631  1.00  0.00     0.142 A 
HETATM   16  N   UNL     1     -42.754 -45.198  10.751  1.00  0.00    -0.301 N 
HETATM   17  N   UNL     1     -42.971 -45.591   9.504  1.00  0.00    -0.060 NA
ATOM     18  HN  UNL     1     -42.610 -44.228  11.030  1.00  0.00     0.182 HD
HETATM   19  S   UNL     1     -43.227 -47.244   9.380  1.00  0.00     0.019 SA
ENDBRANCH   4  14
TORSDOF 4
ENDMDL
