MODEL 1
REMARK VINA RESULT:      -6.5      0.000      0.000
REMARK  4 active torsions:
REMARK  status: ('A' for Active; 'I' for Inactive)
REMARK    1  A    between atoms: N_5  and  C_6 
REMARK    2  A    between atoms: C_6  and  C_7 
REMARK    3  A    between atoms: C_7  and  O_8 
REMARK    4  A    between atoms: C_7  and  C_9 
ROOT
HETATM    1  C   UNL     1     -42.422 -55.718  16.079  1.00  0.00     0.161 C 
HETATM    2  N   UNL     1     -42.780 -54.881  14.970  1.00  0.00    -0.302 N 
HETATM    3  C   UNL     1     -44.079 -54.706  14.451  1.00  0.00     0.329 A 
HETATM    4  O   UNL     1     -45.112 -55.244  14.825  1.00  0.00    -0.246 OA
HETATM    5  N   UNL     1     -43.965 -53.764  13.411  1.00  0.00    -0.295 N 
HETATM    6  C   UNL     1     -42.619 -53.401  13.264  1.00  0.00     0.066 A 
HETATM    7  C   UNL     1     -42.018 -52.535  12.376  1.00  0.00     0.032 A 
HETATM    8  C   UNL     1     -40.635 -52.366  12.489  1.00  0.00     0.002 A 
HETATM    9  C   UNL     1     -39.896 -53.050  13.476  1.00  0.00     0.002 A 
HETATM   10  C   UNL     1     -40.524 -53.926  14.368  1.00  0.00     0.032 A 
HETATM   11  C   UNL     1     -41.887 -54.086  14.237  1.00  0.00     0.065 A 
ENDROOT
BRANCH   5  12
HETATM   12  C   UNL     1     -45.072 -53.253  12.639  1.00  0.00     0.170 C 
BRANCH  12  13
HETATM   13  C   UNL     1     -45.360 -51.757  12.889  1.00  0.00     0.169 C 
BRANCH  13  14
HETATM   14  O   UNL     1     -46.444 -51.288  12.081  1.00  0.00    -0.389 OA
HETATM   15  H   UNL     1     -46.650 -50.373  12.348  1.00  0.00     0.210 HD
ENDBRANCH  13  14
BRANCH  13  16
HETATM   16  C   UNL     1     -45.682 -51.384  14.326  1.00  0.00    -0.025 A 
HETATM   17  C   UNL     1     -44.669 -50.809  15.121  1.00  0.00     0.010 A 
HETATM   18  C   UNL     1     -44.904 -50.449  16.450  1.00  0.00     0.004 A 
HETATM   19  C   UNL     1     -46.158 -50.661  17.016  1.00  0.00     0.042 A 
HETATM   20  C   UNL     1     -47.162 -51.226  16.243  1.00  0.00     0.117 A 
HETATM   21  F   UNL     1     -48.372 -51.433  16.780  1.00  0.00    -0.206 F 
HETATM   22  C   UNL     1     -46.940 -51.586  14.914  1.00  0.00     0.052 A 
ENDBRANCH  13  16
ENDBRANCH  12  13
ENDBRANCH   5  12
TORSDOF 4
ENDMDL
MODEL 2
REMARK VINA RESULT:      -6.3      1.732      3.016
REMARK  4 active torsions:
REMARK  status: ('A' for Active; 'I' for Inactive)
REMARK    1  A    between atoms: N_5  and  C_6 
REMARK    2  A    between atoms: C_6  and  C_7 
REMARK    3  A    between atoms: C_7  and  O_8 
REMARK    4  A    between atoms: C_7  and  C_9 
ROOT
HETATM    1  C   UNL     1     -39.528 -52.380  13.609  1.00  0.00     0.161 C 
HETATM    2  N   UNL     1     -40.800 -53.034  13.719  1.00  0.00    -0.302 N 
HETATM    3  C   UNL     1     -41.906 -52.839  12.868  1.00  0.00     0.329 A 
HETATM    4  O   UNL     1     -41.993 -52.075  11.918  1.00  0.00    -0.246 OA
HETATM    5  N   UNL     1     -42.909 -53.721  13.316  1.00  0.00    -0.295 N 
HETATM    6  C   UNL     1     -42.446 -54.411  14.445  1.00  0.00     0.066 A 
HETATM    7  C   UNL     1     -43.067 -55.353  15.235  1.00  0.00     0.032 A 
HETATM    8  C   UNL     1     -42.328 -55.880  16.299  1.00  0.00     0.002 A 
HETATM    9  C   UNL     1     -41.003 -55.464  16.540  1.00  0.00     0.002 A 
HETATM   10  C   UNL     1     -40.388 -54.505  15.727  1.00  0.00     0.032 A 
HETATM   11  C   UNL     1     -41.135 -53.992  14.688  1.00  0.00     0.065 A 
ENDROOT
BRANCH   5  12
HETATM   12  C   UNL     1     -44.199 -53.886  12.690  1.00  0.00     0.170 C 
BRANCH  12  13
HETATM   13  C   UNL     1     -45.023 -52.582  12.620  1.00  0.00     0.169 C 
BRANCH  13  14
HETATM   14  O   UNL     1     -46.178 -52.734  11.788  1.00  0.00    -0.389 OA
HETATM   15  H   UNL     1     -46.861 -52.111  12.098  1.00  0.00     0.210 HD
ENDBRANCH  13  14
BRANCH  13  16
HETATM   16  C   UNL     1     -45.504 -52.041  13.956  1.00  0.00    -0.025 A 
HETATM   17  C   UNL     1     -46.744 -52.483  14.460  1.00  0.00     0.010 A 
HETATM   18  C   UNL     1     -47.241 -52.018  15.680  1.00  0.00     0.004 A 
HETATM   19  C   UNL     1     -46.509 -51.097  16.422  1.00  0.00     0.042 A 
HETATM   20  C   UNL     1     -45.287 -50.654  15.935  1.00  0.00     0.117 A 
HETATM   21  F   UNL     1     -44.577 -49.766  16.644  1.00  0.00    -0.206 F 
HETATM   22  C   UNL     1     -44.780 -51.114  14.721  1.00  0.00     0.052 A 
ENDBRANCH  13  16
ENDBRANCH  12  13
ENDBRANCH   5  12
TORSDOF 4
ENDMDL
MODEL 3
REMARK VINA RESULT:      -6.1      2.879      5.505
REMARK  4 active torsions:
REMARK  status: ('A' for Active; 'I' for Inactive)
REMARK    1  A    between atoms: N_5  and  C_6 
REMARK    2  A    between atoms: C_6  and  C_7 
REMARK    3  A    between atoms: C_7  and  O_8 
REMARK    4  A    between atoms: C_7  and  C_9 
ROOT
HETATM    1  C   UNL     1     -43.161 -50.068  17.415  1.00  0.00     0.161 C 
HETATM    2  N   UNL     1     -43.368 -50.369  16.028  1.00  0.00    -0.302 N 
HETATM    3  C   UNL     1     -42.385 -50.334  15.018  1.00  0.00     0.329 A 
HETATM    4  O   UNL     1     -41.209 -50.021  15.131  1.00  0.00    -0.246 OA
HETATM    5  N   UNL     1     -43.021 -50.752  13.834  1.00  0.00    -0.295 N 
HETATM    6  C   UNL     1     -44.376 -50.996  14.099  1.00  0.00     0.066 A 
HETATM    7  C   UNL     1     -45.394 -51.400  13.262  1.00  0.00     0.032 A 
HETATM    8  C   UNL     1     -46.657 -51.576  13.834  1.00  0.00     0.002 A 
HETATM    9  C   UNL     1     -46.870 -51.354  15.210  1.00  0.00     0.002 A 
HETATM   10  C   UNL     1     -45.825 -50.944  16.045  1.00  0.00     0.032 A 
HETATM   11  C   UNL     1     -44.588 -50.768  15.462  1.00  0.00     0.065 A 
ENDROOT
BRANCH   5  12
HETATM   12  C   UNL     1     -42.364 -50.912  12.559  1.00  0.00     0.170 C 
BRANCH  12  13
HETATM   13  C   UNL     1     -42.095 -52.386  12.184  1.00  0.00     0.169 C 
BRANCH  13  14
HETATM   14  O   UNL     1     -41.192 -52.491  11.078  1.00  0.00    -0.389 OA
HETATM   15  H   UNL     1     -41.151 -53.427  10.807  1.00  0.00     0.210 HD
ENDBRANCH  13  14
BRANCH  13  16
HETATM   16  C   UNL     1     -41.537 -53.253  13.300  1.00  0.00    -0.025 A 
HETATM   17  C   UNL     1     -40.168 -53.150  13.617  1.00  0.00     0.010 A 
HETATM   18  C   UNL     1     -39.596 -53.925  14.631  1.00  0.00     0.004 A 
HETATM   19  C   UNL     1     -40.382 -54.822  15.345  1.00  0.00     0.042 A 
HETATM   20  C   UNL     1     -41.732 -54.932  15.041  1.00  0.00     0.117 A 
HETATM   21  F   UNL     1     -42.495 -55.795  15.725  1.00  0.00    -0.206 F 
HETATM   22  C   UNL     1     -42.313 -54.162  14.035  1.00  0.00     0.052 A 
ENDBRANCH  13  16
ENDBRANCH  12  13
ENDBRANCH   5  12
TORSDOF 4
ENDMDL
MODEL 4
REMARK VINA RESULT:      -6.1      3.523      6.143
REMARK  4 active torsions:
REMARK  status: ('A' for Active; 'I' for Inactive)
REMARK    1  A    between atoms: N_5  and  C_6 
REMARK    2  A    between atoms: C_6  and  C_7 
REMARK    3  A    between atoms: C_7  and  O_8 
REMARK    4  A    between atoms: C_7  and  C_9 
ROOT
HETATM    1  C   UNL     1     -44.877 -50.463  16.209  1.00  0.00     0.161 C 
HETATM    2  N   UNL     1     -44.437 -51.251  15.094  1.00  0.00    -0.302 N 
HETATM    3  C   UNL     1     -43.453 -50.881  14.156  1.00  0.00     0.329 A 
HETATM    4  O   UNL     1     -42.826 -49.832  14.104  1.00  0.00    -0.246 OA
HETATM    5  N   UNL     1     -43.311 -51.974  13.280  1.00  0.00    -0.295 N 
HETATM    6  C   UNL     1     -44.220 -52.977  13.644  1.00  0.00     0.066 A 
HETATM    7  C   UNL     1     -44.465 -54.211  13.080  1.00  0.00     0.032 A 
HETATM    8  C   UNL     1     -45.439 -55.008  13.689  1.00  0.00     0.002 A 
HETATM    9  C   UNL     1     -46.130 -54.563  14.834  1.00  0.00     0.002 A 
HETATM   10  C   UNL     1     -45.869 -53.307  15.393  1.00  0.00     0.032 A 
HETATM   11  C   UNL     1     -44.911 -52.533  14.774  1.00  0.00     0.065 A 
ENDROOT
BRANCH   5  12
HETATM   12  C   UNL     1     -42.364 -52.040  12.193  1.00  0.00     0.170 C 
BRANCH  12  13
HETATM   13  C   UNL     1     -40.956 -52.500  12.629  1.00  0.00     0.169 C 
BRANCH  13  14
HETATM   14  O   UNL     1     -40.443 -53.517  11.761  1.00  0.00    -0.389 OA
HETATM   15  H   UNL     1     -40.094 -54.241  12.313  1.00  0.00     0.210 HD
ENDBRANCH  13  14
BRANCH  13  16
HETATM   16  C   UNL     1     -39.905 -51.406  12.704  1.00  0.00    -0.025 A 
HETATM   17  C   UNL     1     -38.768 -51.612  13.512  1.00  0.00     0.010 A 
HETATM   18  C   UNL     1     -37.770 -50.641  13.624  1.00  0.00     0.004 A 
HETATM   19  C   UNL     1     -37.889 -49.439  12.932  1.00  0.00     0.042 A 
HETATM   20  C   UNL     1     -39.004 -49.225  12.134  1.00  0.00     0.117 A 
HETATM   21  F   UNL     1     -39.126 -48.071  11.466  1.00  0.00    -0.206 F 
HETATM   22  C   UNL     1     -40.004 -50.189  12.012  1.00  0.00     0.052 A 
ENDBRANCH  13  16
ENDBRANCH  12  13
ENDBRANCH   5  12
TORSDOF 4
ENDMDL
MODEL 5
REMARK VINA RESULT:      -6.0      3.711      5.080
REMARK  4 active torsions:
REMARK  status: ('A' for Active; 'I' for Inactive)
REMARK    1  A    between atoms: N_5  and  C_6 
REMARK    2  A    between atoms: C_6  and  C_7 
REMARK    3  A    between atoms: C_7  and  O_8 
REMARK    4  A    between atoms: C_7  and  C_9 
ROOT
HETATM    1  C   UNL     1     -42.069 -55.665  16.205  1.00  0.00     0.161 C 
HETATM    2  N   UNL     1     -42.150 -54.848  15.028  1.00  0.00    -0.302 N 
HETATM    3  C   UNL     1     -41.059 -54.302  14.324  1.00  0.00     0.329 A 
HETATM    4  O   UNL     1     -39.871 -54.399  14.594  1.00  0.00    -0.246 OA
HETATM    5  N   UNL     1     -41.604 -53.623  13.217  1.00  0.00    -0.295 N 
HETATM    6  C   UNL     1     -43.002 -53.712  13.264  1.00  0.00     0.066 A 
HETATM    7  C   UNL     1     -43.961 -53.195  12.420  1.00  0.00     0.032 A 
HETATM    8  C   UNL     1     -45.296 -53.472  12.727  1.00  0.00     0.002 A 
HETATM    9  C   UNL     1     -45.637 -54.253  13.849  1.00  0.00     0.002 A 
HETATM   10  C   UNL     1     -44.650 -54.769  14.696  1.00  0.00     0.032 A 
HETATM   11  C   UNL     1     -43.340 -54.480  14.382  1.00  0.00     0.065 A 
ENDROOT
BRANCH   5  12
HETATM   12  C   UNL     1     -40.829 -52.959  12.196  1.00  0.00     0.170 C 
BRANCH  12  13
HETATM   13  C   UNL     1     -40.276 -51.586  12.635  1.00  0.00     0.169 C 
BRANCH  13  14
HETATM   14  O   UNL     1     -39.004 -51.315  12.037  1.00  0.00    -0.389 OA
HETATM   15  H   UNL     1     -38.952 -51.808  11.197  1.00  0.00     0.210 HD
ENDBRANCH  13  14
BRANCH  13  16
HETATM   16  C   UNL     1     -41.171 -50.395  12.339  1.00  0.00    -0.025 A 
HETATM   17  C   UNL     1     -42.225 -50.101  13.228  1.00  0.00     0.010 A 
HETATM   18  C   UNL     1     -43.084 -49.021  13.006  1.00  0.00     0.004 A 
HETATM   19  C   UNL     1     -42.909 -48.214  11.887  1.00  0.00     0.042 A 
HETATM   20  C   UNL     1     -41.875 -48.494  11.004  1.00  0.00     0.117 A 
HETATM   21  F   UNL     1     -41.701 -47.721   9.924  1.00  0.00    -0.206 F 
HETATM   22  C   UNL     1     -41.009 -49.567  11.218  1.00  0.00     0.052 A 
ENDBRANCH  13  16
ENDBRANCH  12  13
ENDBRANCH   5  12
TORSDOF 4
ENDMDL
MODEL 6
REMARK VINA RESULT:      -6.0      3.568      5.115
REMARK  4 active torsions:
REMARK  status: ('A' for Active; 'I' for Inactive)
REMARK    1  A    between atoms: N_5  and  C_6 
REMARK    2  A    between atoms: C_6  and  C_7 
REMARK    3  A    between atoms: C_7  and  O_8 
REMARK    4  A    between atoms: C_7  and  C_9 
ROOT
HETATM    1  C   UNL     1     -38.163 -51.416  17.783  1.00  0.00     0.161 C 
HETATM    2  N   UNL     1     -38.412 -51.719  16.403  1.00  0.00    -0.302 N 
HETATM    3  C   UNL     1     -38.979 -52.911  15.907  1.00  0.00     0.329 A 
HETATM    4  O   UNL     1     -39.329 -53.894  16.544  1.00  0.00    -0.246 OA
HETATM    5  N   UNL     1     -39.084 -52.748  14.513  1.00  0.00    -0.295 N 
HETATM    6  C   UNL     1     -38.553 -51.501  14.153  1.00  0.00     0.066 A 
HETATM    7  C   UNL     1     -38.418 -50.909  12.916  1.00  0.00     0.032 A 
HETATM    8  C   UNL     1     -37.855 -49.630  12.880  1.00  0.00     0.002 A 
HETATM    9  C   UNL     1     -37.451 -48.979  14.064  1.00  0.00     0.002 A 
HETATM   10  C   UNL     1     -37.595 -49.596  15.312  1.00  0.00     0.032 A 
HETATM   11  C   UNL     1     -38.146 -50.860  15.327  1.00  0.00     0.065 A 
ENDROOT
BRANCH   5  12
HETATM   12  C   UNL     1     -39.664 -53.715  13.612  1.00  0.00     0.170 C 
BRANCH  12  13
HETATM   13  C   UNL     1     -40.843 -53.159  12.785  1.00  0.00     0.169 C 
BRANCH  13  14
HETATM   14  O   UNL     1     -40.702 -53.469  11.394  1.00  0.00    -0.389 OA
HETATM   15  H   UNL     1     -40.215 -54.310  11.318  1.00  0.00     0.210 HD
ENDBRANCH  13  14
BRANCH  13  16
HETATM   16  C   UNL     1     -42.222 -53.635  13.210  1.00  0.00    -0.025 A 
HETATM   17  C   UNL     1     -42.325 -54.540  14.285  1.00  0.00     0.010 A 
HETATM   18  C   UNL     1     -43.565 -55.016  14.719  1.00  0.00     0.004 A 
HETATM   19  C   UNL     1     -44.730 -54.599  14.083  1.00  0.00     0.042 A 
HETATM   20  C   UNL     1     -44.640 -53.708  13.022  1.00  0.00     0.117 A 
HETATM   21  F   UNL     1     -45.757 -53.302  12.405  1.00  0.00    -0.206 F 
HETATM   22  C   UNL     1     -43.408 -53.223  12.584  1.00  0.00     0.052 A 
ENDBRANCH  13  16
ENDBRANCH  12  13
ENDBRANCH   5  12
TORSDOF 4
ENDMDL
MODEL 7
REMARK VINA RESULT:      -5.9      3.685      5.400
REMARK  4 active torsions:
REMARK  status: ('A' for Active; 'I' for Inactive)
REMARK    1  A    between atoms: N_5  and  C_6 
REMARK    2  A    between atoms: C_6  and  C_7 
REMARK    3  A    between atoms: C_7  and  O_8 
REMARK    4  A    between atoms: C_7  and  C_9 
ROOT
HETATM    1  C   UNL     1     -43.063 -48.354  15.759  1.00  0.00     0.161 C 
HETATM    2  N   UNL     1     -42.403 -48.922  14.620  1.00  0.00    -0.302 N 
HETATM    3  C   UNL     1     -41.666 -50.123  14.605  1.00  0.00     0.329 A 
HETATM    4  O   UNL     1     -41.436 -50.872  15.544  1.00  0.00    -0.246 OA
HETATM    5  N   UNL     1     -41.249 -50.314  13.273  1.00  0.00    -0.295 N 
HETATM    6  C   UNL     1     -41.681 -49.231  12.495  1.00  0.00     0.066 A 
HETATM    7  C   UNL     1     -41.500 -48.963  11.156  1.00  0.00     0.032 A 
HETATM    8  C   UNL     1     -42.075 -47.789  10.658  1.00  0.00     0.002 A 
HETATM    9  C   UNL     1     -42.812 -46.928  11.496  1.00  0.00     0.002 A 
HETATM   10  C   UNL     1     -42.985 -47.216  12.854  1.00  0.00     0.032 A 
HETATM   11  C   UNL     1     -42.405 -48.374  13.329  1.00  0.00     0.065 A 
ENDROOT
BRANCH   5  12
HETATM   12  C   UNL     1     -40.507 -51.458  12.799  1.00  0.00     0.170 C 
BRANCH  12  13
HETATM   13  C   UNL     1     -41.375 -52.486  12.042  1.00  0.00     0.169 C 
BRANCH  13  14
HETATM   14  O   UNL     1     -40.571 -53.390  11.277  1.00  0.00    -0.389 OA
HETATM   15  H   UNL     1     -40.366 -54.163  11.835  1.00  0.00     0.210 HD
ENDBRANCH  13  14
BRANCH  13  16
HETATM   16  C   UNL     1     -42.293 -53.331  12.909  1.00  0.00    -0.025 A 
HETATM   17  C   UNL     1     -41.739 -54.040  13.993  1.00  0.00     0.010 A 
HETATM   18  C   UNL     1     -42.532 -54.836  14.824  1.00  0.00     0.004 A 
HETATM   19  C   UNL     1     -43.899 -54.943  14.583  1.00  0.00     0.042 A 
HETATM   20  C   UNL     1     -44.455 -54.249  13.518  1.00  0.00     0.117 A 
HETATM   21  F   UNL     1     -45.770 -54.348  13.280  1.00  0.00    -0.206 F 
HETATM   22  C   UNL     1     -43.673 -53.449  12.686  1.00  0.00     0.052 A 
ENDBRANCH  13  16
ENDBRANCH  12  13
ENDBRANCH   5  12
TORSDOF 4
ENDMDL
MODEL 8
REMARK VINA RESULT:      -5.7      2.129      3.104
REMARK  4 active torsions:
REMARK  status: ('A' for Active; 'I' for Inactive)
REMARK    1  A    between atoms: N_5  and  C_6 
REMARK    2  A    between atoms: C_6  and  C_7 
REMARK    3  A    between atoms: C_7  and  O_8 
REMARK    4  A    between atoms: C_7  and  C_9 
ROOT
HETATM    1  C   UNL     1     -42.988 -55.421  18.117  1.00  0.00     0.161 C 
HETATM    2  N   UNL     1     -42.432 -55.146  16.823  1.00  0.00    -0.302 N 
HETATM    3  C   UNL     1     -43.163 -54.955  15.633  1.00  0.00     0.329 A 
HETATM    4  O   UNL     1     -44.374 -55.014  15.482  1.00  0.00    -0.246 OA
HETATM    5  N   UNL     1     -42.217 -54.660  14.632  1.00  0.00    -0.295 N 
HETATM    6  C   UNL     1     -40.929 -54.713  15.185  1.00  0.00     0.066 A 
HETATM    7  C   UNL     1     -39.696 -54.519  14.601  1.00  0.00     0.032 A 
HETATM    8  C   UNL     1     -38.575 -54.624  15.430  1.00  0.00     0.002 A 
HETATM    9  C   UNL     1     -38.711 -54.910  16.804  1.00  0.00     0.002 A 
HETATM   10  C   UNL     1     -39.971 -55.105  17.380  1.00  0.00     0.032 A 
HETATM   11  C   UNL     1     -41.064 -55.004  16.545  1.00  0.00     0.065 A 
ENDROOT
BRANCH   5  12
HETATM   12  C   UNL     1     -42.540 -54.341  13.262  1.00  0.00     0.170 C 
BRANCH  12  13
HETATM   13  C   UNL     1     -42.761 -52.833  13.015  1.00  0.00     0.169 C 
BRANCH  13  14
HETATM   14  O   UNL     1     -42.363 -52.453  11.693  1.00  0.00    -0.389 OA
HETATM   15  H   UNL     1     -42.056 -53.253  11.226  1.00  0.00     0.210 HD
ENDBRANCH  13  14
BRANCH  13  16
HETATM   16  C   UNL     1     -44.185 -52.340  13.211  1.00  0.00    -0.025 A 
HETATM   17  C   UNL     1     -44.528 -51.727  14.432  1.00  0.00     0.010 A 
HETATM   18  C   UNL     1     -45.822 -51.257  14.672  1.00  0.00     0.004 A 
HETATM   19  C   UNL     1     -46.803 -51.395  13.695  1.00  0.00     0.042 A 
HETATM   20  C   UNL     1     -46.476 -51.998  12.489  1.00  0.00     0.117 A 
HETATM   21  F   UNL     1     -47.416 -52.135  11.544  1.00  0.00    -0.206 F 
HETATM   22  C   UNL     1     -45.187 -52.467  12.237  1.00  0.00     0.052 A 
ENDBRANCH  13  16
ENDBRANCH  12  13
ENDBRANCH   5  12
TORSDOF 4
ENDMDL
MODEL 9
REMARK VINA RESULT:      -5.7      3.607      5.258
REMARK  4 active torsions:
REMARK  status: ('A' for Active; 'I' for Inactive)
REMARK    1  A    between atoms: N_5  and  C_6 
REMARK    2  A    between atoms: C_6  and  C_7 
REMARK    3  A    between atoms: C_7  and  O_8 
REMARK    4  A    between atoms: C_7  and  C_9 
ROOT
HETATM    1  C   UNL     1     -38.063 -49.316  14.571  1.00  0.00     0.161 C 
HETATM    2  N   UNL     1     -39.161 -49.904  13.858  1.00  0.00    -0.302 N 
HETATM    3  C   UNL     1     -39.156 -51.162  13.222  1.00  0.00     0.329 A 
HETATM    4  O   UNL     1     -38.228 -51.954  13.139  1.00  0.00    -0.246 OA
HETATM    5  N   UNL     1     -40.452 -51.347  12.703  1.00  0.00    -0.295 N 
HETATM    6  C   UNL     1     -41.224 -50.209  12.975  1.00  0.00     0.066 A 
HETATM    7  C   UNL     1     -42.532 -49.917  12.653  1.00  0.00     0.032 A 
HETATM    8  C   UNL     1     -43.034 -48.686  13.084  1.00  0.00     0.002 A 
HETATM    9  C   UNL     1     -42.233 -47.791  13.822  1.00  0.00     0.002 A 
HETATM   10  C   UNL     1     -40.907 -48.104  14.139  1.00  0.00     0.032 A 
HETATM   11  C   UNL     1     -40.426 -49.319  13.699  1.00  0.00     0.065 A 
ENDROOT
BRANCH   5  12
HETATM   12  C   UNL     1     -40.901 -52.534  12.016  1.00  0.00     0.170 C 
BRANCH  12  13
HETATM   13  C   UNL     1     -41.315 -53.678  12.966  1.00  0.00     0.169 C 
BRANCH  13  14
HETATM   14  O   UNL     1     -40.686 -53.552  14.246  1.00  0.00    -0.389 OA
HETATM   15  H   UNL     1     -39.724 -53.480  14.106  1.00  0.00     0.210 HD
ENDBRANCH  13  14
BRANCH  13  16
HETATM   16  C   UNL     1     -42.808 -53.814  13.215  1.00  0.00    -0.025 A 
HETATM   17  C   UNL     1     -43.247 -54.645  14.265  1.00  0.00     0.010 A 
HETATM   18  C   UNL     1     -44.607 -54.813  14.540  1.00  0.00     0.004 A 
HETATM   19  C   UNL     1     -45.558 -54.156  13.766  1.00  0.00     0.042 A 
HETATM   20  C   UNL     1     -45.137 -53.335  12.729  1.00  0.00     0.117 A 
HETATM   21  F   UNL     1     -46.046 -52.699  11.979  1.00  0.00    -0.206 F 
HETATM   22  C   UNL     1     -43.782 -53.157  12.449  1.00  0.00     0.052 A 
ENDBRANCH  13  16
ENDBRANCH  12  13
ENDBRANCH   5  12
TORSDOF 4
ENDMDL
