MODEL 1
REMARK VINA RESULT:      -6.0      0.000      0.000
REMARK  7 active torsions:
REMARK  status: ('A' for Active; 'I' for Inactive)
REMARK    1  A    between atoms: C_2  and  C_3 
REMARK    2  A    between atoms: C_3  and  C_4 
REMARK    3  A    between atoms: C_4  and  O_5 
REMARK    4  A    between atoms: O_5  and  C_6 
REMARK    5  A    between atoms: C_6  and  C_8 
REMARK       I    between atoms: C_8  and  N_10 
REMARK    6  A    between atoms: N_10  and  C_11 
REMARK    7  A    between atoms: C_13  and  C_18 
ROOT
HETATM    1  C   UNL     1     -43.072 -47.070  10.174  1.00  0.00     0.104 A 
HETATM    2  C   UNL     1     -44.157 -47.809   9.882  1.00  0.00     0.052 A 
HETATM    3  C   UNL     1     -45.336 -47.250   9.240  1.00  0.00     0.065 A 
HETATM    4  C   UNL     1     -45.345 -45.937   8.952  1.00  0.00     0.107 A 
HETATM    5  N   UNL     1     -44.249 -45.154   9.206  1.00  0.00    -0.331 N 
HETATM    6  C   UNL     1     -43.076 -45.620   9.754  1.00  0.00     0.272 A 
HETATM    7  O   UNL     1     -42.091 -44.903   9.925  1.00  0.00    -0.266 OA
HETATM    8  H   UNL     1     -44.258 -44.167   8.970  1.00  0.00     0.168 HD
ENDROOT
BRANCH   1   9
HETATM    9  N   UNL     1     -41.958 -47.526  10.851  1.00  0.00    -0.320 N 
HETATM   10  C   UNL     1     -41.783 -47.518  12.221  1.00  0.00     0.251 C 
HETATM   11  O   UNL     1     -42.619 -47.115  13.030  1.00  0.00    -0.270 OA
HETATM   12  H   UNL     1     -41.114 -47.667  10.294  1.00  0.00     0.169 HD
BRANCH  10  13
HETATM   13  C   UNL     1     -40.428 -48.086  12.688  1.00  0.00     0.209 C 
HETATM   14  C   UNL     1     -39.728 -47.031  13.547  1.00  0.00     0.050 C 
BRANCH  13  15
HETATM   15  O   UNL     1     -39.625 -48.490  11.573  1.00  0.00    -0.377 OA
BRANCH  15  16
HETATM   16  C   UNL     1     -39.252 -49.868  11.628  1.00  0.00     0.168 C 
BRANCH  16  17
HETATM   17  C   UNL     1     -37.732 -49.974  11.657  1.00  0.00     0.026 C 
BRANCH  17  18
HETATM   18  C   UNL     1     -37.273 -50.938  12.749  1.00  0.00    -0.002 C 
HETATM   19  C   UNL     1     -37.671 -50.452  14.133  1.00  0.00     0.005 C 
ENDBRANCH  17  18
ENDBRANCH  16  17
ENDBRANCH  15  16
ENDBRANCH  13  15
ENDBRANCH  10  13
ENDBRANCH   1   9
BRANCH   3  20
HETATM   20  C   UNL     1     -46.498 -48.153   8.937  1.00  0.00     0.418 C 
HETATM   21  F   UNL     1     -46.582 -49.225   9.765  1.00  0.00    -0.166 F 
HETATM   22  F   UNL     1     -47.681 -47.492   9.024  1.00  0.00    -0.166 F 
HETATM   23  F   UNL     1     -46.421 -48.648   7.674  1.00  0.00    -0.166 F 
ENDBRANCH   3  20
TORSDOF 7
ENDMDL
MODEL 2
REMARK VINA RESULT:      -6.0      5.564      7.155
REMARK  7 active torsions:
REMARK  status: ('A' for Active; 'I' for Inactive)
REMARK    1  A    between atoms: C_2  and  C_3 
REMARK    2  A    between atoms: C_3  and  C_4 
REMARK    3  A    between atoms: C_4  and  O_5 
REMARK    4  A    between atoms: O_5  and  C_6 
REMARK    5  A    between atoms: C_6  and  C_8 
REMARK       I    between atoms: C_8  and  N_10 
REMARK    6  A    between atoms: N_10  and  C_11 
REMARK    7  A    between atoms: C_13  and  C_18 
ROOT
HETATM    1  C   UNL     1     -42.381 -51.631  12.815  1.00  0.00     0.104 A 
HETATM    2  C   UNL     1     -42.868 -50.379  12.748  1.00  0.00     0.052 A 
HETATM    3  C   UNL     1     -42.218 -49.325  11.986  1.00  0.00     0.065 A 
HETATM    4  C   UNL     1     -41.071 -49.613  11.347  1.00  0.00     0.107 A 
HETATM    5  N   UNL     1     -40.555 -50.882  11.365  1.00  0.00    -0.331 N 
HETATM    6  C   UNL     1     -41.143 -51.947  12.010  1.00  0.00     0.272 A 
HETATM    7  O   UNL     1     -40.682 -53.086  11.969  1.00  0.00    -0.266 OA
HETATM    8  H   UNL     1     -39.697 -51.095  10.866  1.00  0.00     0.168 HD
ENDROOT
BRANCH   1   9
HETATM    9  N   UNL     1     -42.910 -52.650  13.582  1.00  0.00    -0.320 N 
HETATM   10  C   UNL     1     -43.918 -53.513  13.198  1.00  0.00     0.251 C 
HETATM   11  O   UNL     1     -44.469 -53.498  12.099  1.00  0.00    -0.270 OA
HETATM   12  H   UNL     1     -42.705 -52.618  14.582  1.00  0.00     0.169 HD
BRANCH  10  13
HETATM   13  C   UNL     1     -44.307 -54.547  14.274  1.00  0.00     0.209 C 
HETATM   14  C   UNL     1     -45.523 -55.331  13.777  1.00  0.00     0.050 C 
BRANCH  13  15
HETATM   15  O   UNL     1     -44.554 -53.914  15.534  1.00  0.00    -0.377 OA
BRANCH  15  16
HETATM   16  C   UNL     1     -45.945 -53.724  15.800  1.00  0.00     0.168 C 
BRANCH  16  17
HETATM   17  C   UNL     1     -46.153 -52.350  16.423  1.00  0.00     0.026 C 
BRANCH  17  18
HETATM   18  C   UNL     1     -45.889 -51.243  15.404  1.00  0.00    -0.002 C 
HETATM   19  C   UNL     1     -46.708 -51.435  14.140  1.00  0.00     0.005 C 
ENDBRANCH  17  18
ENDBRANCH  16  17
ENDBRANCH  15  16
ENDBRANCH  13  15
ENDBRANCH  10  13
ENDBRANCH   1   9
BRANCH   3  20
HETATM   20  C   UNL     1     -42.841 -47.959  11.955  1.00  0.00     0.418 C 
HETATM   21  F   UNL     1     -43.280 -47.534  13.166  1.00  0.00    -0.166 F 
HETATM   22  F   UNL     1     -41.969 -47.022  11.499  1.00  0.00    -0.166 F 
HETATM   23  F   UNL     1     -43.916 -47.926  11.123  1.00  0.00    -0.166 F 
ENDBRANCH   3  20
TORSDOF 7
ENDMDL
MODEL 3
REMARK VINA RESULT:      -6.0      4.283      7.132
REMARK  7 active torsions:
REMARK  status: ('A' for Active; 'I' for Inactive)
REMARK    1  A    between atoms: C_2  and  C_3 
REMARK    2  A    between atoms: C_3  and  C_4 
REMARK    3  A    between atoms: C_4  and  O_5 
REMARK    4  A    between atoms: O_5  and  C_6 
REMARK    5  A    between atoms: C_6  and  C_8 
REMARK       I    between atoms: C_8  and  N_10 
REMARK    6  A    between atoms: N_10  and  C_11 
REMARK    7  A    between atoms: C_13  and  C_18 
ROOT
HETATM    1  C   UNL     1     -41.655 -51.757  12.242  1.00  0.00     0.104 A 
HETATM    2  C   UNL     1     -42.767 -52.414  12.614  1.00  0.00     0.052 A 
HETATM    3  C   UNL     1     -42.731 -53.623  13.420  1.00  0.00     0.065 A 
HETATM    4  C   UNL     1     -41.533 -54.113  13.784  1.00  0.00     0.107 A 
HETATM    5  N   UNL     1     -40.376 -53.458  13.451  1.00  0.00    -0.331 N 
HETATM    6  C   UNL     1     -40.330 -52.278  12.745  1.00  0.00     0.272 A 
HETATM    7  O   UNL     1     -39.278 -51.688  12.503  1.00  0.00    -0.266 OA
HETATM    8  H   UNL     1     -39.476 -53.826  13.744  1.00  0.00     0.168 HD
ENDROOT
BRANCH   1   9
HETATM    9  N   UNL     1     -41.623 -50.652  11.414  1.00  0.00    -0.320 N 
HETATM   10  C   UNL     1     -41.865 -49.347  11.797  1.00  0.00     0.251 C 
HETATM   11  O   UNL     1     -42.124 -48.992  12.946  1.00  0.00    -0.270 OA
HETATM   12  H   UNL     1     -41.650 -50.836  10.410  1.00  0.00     0.169 HD
BRANCH  10  13
HETATM   13  C   UNL     1     -41.767 -48.323  10.648  1.00  0.00     0.209 C 
HETATM   14  C   UNL     1     -40.812 -47.206  11.071  1.00  0.00     0.050 C 
BRANCH  13  15
HETATM   15  O   UNL     1     -43.059 -47.820  10.291  1.00  0.00    -0.377 OA
BRANCH  15  16
HETATM   16  C   UNL     1     -43.001 -46.554   9.633  1.00  0.00     0.168 C 
BRANCH  16  17
HETATM   17  C   UNL     1     -44.332 -46.289   8.940  1.00  0.00     0.026 C 
BRANCH  17  18
HETATM   18  C   UNL     1     -45.179 -47.559   8.882  1.00  0.00    -0.002 C 
HETATM   19  C   UNL     1     -46.645 -47.272   9.157  1.00  0.00     0.005 C 
ENDBRANCH  17  18
ENDBRANCH  16  17
ENDBRANCH  15  16
ENDBRANCH  13  15
ENDBRANCH  10  13
ENDBRANCH   1   9
BRANCH   3  20
HETATM   20  C   UNL     1     -44.025 -54.284  13.802  1.00  0.00     0.418 C 
HETATM   21  F   UNL     1     -43.862 -55.405  14.549  1.00  0.00    -0.166 F 
HETATM   22  F   UNL     1     -44.823 -53.447  14.513  1.00  0.00    -0.166 F 
HETATM   23  F   UNL     1     -44.733 -54.654  12.702  1.00  0.00    -0.166 F 
ENDBRANCH   3  20
TORSDOF 7
ENDMDL
MODEL 4
REMARK VINA RESULT:      -5.7      3.591      5.020
REMARK  7 active torsions:
REMARK  status: ('A' for Active; 'I' for Inactive)
REMARK    1  A    between atoms: C_2  and  C_3 
REMARK    2  A    between atoms: C_3  and  C_4 
REMARK    3  A    between atoms: C_4  and  O_5 
REMARK    4  A    between atoms: O_5  and  C_6 
REMARK    5  A    between atoms: C_6  and  C_8 
REMARK       I    between atoms: C_8  and  N_10 
REMARK    6  A    between atoms: N_10  and  C_11 
REMARK    7  A    between atoms: C_13  and  C_18 
ROOT
HETATM    1  C   UNL     1     -41.714 -48.571  11.118  1.00  0.00     0.104 A 
HETATM    2  C   UNL     1     -42.686 -48.031  10.361  1.00  0.00     0.052 A 
HETATM    3  C   UNL     1     -42.655 -46.647   9.916  1.00  0.00     0.065 A 
HETATM    4  C   UNL     1     -41.624 -45.875  10.300  1.00  0.00     0.107 A 
HETATM    5  N   UNL     1     -40.598 -46.393  11.047  1.00  0.00    -0.331 N 
HETATM    6  C   UNL     1     -40.523 -47.706  11.454  1.00  0.00     0.272 A 
HETATM    7  O   UNL     1     -39.565 -48.154  12.082  1.00  0.00    -0.266 OA
HETATM    8  H   UNL     1     -39.815 -45.808  11.319  1.00  0.00     0.168 HD
ENDROOT
BRANCH   1   9
HETATM    9  N   UNL     1     -41.727 -49.852  11.633  1.00  0.00    -0.320 N 
HETATM   10  C   UNL     1     -42.405 -50.263  12.764  1.00  0.00     0.251 C 
HETATM   11  O   UNL     1     -43.113 -49.534  13.458  1.00  0.00    -0.270 OA
HETATM   12  H   UNL     1     -41.004 -50.486  11.290  1.00  0.00     0.169 HD
BRANCH  10  13
HETATM   13  C   UNL     1     -42.224 -51.756  13.101  1.00  0.00     0.209 C 
HETATM   14  C   UNL     1     -41.649 -52.466  11.875  1.00  0.00     0.050 C 
BRANCH  13  15
HETATM   15  O   UNL     1     -43.458 -52.342  13.533  1.00  0.00    -0.377 OA
BRANCH  15  16
HETATM   16  C   UNL     1     -44.174 -52.977  12.471  1.00  0.00     0.168 C 
BRANCH  16  17
HETATM   17  C   UNL     1     -45.659 -52.992  12.809  1.00  0.00     0.026 C 
BRANCH  17  18
HETATM   18  C   UNL     1     -46.181 -51.574  13.036  1.00  0.00    -0.002 C 
HETATM   19  C   UNL     1     -46.730 -51.395  14.441  1.00  0.00     0.005 C 
ENDBRANCH  17  18
ENDBRANCH  16  17
ENDBRANCH  15  16
ENDBRANCH  13  15
ENDBRANCH  10  13
ENDBRANCH   1   9
BRANCH   3  20
HETATM   20  C   UNL     1     -43.777 -46.132   9.060  1.00  0.00     0.418 C 
HETATM   21  F   UNL     1     -43.988 -44.797   9.188  1.00  0.00    -0.166 F 
HETATM   22  F   UNL     1     -43.552 -46.372   7.743  1.00  0.00    -0.166 F 
HETATM   23  F   UNL     1     -44.953 -46.739   9.371  1.00  0.00    -0.166 F 
ENDBRANCH   3  20
TORSDOF 7
ENDMDL
MODEL 5
REMARK VINA RESULT:      -5.7      1.814      2.359
REMARK  7 active torsions:
REMARK  status: ('A' for Active; 'I' for Inactive)
REMARK    1  A    between atoms: C_2  and  C_3 
REMARK    2  A    between atoms: C_3  and  C_4 
REMARK    3  A    between atoms: C_4  and  O_5 
REMARK    4  A    between atoms: O_5  and  C_6 
REMARK    5  A    between atoms: C_6  and  C_8 
REMARK       I    between atoms: C_8  and  N_10 
REMARK    6  A    between atoms: N_10  and  C_11 
REMARK    7  A    between atoms: C_13  and  C_18 
ROOT
HETATM    1  C   UNL     1     -43.269 -47.149  10.728  1.00  0.00     0.104 A 
HETATM    2  C   UNL     1     -44.356 -47.830  10.327  1.00  0.00     0.052 A 
HETATM    3  C   UNL     1     -45.295 -47.302   9.351  1.00  0.00     0.065 A 
HETATM    4  C   UNL     1     -45.076 -46.073   8.853  1.00  0.00     0.107 A 
HETATM    5  N   UNL     1     -43.964 -45.356   9.213  1.00  0.00    -0.331 N 
HETATM    6  C   UNL     1     -42.998 -45.812  10.082  1.00  0.00     0.272 A 
HETATM    7  O   UNL     1     -41.986 -45.166  10.349  1.00  0.00    -0.266 OA
HETATM    8  H   UNL     1     -43.797 -44.436   8.820  1.00  0.00     0.168 HD
ENDROOT
BRANCH   1   9
HETATM    9  N   UNL     1     -42.386 -47.565  11.706  1.00  0.00    -0.320 N 
HETATM   10  C   UNL     1     -41.366 -48.482  11.539  1.00  0.00     0.251 C 
HETATM   11  O   UNL     1     -41.095 -49.040  10.477  1.00  0.00    -0.270 OA
HETATM   12  H   UNL     1     -42.647 -47.358  12.671  1.00  0.00     0.169 HD
BRANCH  10  13
HETATM   13  C   UNL     1     -40.548 -48.755  12.817  1.00  0.00     0.209 C 
HETATM   14  C   UNL     1     -39.142 -48.185  12.626  1.00  0.00     0.050 C 
BRANCH  13  15
HETATM   15  O   UNL     1     -40.524 -50.153  13.126  1.00  0.00    -0.377 OA
BRANCH  15  16
HETATM   16  C   UNL     1     -41.776 -50.637  13.616  1.00  0.00     0.168 C 
BRANCH  16  17
HETATM   17  C   UNL     1     -42.292 -51.725  12.684  1.00  0.00     0.026 C 
BRANCH  17  18
HETATM   18  C   UNL     1     -41.134 -52.521  12.083  1.00  0.00    -0.002 C 
HETATM   19  C   UNL     1     -40.898 -53.822  12.831  1.00  0.00     0.005 C 
ENDBRANCH  17  18
ENDBRANCH  16  17
ENDBRANCH  15  16
ENDBRANCH  13  15
ENDBRANCH  10  13
ENDBRANCH   1   9
BRANCH   3  20
HETATM   20  C   UNL     1     -46.477 -48.138   8.949  1.00  0.00     0.418 C 
HETATM   21  F   UNL     1     -47.656 -47.468   8.990  1.00  0.00    -0.166 F 
HETATM   22  F   UNL     1     -46.341 -48.622   7.687  1.00  0.00    -0.166 F 
HETATM   23  F   UNL     1     -46.618 -49.216   9.765  1.00  0.00    -0.166 F 
ENDBRANCH   3  20
TORSDOF 7
ENDMDL
MODEL 6
REMARK VINA RESULT:      -5.7      1.281      2.457
REMARK  7 active torsions:
REMARK  status: ('A' for Active; 'I' for Inactive)
REMARK    1  A    between atoms: C_2  and  C_3 
REMARK    2  A    between atoms: C_3  and  C_4 
REMARK    3  A    between atoms: C_4  and  O_5 
REMARK    4  A    between atoms: O_5  and  C_6 
REMARK    5  A    between atoms: C_6  and  C_8 
REMARK       I    between atoms: C_8  and  N_10 
REMARK    6  A    between atoms: N_10  and  C_11 
REMARK    7  A    between atoms: C_13  and  C_18 
ROOT
HETATM    1  C   UNL     1     -42.865 -47.391   9.710  1.00  0.00     0.104 A 
HETATM    2  C   UNL     1     -43.993 -48.058   9.411  1.00  0.00     0.052 A 
HETATM    3  C   UNL     1     -45.243 -47.383   9.099  1.00  0.00     0.065 A 
HETATM    4  C   UNL     1     -45.271 -46.040   9.138  1.00  0.00     0.107 A 
HETATM    5  N   UNL     1     -44.136 -45.321   9.409  1.00  0.00    -0.331 N 
HETATM    6  C   UNL     1     -42.903 -45.883   9.653  1.00  0.00     0.272 A 
HETATM    7  O   UNL     1     -41.892 -45.210   9.845  1.00  0.00    -0.266 OA
HETATM    8  H   UNL     1     -44.162 -44.306   9.420  1.00  0.00     0.168 HD
ENDROOT
BRANCH   1   9
HETATM    9  N   UNL     1     -41.672 -47.976  10.089  1.00  0.00    -0.320 N 
HETATM   10  C   UNL     1     -41.467 -48.733  11.225  1.00  0.00     0.251 C 
HETATM   11  O   UNL     1     -42.338 -49.005  12.050  1.00  0.00    -0.270 OA
HETATM   12  H   UNL     1     -40.831 -47.636   9.620  1.00  0.00     0.169 HD
BRANCH  10  13
HETATM   13  C   UNL     1     -40.023 -49.249  11.388  1.00  0.00     0.209 C 
HETATM   14  C   UNL     1     -40.041 -50.461  12.320  1.00  0.00     0.050 C 
BRANCH  13  15
HETATM   15  O   UNL     1     -39.155 -48.215  11.867  1.00  0.00    -0.377 OA
BRANCH  15  16
HETATM   16  C   UNL     1     -38.883 -48.321  13.266  1.00  0.00     0.168 C 
BRANCH  16  17
HETATM   17  C   UNL     1     -39.536 -47.152  13.993  1.00  0.00     0.026 C 
BRANCH  17  18
HETATM   18  C   UNL     1     -39.850 -46.014  13.024  1.00  0.00    -0.002 C 
HETATM   19  C   UNL     1     -38.955 -44.809  13.263  1.00  0.00     0.005 C 
ENDBRANCH  17  18
ENDBRANCH  16  17
ENDBRANCH  15  16
ENDBRANCH  13  15
ENDBRANCH  10  13
ENDBRANCH   1   9
BRANCH   3  20
HETATM   20  C   UNL     1     -46.452 -48.208   8.762  1.00  0.00     0.418 C 
HETATM   21  F   UNL     1     -46.388 -48.791   7.538  1.00  0.00    -0.166 F 
HETATM   22  F   UNL     1     -46.645 -49.204   9.665  1.00  0.00    -0.166 F 
HETATM   23  F   UNL     1     -47.582 -47.452   8.770  1.00  0.00    -0.166 F 
ENDBRANCH   3  20
TORSDOF 7
ENDMDL
MODEL 7
REMARK VINA RESULT:      -5.6      2.639      3.319
REMARK  7 active torsions:
REMARK  status: ('A' for Active; 'I' for Inactive)
REMARK    1  A    between atoms: C_2  and  C_3 
REMARK    2  A    between atoms: C_3  and  C_4 
REMARK    3  A    between atoms: C_4  and  O_5 
REMARK    4  A    between atoms: O_5  and  C_6 
REMARK    5  A    between atoms: C_6  and  C_8 
REMARK       I    between atoms: C_8  and  N_10 
REMARK    6  A    between atoms: N_10  and  C_11 
REMARK    7  A    between atoms: C_13  and  C_18 
ROOT
HETATM    1  C   UNL     1     -41.264 -47.838  10.652  1.00  0.00     0.104 A 
HETATM    2  C   UNL     1     -42.474 -48.037  10.101  1.00  0.00     0.052 A 
HETATM    3  C   UNL     1     -43.357 -46.943   9.732  1.00  0.00     0.065 A 
HETATM    4  C   UNL     1     -42.954 -45.685   9.978  1.00  0.00     0.107 A 
HETATM    5  N   UNL     1     -41.716 -45.436  10.511  1.00  0.00    -0.331 N 
HETATM    6  C   UNL     1     -40.800 -46.412  10.829  1.00  0.00     0.272 A 
HETATM    7  O   UNL     1     -39.677 -46.155  11.261  1.00  0.00    -0.266 OA
HETATM    8  H   UNL     1     -41.412 -44.482  10.678  1.00  0.00     0.168 HD
ENDROOT
BRANCH   1   9
HETATM    9  N   UNL     1     -40.417 -48.835  11.093  1.00  0.00    -0.320 N 
HETATM   10  C   UNL     1     -40.386 -49.367  12.368  1.00  0.00     0.251 C 
HETATM   11  O   UNL     1     -41.134 -49.029  13.284  1.00  0.00    -0.270 OA
HETATM   12  H   UNL     1     -39.605 -49.033  10.506  1.00  0.00     0.169 HD
BRANCH  10  13
HETATM   13  C   UNL     1     -39.323 -50.465  12.568  1.00  0.00     0.209 C 
HETATM   14  C   UNL     1     -38.085 -50.101  11.746  1.00  0.00     0.050 C 
BRANCH  13  15
HETATM   15  O   UNL     1     -39.840 -51.754  12.219  1.00  0.00    -0.377 OA
BRANCH  15  16
HETATM   16  C   UNL     1     -40.189 -52.541  13.360  1.00  0.00     0.168 C 
BRANCH  16  17
HETATM   17  C   UNL     1     -40.805 -53.854  12.892  1.00  0.00     0.026 C 
BRANCH  17  18
HETATM   18  C   UNL     1     -42.202 -54.041  13.481  1.00  0.00    -0.002 C 
HETATM   19  C   UNL     1     -43.249 -53.263  12.702  1.00  0.00     0.005 C 
ENDBRANCH  17  18
ENDBRANCH  16  17
ENDBRANCH  15  16
ENDBRANCH  13  15
ENDBRANCH  10  13
ENDBRANCH   1   9
BRANCH   3  20
HETATM   20  C   UNL     1     -44.687 -47.259   9.107  1.00  0.00     0.418 C 
HETATM   21  F   UNL     1     -44.592 -47.997   7.971  1.00  0.00    -0.166 F 
HETATM   22  F   UNL     1     -45.489 -47.947   9.959  1.00  0.00    -0.166 F 
HETATM   23  F   UNL     1     -45.356 -46.124   8.774  1.00  0.00    -0.166 F 
ENDBRANCH   3  20
TORSDOF 7
ENDMDL
MODEL 8
REMARK VINA RESULT:      -5.5      4.553      6.483
REMARK  7 active torsions:
REMARK  status: ('A' for Active; 'I' for Inactive)
REMARK    1  A    between atoms: C_2  and  C_3 
REMARK    2  A    between atoms: C_3  and  C_4 
REMARK    3  A    between atoms: C_4  and  O_5 
REMARK    4  A    between atoms: O_5  and  C_6 
REMARK    5  A    between atoms: C_6  and  C_8 
REMARK       I    between atoms: C_8  and  N_10 
REMARK    6  A    between atoms: N_10  and  C_11 
REMARK    7  A    between atoms: C_13  and  C_18 
ROOT
HETATM    1  C   UNL     1     -43.129 -52.033  12.854  1.00  0.00     0.104 A 
HETATM    2  C   UNL     1     -44.297 -51.550  13.314  1.00  0.00     0.052 A 
HETATM    3  C   UNL     1     -45.222 -52.351  14.097  1.00  0.00     0.065 A 
HETATM    4  C   UNL     1     -44.904 -53.633  14.348  1.00  0.00     0.107 A 
HETATM    5  N   UNL     1     -43.711 -54.157  13.924  1.00  0.00    -0.331 N 
HETATM    6  C   UNL     1     -42.756 -53.447  13.232  1.00  0.00     0.272 A 
HETATM    7  O   UNL     1     -41.673 -53.930  12.906  1.00  0.00    -0.266 OA
HETATM    8  H   UNL     1     -43.471 -55.121  14.131  1.00  0.00     0.168 HD
ENDROOT
BRANCH   1   9
HETATM    9  N   UNL     1     -42.248 -51.345  12.042  1.00  0.00    -0.320 N 
HETATM   10  C   UNL     1     -41.219 -50.530  12.471  1.00  0.00     0.251 C 
HETATM   11  O   UNL     1     -40.937 -50.323  13.651  1.00  0.00    -0.270 OA
HETATM   12  H   UNL     1     -42.516 -51.248  11.062  1.00  0.00     0.169 HD
BRANCH  10  13
HETATM   13  C   UNL     1     -40.406 -49.887  11.330  1.00  0.00     0.209 C 
HETATM   14  C   UNL     1     -39.195 -49.175  11.937  1.00  0.00     0.050 C 
BRANCH  13  15
HETATM   15  O   UNL     1     -41.218 -49.000  10.553  1.00  0.00    -0.377 OA
BRANCH  15  16
HETATM   16  C   UNL     1     -41.325 -47.696  11.127  1.00  0.00     0.168 C 
BRANCH  16  17
HETATM   17  C   UNL     1     -42.160 -46.812  10.209  1.00  0.00     0.026 C 
BRANCH  17  18
HETATM   18  C   UNL     1     -43.442 -47.526   9.783  1.00  0.00    -0.002 C 
HETATM   19  C   UNL     1     -43.609 -47.531   8.273  1.00  0.00     0.005 C 
ENDBRANCH  17  18
ENDBRANCH  16  17
ENDBRANCH  15  16
ENDBRANCH  13  15
ENDBRANCH  10  13
ENDBRANCH   1   9
BRANCH   3  20
HETATM   20  C   UNL     1     -46.499 -51.724  14.582  1.00  0.00     0.418 C 
HETATM   21  F   UNL     1     -46.321 -50.857  15.611  1.00  0.00    -0.166 F 
HETATM   22  F   UNL     1     -47.128 -51.041  13.592  1.00  0.00    -0.166 F 
HETATM   23  F   UNL     1     -47.375 -52.667  15.021  1.00  0.00    -0.166 F 
ENDBRANCH   3  20
TORSDOF 7
ENDMDL
MODEL 9
REMARK VINA RESULT:      -5.4      3.857      5.104
REMARK  7 active torsions:
REMARK  status: ('A' for Active; 'I' for Inactive)
REMARK    1  A    between atoms: C_2  and  C_3 
REMARK    2  A    between atoms: C_3  and  C_4 
REMARK    3  A    between atoms: C_4  and  O_5 
REMARK    4  A    between atoms: O_5  and  C_6 
REMARK    5  A    between atoms: C_6  and  C_8 
REMARK       I    between atoms: C_8  and  N_10 
REMARK    6  A    between atoms: N_10  and  C_11 
REMARK    7  A    between atoms: C_13  and  C_18 
ROOT
HETATM    1  C   UNL     1     -42.633 -51.037  12.937  1.00  0.00     0.104 A 
HETATM    2  C   UNL     1     -43.866 -50.913  13.459  1.00  0.00     0.052 A 
HETATM    3  C   UNL     1     -44.902 -51.915  13.268  1.00  0.00     0.065 A 
HETATM    4  C   UNL     1     -44.618 -52.993  12.518  1.00  0.00     0.107 A 
HETATM    5  N   UNL     1     -43.365 -53.174  11.992  1.00  0.00    -0.331 N 
HETATM    6  C   UNL     1     -42.315 -52.304  12.179  1.00  0.00     0.272 A 
HETATM    7  O   UNL     1     -41.188 -52.516  11.735  1.00  0.00    -0.266 OA
HETATM    8  H   UNL     1     -43.154 -53.999  11.441  1.00  0.00     0.168 HD
ENDROOT
BRANCH   1   9
HETATM    9  N   UNL     1     -41.635 -50.086  13.019  1.00  0.00    -0.320 N 
HETATM   10  C   UNL     1     -41.415 -49.064  12.117  1.00  0.00     0.251 C 
HETATM   11  O   UNL     1     -42.101 -48.854  11.118  1.00  0.00    -0.270 OA
HETATM   12  H   UNL     1     -40.869 -50.286  13.664  1.00  0.00     0.169 HD
BRANCH  10  13
HETATM   13  C   UNL     1     -40.217 -48.159  12.468  1.00  0.00     0.209 C 
HETATM   14  C   UNL     1     -40.156 -47.016  11.453  1.00  0.00     0.050 C 
BRANCH  13  15
HETATM   15  O   UNL     1     -38.997 -48.909  12.508  1.00  0.00    -0.377 OA
BRANCH  15  16
HETATM   16  C   UNL     1     -38.185 -48.591  13.640  1.00  0.00     0.168 C 
BRANCH  16  17
HETATM   17  C   UNL     1     -37.548 -49.868  14.172  1.00  0.00     0.026 C 
BRANCH  17  18
HETATM   18  C   UNL     1     -38.048 -51.089  13.402  1.00  0.00    -0.002 C 
HETATM   19  C   UNL     1     -38.850 -52.025  14.290  1.00  0.00     0.005 C 
ENDBRANCH  17  18
ENDBRANCH  16  17
ENDBRANCH  15  16
ENDBRANCH  13  15
ENDBRANCH  10  13
ENDBRANCH   1   9
BRANCH   3  20
HETATM   20  C   UNL     1     -46.248 -51.701  13.901  1.00  0.00     0.418 C 
HETATM   21  F   UNL     1     -47.148 -51.109  13.076  1.00  0.00    -0.166 F 
HETATM   22  F   UNL     1     -46.799 -52.872  14.312  1.00  0.00    -0.166 F 
HETATM   23  F   UNL     1     -46.155 -50.909  15.001  1.00  0.00    -0.166 F 
ENDBRANCH   3  20
TORSDOF 7
ENDMDL
