MODEL 1
REMARK VINA RESULT:      -6.8      0.000      0.000
REMARK  5 active torsions:
REMARK  status: ('A' for Active; 'I' for Inactive)
REMARK    1  A    between atoms: N_2  and  C_16 
REMARK    2  A    between atoms: N_4  and  C_7 
REMARK    3  A    between atoms: C_15  and  C_16 
REMARK    4  A    between atoms: C_15  and  C_27 
REMARK    5  A    between atoms: C_27  and  O_28 
ROOT
HETATM    1  C   UNL     1     -41.303 -47.358  12.099  1.00  0.00     0.122 A 
HETATM    2  N   UNL     1     -41.969 -45.390  12.750  1.00  0.00    -0.326 N 
HETATM    3  C   UNL     1     -42.207 -46.349  11.805  1.00  0.00     0.140 A 
HETATM    4  N   UNL     1     -40.518 -47.009  13.185  1.00  0.00    -0.346 N 
ATOM      5  HN  UNL     1     -39.758 -47.548  13.601  1.00  0.00     0.167 HD
HETATM    6  C   UNL     1     -41.381 -48.539  11.331  1.00  0.00     0.135 A 
HETATM    7  C   UNL     1     -40.962 -45.833  13.561  1.00  0.00     0.185 A 
HETATM    8  N   UNL     1     -43.131 -46.336  10.825  1.00  0.00    -0.336 N 
ATOM      9  HN  UNL     1     -43.755 -45.555  10.622  1.00  0.00     0.168 HD
HETATM   10  N   UNL     1     -42.331 -48.583  10.355  1.00  0.00    -0.337 N 
ATOM     11  HN  UNL     1     -42.450 -49.423   9.788  1.00  0.00     0.168 HD
HETATM   12  C   UNL     1     -43.113 -47.502  10.149  1.00  0.00     0.183 A 
ENDROOT
BRANCH   6  13
HETATM   13  N   UNL     1     -40.632 -49.653  11.619  1.00  0.00    -0.359 N 
HETATM   14  C   UNL     1     -41.263 -50.952  11.763  1.00  0.00     0.165 C 
HETATM   15  C   UNL     1     -40.604 -51.673  12.967  1.00  0.00     0.101 C 
HETATM   16  O   UNL     1     -39.163 -51.725  12.820  1.00  0.00    -0.364 OA
HETATM   17  C   UNL     1     -41.007 -51.093  14.319  1.00  0.00     0.068 C 
HETATM   18  C   UNL     1     -41.151 -53.108  13.054  1.00  0.00     0.207 C 
HETATM   19  C   UNL     1     -38.493 -50.470  12.531  1.00  0.00     0.071 C 
HETATM   20  C   UNL     1     -39.190 -49.683  11.388  1.00  0.00     0.161 C 
HETATM   21  C   UNL     1     -37.079 -50.865  12.077  1.00  0.00     0.047 C 
HETATM   22  C   UNL     1     -38.341 -49.597  13.786  1.00  0.00     0.047 C 
HETATM   23  C   UNL     1     -42.196 -51.917  14.735  1.00  0.00     0.170 C 
HETATM   24  O   UNL     1     -41.934 -53.234  14.255  1.00  0.00    -0.388 OA
ENDBRANCH   6  13
BRANCH   2  25
HETATM   25  C   UNL     1     -42.704 -44.152  12.936  1.00  0.00     0.147 C 
BRANCH  25  26
HETATM   26  C   UNL     1     -42.268 -43.043  11.990  1.00  0.00     0.040 C 
HETATM   27  C   UNL     1     -40.904 -43.220  11.292  1.00  0.00     0.183 C 
HETATM   28  O   UNL     1     -40.454 -41.932  11.780  1.00  0.00    -0.389 OA
HETATM   29  C   UNL     1     -41.552 -41.894  12.726  1.00  0.00     0.183 C 
BRANCH  26  30
HETATM   30  C   UNL     1     -43.345 -42.582  11.013  1.00  0.00     0.179 C 
BRANCH  30  31
HETATM   31  O   UNL     1     -43.589 -43.600  10.050  1.00  0.00    -0.400 OA
HETATM   32  H   UNL     1     -44.487 -43.947  10.224  1.00  0.00     0.209 HD
ENDBRANCH  30  31
ENDBRANCH  26  30
ENDBRANCH  25  26
ENDBRANCH   2  25
TORSDOF 5
ENDMDL
MODEL 2
REMARK VINA RESULT:      -6.8      2.168      3.741
REMARK  5 active torsions:
REMARK  status: ('A' for Active; 'I' for Inactive)
REMARK    1  A    between atoms: N_2  and  C_16 
REMARK    2  A    between atoms: N_4  and  C_7 
REMARK    3  A    between atoms: C_15  and  C_16 
REMARK    4  A    between atoms: C_15  and  C_27 
REMARK    5  A    between atoms: C_27  and  O_28 
ROOT
HETATM    1  C   UNL     1     -41.543 -49.697  12.015  1.00  0.00     0.122 A 
HETATM    2  N   UNL     1     -41.954 -47.765  11.097  1.00  0.00    -0.326 N 
HETATM    3  C   UNL     1     -40.932 -48.632  11.369  1.00  0.00     0.140 A 
HETATM    4  N   UNL     1     -42.902 -49.470  12.152  1.00  0.00    -0.346 N 
ATOM      5  HN  UNL     1     -43.589 -50.071  12.607  1.00  0.00     0.167 HD
HETATM    6  C   UNL     1     -40.733 -50.805  12.340  1.00  0.00     0.135 A 
HETATM    7  C   UNL     1     -43.113 -48.313  11.569  1.00  0.00     0.185 A 
HETATM    8  N   UNL     1     -39.628 -48.502  11.057  1.00  0.00    -0.336 N 
ATOM      9  HN  UNL     1     -39.215 -47.683  10.610  1.00  0.00     0.168 HD
HETATM   10  N   UNL     1     -39.415 -50.731  12.002  1.00  0.00    -0.337 N 
ATOM     11  HN  UNL     1     -38.789 -51.515  12.188  1.00  0.00     0.168 HD
HETATM   12  C   UNL     1     -38.947 -49.607  11.418  1.00  0.00     0.183 A 
ENDROOT
BRANCH   6  13
HETATM   13  N   UNL     1     -41.251 -51.967  12.854  1.00  0.00    -0.359 N 
HETATM   14  C   UNL     1     -42.331 -52.661  12.176  1.00  0.00     0.165 C 
HETATM   15  C   UNL     1     -43.335 -53.151  13.251  1.00  0.00     0.101 C 
HETATM   16  O   UNL     1     -42.668 -53.940  14.268  1.00  0.00    -0.364 OA
HETATM   17  C   UNL     1     -44.162 -52.027  13.869  1.00  0.00     0.068 C 
HETATM   18  C   UNL     1     -44.415 -54.013  12.575  1.00  0.00     0.207 C 
HETATM   19  C   UNL     1     -41.491 -53.350  14.880  1.00  0.00     0.071 C 
HETATM   20  C   UNL     1     -40.511 -52.768  13.826  1.00  0.00     0.161 C 
HETATM   21  C   UNL     1     -40.802 -54.508  15.620  1.00  0.00     0.047 C 
HETATM   22  C   UNL     1     -41.859 -52.292  15.933  1.00  0.00     0.047 C 
HETATM   23  C   UNL     1     -45.405 -51.975  13.023  1.00  0.00     0.170 C 
HETATM   24  O   UNL     1     -45.677 -53.326  12.659  1.00  0.00    -0.388 OA
ENDBRANCH   6  13
BRANCH   2  25
HETATM   25  C   UNL     1     -41.863 -46.520  10.356  1.00  0.00     0.147 C 
BRANCH  25  26
HETATM   26  C   UNL     1     -41.368 -45.353  11.198  1.00  0.00     0.040 C 
HETATM   27  C   UNL     1     -41.530 -45.478  12.726  1.00  0.00     0.183 C 
HETATM   28  O   UNL     1     -42.247 -44.221  12.785  1.00  0.00    -0.389 OA
HETATM   29  C   UNL     1     -42.433 -44.247  11.347  1.00  0.00     0.183 C 
BRANCH  26  30
HETATM   30  C   UNL     1     -39.984 -44.838  10.819  1.00  0.00     0.179 C 
BRANCH  30  31
HETATM   31  O   UNL     1     -39.394 -45.706   9.858  1.00  0.00    -0.400 OA
HETATM   32  H   UNL     1     -39.592 -46.621  10.143  1.00  0.00     0.209 HD
ENDBRANCH  30  31
ENDBRANCH  26  30
ENDBRANCH  25  26
ENDBRANCH   2  25
TORSDOF 5
ENDMDL
MODEL 3
REMARK VINA RESULT:      -6.5      2.403      7.809
REMARK  5 active torsions:
REMARK  status: ('A' for Active; 'I' for Inactive)
REMARK    1  A    between atoms: N_2  and  C_16 
REMARK    2  A    between atoms: N_4  and  C_7 
REMARK    3  A    between atoms: C_15  and  C_16 
REMARK    4  A    between atoms: C_15  and  C_27 
REMARK    5  A    between atoms: C_27  and  O_28 
ROOT
HETATM    1  C   UNL     1     -42.106 -49.991  12.238  1.00  0.00     0.122 A 
HETATM    2  N   UNL     1     -42.795 -51.474  13.676  1.00  0.00    -0.326 N 
HETATM    3  C   UNL     1     -41.711 -51.134  12.915  1.00  0.00     0.140 A 
HETATM    4  N   UNL     1     -43.410 -49.657  12.564  1.00  0.00    -0.346 N 
ATOM      5  HN  UNL     1     -43.962 -48.881  12.198  1.00  0.00     0.167 HD
HETATM    6  C   UNL     1     -41.141 -49.352  11.431  1.00  0.00     0.135 A 
HETATM    7  C   UNL     1     -43.780 -50.556  13.446  1.00  0.00     0.185 A 
HETATM    8  N   UNL     1     -40.515 -51.751  12.854  1.00  0.00    -0.336 N 
ATOM      9  HN  UNL     1     -40.278 -52.613  13.346  1.00  0.00     0.168 HD
HETATM   10  N   UNL     1     -39.904 -49.921  11.376  1.00  0.00    -0.337 N 
ATOM     11  HN  UNL     1     -39.159 -49.485  10.830  1.00  0.00     0.168 HD
HETATM   12  C   UNL     1     -39.675 -51.067  12.052  1.00  0.00     0.183 A 
ENDROOT
BRANCH   6  13
HETATM   13  N   UNL     1     -41.375 -48.144  10.825  1.00  0.00    -0.359 N 
HETATM   14  C   UNL     1     -40.574 -46.980  11.158  1.00  0.00     0.165 C 
HETATM   15  C   UNL     1     -41.522 -45.756  11.252  1.00  0.00     0.101 C 
HETATM   16  O   UNL     1     -42.308 -45.610  10.044  1.00  0.00    -0.364 OA
HETATM   17  C   UNL     1     -42.406 -45.766  12.496  1.00  0.00     0.068 C 
HETATM   18  C   UNL     1     -40.682 -44.485  11.462  1.00  0.00     0.207 C 
HETATM   19  C   UNL     1     -43.019 -46.790   9.584  1.00  0.00     0.071 C 
HETATM   20  C   UNL     1     -42.114 -48.051   9.568  1.00  0.00     0.161 C 
HETATM   21  C   UNL     1     -43.448 -46.463   8.144  1.00  0.00     0.047 C 
HETATM   22  C   UNL     1     -44.299 -47.042  10.394  1.00  0.00     0.047 C 
HETATM   23  C   UNL     1     -41.621 -44.982  13.513  1.00  0.00     0.170 C 
HETATM   24  O   UNL     1     -40.952 -43.961  12.775  1.00  0.00    -0.388 OA
ENDBRANCH   6  13
BRANCH   2  25
HETATM   25  C   UNL     1     -42.877 -52.559  14.636  1.00  0.00     0.147 C 
BRANCH  25  26
HETATM   26  C   UNL     1     -43.924 -53.604  14.278  1.00  0.00     0.040 C 
HETATM   27  C   UNL     1     -45.247 -53.564  15.070  1.00  0.00     0.183 C 
HETATM   28  O   UNL     1     -45.098 -54.954  15.448  1.00  0.00    -0.389 OA
HETATM   29  C   UNL     1     -43.708 -54.930  15.034  1.00  0.00     0.183 C 
BRANCH  26  30
HETATM   30  C   UNL     1     -44.168 -53.772  12.783  1.00  0.00     0.179 C 
BRANCH  30  31
HETATM   31  O   UNL     1     -45.563 -53.905  12.535  1.00  0.00    -0.400 OA
HETATM   32  H   UNL     1     -45.950 -54.346  13.319  1.00  0.00     0.209 HD
ENDBRANCH  30  31
ENDBRANCH  26  30
ENDBRANCH  25  26
ENDBRANCH   2  25
TORSDOF 5
ENDMDL
MODEL 4
REMARK VINA RESULT:      -6.3      2.960      7.299
REMARK  5 active torsions:
REMARK  status: ('A' for Active; 'I' for Inactive)
REMARK    1  A    between atoms: N_2  and  C_16 
REMARK    2  A    between atoms: N_4  and  C_7 
REMARK    3  A    between atoms: C_15  and  C_16 
REMARK    4  A    between atoms: C_15  and  C_27 
REMARK    5  A    between atoms: C_27  and  O_28 
ROOT
HETATM    1  C   UNL     1     -39.422 -48.976  13.203  1.00  0.00     0.122 A 
HETATM    2  N   UNL     1     -38.595 -49.895  14.996  1.00  0.00    -0.326 N 
HETATM    3  C   UNL     1     -38.432 -49.843  13.639  1.00  0.00     0.140 A 
HETATM    4  N   UNL     1     -40.184 -48.530  14.269  1.00  0.00    -0.346 N 
ATOM      5  HN  UNL     1     -40.990 -47.906  14.238  1.00  0.00     0.167 HD
HETATM    6  C   UNL     1     -39.439 -48.655  11.830  1.00  0.00     0.135 A 
HETATM    7  C   UNL     1     -39.643 -49.084  15.329  1.00  0.00     0.185 A 
HETATM    8  N   UNL     1     -37.502 -50.468  12.891  1.00  0.00    -0.336 N 
ATOM      9  HN  UNL     1     -36.811 -51.127  13.251  1.00  0.00     0.168 HD
HETATM   10  N   UNL     1     -38.487 -49.233  11.045  1.00  0.00    -0.337 N 
ATOM     11  HN  UNL     1     -38.436 -49.014  10.049  1.00  0.00     0.168 HD
HETATM   12  C   UNL     1     -37.613 -50.100  11.600  1.00  0.00     0.183 A 
ENDROOT
BRANCH   6  13
HETATM   13  N   UNL     1     -40.283 -47.706  11.309  1.00  0.00    -0.359 N 
HETATM   14  C   UNL     1     -39.796 -46.377  10.986  1.00  0.00     0.165 C 
HETATM   15  C   UNL     1     -40.867 -45.351  11.436  1.00  0.00     0.101 C 
HETATM   16  O   UNL     1     -42.162 -45.663  10.866  1.00  0.00    -0.364 OA
HETATM   17  C   UNL     1     -40.949 -45.182  12.951  1.00  0.00     0.068 C 
HETATM   18  C   UNL     1     -40.442 -43.946  10.977  1.00  0.00     0.207 C 
HETATM   19  C   UNL     1     -42.636 -47.025  11.036  1.00  0.00     0.071 C 
HETATM   20  C   UNL     1     -41.549 -48.074  10.679  1.00  0.00     0.161 C 
HETATM   21  C   UNL     1     -43.811 -47.166  10.055  1.00  0.00     0.047 C 
HETATM   22  C   UNL     1     -43.192 -47.268  12.448  1.00  0.00     0.047 C 
HETATM   23  C   UNL     1     -40.019 -44.037  13.246  1.00  0.00     0.170 C 
HETATM   24  O   UNL     1     -40.143 -43.149  12.137  1.00  0.00    -0.388 OA
ENDBRANCH   6  13
BRANCH   2  25
HETATM   25  C   UNL     1     -37.758 -50.605  15.945  1.00  0.00     0.147 C 
BRANCH  25  26
HETATM   26  C   UNL     1     -36.845 -49.689  16.748  1.00  0.00     0.040 C 
HETATM   27  C   UNL     1     -36.273 -48.459  16.014  1.00  0.00     0.183 C 
HETATM   28  O   UNL     1     -34.921 -48.842  16.361  1.00  0.00    -0.389 OA
HETATM   29  C   UNL     1     -35.379 -50.166  16.734  1.00  0.00     0.183 C 
BRANCH  26  30
HETATM   30  C   UNL     1     -37.369 -49.325  18.133  1.00  0.00     0.179 C 
BRANCH  30  31
HETATM   31  O   UNL     1     -37.008 -47.985  18.447  1.00  0.00    -0.400 OA
HETATM   32  H   UNL     1     -36.248 -47.754  17.874  1.00  0.00     0.209 HD
ENDBRANCH  30  31
ENDBRANCH  26  30
ENDBRANCH  25  26
ENDBRANCH   2  25
TORSDOF 5
ENDMDL
MODEL 5
REMARK VINA RESULT:      -6.3      3.152      7.552
REMARK  5 active torsions:
REMARK  status: ('A' for Active; 'I' for Inactive)
REMARK    1  A    between atoms: N_2  and  C_16 
REMARK    2  A    between atoms: N_4  and  C_7 
REMARK    3  A    between atoms: C_15  and  C_16 
REMARK    4  A    between atoms: C_15  and  C_27 
REMARK    5  A    between atoms: C_27  and  O_28 
ROOT
HETATM    1  C   UNL     1     -42.326 -50.753  13.077  1.00  0.00     0.122 A 
HETATM    2  N   UNL     1     -43.425 -52.229  14.241  1.00  0.00    -0.326 N 
HETATM    3  C   UNL     1     -42.549 -52.116  13.198  1.00  0.00     0.140 A 
HETATM    4  N   UNL     1     -43.068 -50.052  14.012  1.00  0.00    -0.346 N 
ATOM      5  HN  UNL     1     -43.117 -49.041  14.135  1.00  0.00     0.167 HD
HETATM    6  C   UNL     1     -41.375 -50.336  12.122  1.00  0.00     0.135 A 
HETATM    7  C   UNL     1     -43.696 -50.973  14.707  1.00  0.00     0.185 A 
HETATM    8  N   UNL     1     -41.999 -53.104  12.466  1.00  0.00    -0.336 N 
ATOM      9  HN  UNL     1     -42.219 -54.096  12.566  1.00  0.00     0.168 HD
HETATM   10  N   UNL     1     -40.764 -51.309  11.389  1.00  0.00    -0.337 N 
ATOM     11  HN  UNL     1     -40.048 -51.066  10.704  1.00  0.00     0.168 HD
HETATM   12  C   UNL     1     -41.118 -52.598  11.581  1.00  0.00     0.183 A 
ENDROOT
BRANCH   6  13
HETATM   13  N   UNL     1     -40.973 -49.029  12.008  1.00  0.00    -0.359 N 
HETATM   14  C   UNL     1     -39.759 -48.568  12.658  1.00  0.00     0.165 C 
HETATM   15  C   UNL     1     -40.043 -47.171  13.267  1.00  0.00     0.101 C 
HETATM   16  O   UNL     1     -40.564 -46.261  12.268  1.00  0.00    -0.364 OA
HETATM   17  C   UNL     1     -40.938 -47.216  14.502  1.00  0.00     0.068 C 
HETATM   18  C   UNL     1     -38.734 -46.596  13.836  1.00  0.00     0.207 C 
HETATM   19  C   UNL     1     -41.694 -46.731  11.486  1.00  0.00     0.071 C 
HETATM   20  C   UNL     1     -41.473 -48.167  10.940  1.00  0.00     0.161 C 
HETATM   21  C   UNL     1     -41.797 -45.755  10.303  1.00  0.00     0.047 C 
HETATM   22  C   UNL     1     -43.013 -46.637  12.269  1.00  0.00     0.047 C 
HETATM   23  C   UNL     1     -39.973 -47.300  15.655  1.00  0.00     0.170 C 
HETATM   24  O   UNL     1     -38.848 -46.513  15.269  1.00  0.00    -0.388 OA
ENDBRANCH   6  13
BRANCH   2  25
HETATM   25  C   UNL     1     -43.922 -53.459  14.830  1.00  0.00     0.147 C 
BRANCH  25  26
HETATM   26  C   UNL     1     -45.351 -53.787  14.424  1.00  0.00     0.040 C 
HETATM   27  C   UNL     1     -46.076 -52.758  13.533  1.00  0.00     0.183 C 
HETATM   28  O   UNL     1     -47.175 -52.673  14.472  1.00  0.00    -0.389 OA
HETATM   29  C   UNL     1     -46.377 -53.338  15.484  1.00  0.00     0.183 C 
BRANCH  26  30
HETATM   30  C   UNL     1     -45.558 -55.212  13.921  1.00  0.00     0.179 C 
BRANCH  30  31
HETATM   31  O   UNL     1     -46.848 -55.674  14.302  1.00  0.00    -0.400 OA
HETATM   32  H   UNL     1     -47.466 -54.925  14.179  1.00  0.00     0.209 HD
ENDBRANCH  30  31
ENDBRANCH  26  30
ENDBRANCH  25  26
ENDBRANCH   2  25
TORSDOF 5
ENDMDL
MODEL 6
REMARK VINA RESULT:      -6.2      2.310      4.108
REMARK  5 active torsions:
REMARK  status: ('A' for Active; 'I' for Inactive)
REMARK    1  A    between atoms: N_2  and  C_16 
REMARK    2  A    between atoms: N_4  and  C_7 
REMARK    3  A    between atoms: C_15  and  C_16 
REMARK    4  A    between atoms: C_15  and  C_27 
REMARK    5  A    between atoms: C_27  and  O_28 
ROOT
HETATM    1  C   UNL     1     -41.409 -48.814  13.405  1.00  0.00     0.122 A 
HETATM    2  N   UNL     1     -40.392 -46.916  13.084  1.00  0.00    -0.326 N 
HETATM    3  C   UNL     1     -40.565 -48.152  12.527  1.00  0.00     0.140 A 
HETATM    4  N   UNL     1     -41.723 -48.006  14.484  1.00  0.00    -0.346 N 
ATOM      5  HN  UNL     1     -42.301 -48.242  15.290  1.00  0.00     0.167 HD
HETATM    6  C   UNL     1     -41.842 -50.105  13.034  1.00  0.00     0.135 A 
HETATM    7  C   UNL     1     -41.113 -46.868  14.244  1.00  0.00     0.185 A 
HETATM    8  N   UNL     1     -40.057 -48.618  11.369  1.00  0.00    -0.336 N 
ATOM      9  HN  UNL     1     -39.410 -48.106  10.769  1.00  0.00     0.168 HD
HETATM   10  N   UNL     1     -41.385 -50.597  11.849  1.00  0.00    -0.337 N 
ATOM     11  HN  UNL     1     -41.688 -51.513  11.518  1.00  0.00     0.168 HD
HETATM   12  C   UNL     1     -40.525 -49.857  11.117  1.00  0.00     0.183 A 
ENDROOT
BRANCH   6  13
HETATM   13  N   UNL     1     -42.783 -50.798  13.754  1.00  0.00    -0.359 N 
HETATM   14  C   UNL     1     -42.437 -51.422  15.018  1.00  0.00     0.165 C 
HETATM   15  C   UNL     1     -43.120 -52.813  15.069  1.00  0.00     0.101 C 
HETATM   16  O   UNL     1     -44.545 -52.704  14.831  1.00  0.00    -0.364 OA
HETATM   17  C   UNL     1     -42.476 -53.842  14.143  1.00  0.00     0.068 C 
HETATM   18  C   UNL     1     -42.888 -53.437  16.456  1.00  0.00     0.207 C 
HETATM   19  C   UNL     1     -44.953 -51.963  13.651  1.00  0.00     0.071 C 
HETATM   20  C   UNL     1     -44.213 -50.603  13.528  1.00  0.00     0.161 C 
HETATM   21  C   UNL     1     -46.455 -51.700  13.842  1.00  0.00     0.047 C 
HETATM   22  C   UNL     1     -44.795 -52.793  12.368  1.00  0.00     0.047 C 
HETATM   23  C   UNL     1     -41.459 -54.534  15.010  1.00  0.00     0.170 C 
HETATM   24  O   UNL     1     -42.042 -54.592  16.310  1.00  0.00    -0.388 OA
ENDBRANCH   6  13
BRANCH   2  25
HETATM   25  C   UNL     1     -39.653 -45.803  12.518  1.00  0.00     0.147 C 
BRANCH  25  26
HETATM   26  C   UNL     1     -40.485 -44.942  11.579  1.00  0.00     0.040 C 
HETATM   27  C   UNL     1     -41.922 -45.419  11.287  1.00  0.00     0.183 C 
HETATM   28  O   UNL     1     -41.676 -45.387   9.861  1.00  0.00    -0.389 OA
HETATM   29  C   UNL     1     -40.248 -45.296  10.097  1.00  0.00     0.183 C 
BRANCH  26  30
HETATM   30  C   UNL     1     -40.438 -43.447  11.878  1.00  0.00     0.179 C 
BRANCH  30  31
HETATM   31  O   UNL     1     -40.580 -42.710  10.669  1.00  0.00    -0.400 OA
HETATM   32  H   UNL     1     -41.428 -42.225  10.730  1.00  0.00     0.209 HD
ENDBRANCH  30  31
ENDBRANCH  26  30
ENDBRANCH  25  26
ENDBRANCH   2  25
TORSDOF 5
ENDMDL
MODEL 7
REMARK VINA RESULT:      -6.2      3.161      5.535
REMARK  5 active torsions:
REMARK  status: ('A' for Active; 'I' for Inactive)
REMARK    1  A    between atoms: N_2  and  C_16 
REMARK    2  A    between atoms: N_4  and  C_7 
REMARK    3  A    between atoms: C_15  and  C_16 
REMARK    4  A    between atoms: C_15  and  C_27 
REMARK    5  A    between atoms: C_27  and  O_28 
ROOT
HETATM    1  C   UNL     1     -42.576 -50.734  13.229  1.00  0.00     0.122 A 
HETATM    2  N   UNL     1     -42.022 -48.957  12.099  1.00  0.00    -0.326 N 
HETATM    3  C   UNL     1     -41.774 -50.298  12.185  1.00  0.00     0.140 A 
HETATM    4  N   UNL     1     -43.279 -49.675  13.780  1.00  0.00    -0.346 N 
ATOM      5  HN  UNL     1     -43.921 -49.701  14.572  1.00  0.00     0.167 HD
HETATM    6  C   UNL     1     -42.596 -52.120  13.493  1.00  0.00     0.135 A 
HETATM    7  C   UNL     1     -42.938 -48.631  13.060  1.00  0.00     0.185 A 
HETATM    8  N   UNL     1     -40.958 -51.042  11.414  1.00  0.00    -0.336 N 
ATOM      9  HN  UNL     1     -40.358 -50.673  10.676  1.00  0.00     0.168 HD
HETATM   10  N   UNL     1     -41.816 -52.913  12.706  1.00  0.00    -0.337 N 
ATOM     11  HN  UNL     1     -41.814 -53.925  12.835  1.00  0.00     0.168 HD
HETATM   12  C   UNL     1     -41.046 -52.343  11.755  1.00  0.00     0.183 A 
ENDROOT
BRANCH   6  13
HETATM   13  N   UNL     1     -43.453 -52.680  14.408  1.00  0.00    -0.359 N 
HETATM   14  C   UNL     1     -43.023 -52.924  15.773  1.00  0.00     0.165 C 
HETATM   15  C   UNL     1     -43.572 -54.308  16.208  1.00  0.00     0.101 C 
HETATM   16  O   UNL     1     -45.006 -54.385  16.014  1.00  0.00    -0.364 OA
HETATM   17  C   UNL     1     -42.855 -55.482  15.548  1.00  0.00     0.068 C 
HETATM   18  C   UNL     1     -43.254 -54.529  17.697  1.00  0.00     0.207 C 
HETATM   19  C   UNL     1     -45.506 -54.011  14.703  1.00  0.00     0.071 C 
HETATM   20  C   UNL     1     -44.899 -52.672  14.203  1.00  0.00     0.161 C 
HETATM   21  C   UNL     1     -47.022 -53.836  14.887  1.00  0.00     0.047 C 
HETATM   22  C   UNL     1     -45.299 -55.129  13.669  1.00  0.00     0.047 C 
HETATM   23  C   UNL     1     -41.759 -55.838  16.517  1.00  0.00     0.170 C 
HETATM   24  O   UNL     1     -42.307 -55.606  17.813  1.00  0.00    -0.388 OA
ENDBRANCH   6  13
BRANCH   2  25
HETATM   25  C   UNL     1     -41.492 -48.036  11.111  1.00  0.00     0.147 C 
BRANCH  25  26
HETATM   26  C   UNL     1     -40.571 -46.979  11.704  1.00  0.00     0.040 C 
HETATM   27  C   UNL     1     -41.242 -45.715  12.278  1.00  0.00     0.183 C 
HETATM   28  O   UNL     1     -40.420 -44.863  11.444  1.00  0.00    -0.389 OA
HETATM   29  C   UNL     1     -40.036 -46.004  10.636  1.00  0.00     0.183 C 
BRANCH  26  30
HETATM   30  C   UNL     1     -39.500 -47.524  12.643  1.00  0.00     0.179 C 
BRANCH  30  31
HETATM   31  O   UNL     1     -38.981 -46.469  13.444  1.00  0.00    -0.400 OA
HETATM   32  H   UNL     1     -38.767 -45.731  12.837  1.00  0.00     0.209 HD
ENDBRANCH  30  31
ENDBRANCH  26  30
ENDBRANCH  25  26
ENDBRANCH   2  25
TORSDOF 5
ENDMDL
MODEL 8
REMARK VINA RESULT:      -6.0      2.562      3.758
REMARK  5 active torsions:
REMARK  status: ('A' for Active; 'I' for Inactive)
REMARK    1  A    between atoms: N_2  and  C_16 
REMARK    2  A    between atoms: N_4  and  C_7 
REMARK    3  A    between atoms: C_15  and  C_16 
REMARK    4  A    between atoms: C_15  and  C_27 
REMARK    5  A    between atoms: C_27  and  O_28 
ROOT
HETATM    1  C   UNL     1     -42.666 -49.179  12.741  1.00  0.00     0.122 A 
HETATM    2  N   UNL     1     -42.407 -47.174  11.932  1.00  0.00    -0.326 N 
HETATM    3  C   UNL     1     -42.678 -47.839  13.095  1.00  0.00     0.140 A 
HETATM    4  N   UNL     1     -42.415 -49.324  11.387  1.00  0.00    -0.346 N 
ATOM      5  HN  UNL     1     -42.374 -50.191  10.852  1.00  0.00     0.167 HD
HETATM    6  C   UNL     1     -42.828 -50.123  13.777  1.00  0.00     0.135 A 
HETATM    7  C   UNL     1     -42.243 -48.101  10.941  1.00  0.00     0.185 A 
HETATM    8  N   UNL     1     -42.883 -47.317  14.320  1.00  0.00    -0.336 N 
ATOM      9  HN  UNL     1     -42.917 -46.319  14.530  1.00  0.00     0.168 HD
HETATM   10  N   UNL     1     -42.996 -49.636  15.039  1.00  0.00    -0.337 N 
ATOM     11  HN  UNL     1     -43.090 -50.274  15.830  1.00  0.00     0.168 HD
HETATM   12  C   UNL     1     -43.036 -48.300  15.230  1.00  0.00     0.183 A 
ENDROOT
BRANCH   6  13
HETATM   13  N   UNL     1     -42.697 -51.473  13.568  1.00  0.00    -0.359 N 
HETATM   14  C   UNL     1     -43.823 -52.264  13.105  1.00  0.00     0.165 C 
HETATM   15  C   UNL     1     -43.822 -53.603  13.888  1.00  0.00     0.101 C 
HETATM   16  O   UNL     1     -42.541 -54.271  13.777  1.00  0.00    -0.364 OA
HETATM   17  C   UNL     1     -44.252 -53.456  15.344  1.00  0.00     0.068 C 
HETATM   18  C   UNL     1     -44.918 -54.519  13.317  1.00  0.00     0.207 C 
HETATM   19  C   UNL     1     -41.365 -53.479  14.091  1.00  0.00     0.071 C 
HETATM   20  C   UNL     1     -41.387 -52.094  13.391  1.00  0.00     0.161 C 
HETATM   21  C   UNL     1     -40.178 -54.294  13.553  1.00  0.00     0.047 C 
HETATM   22  C   UNL     1     -41.162 -53.327  15.607  1.00  0.00     0.047 C 
HETATM   23  C   UNL     1     -45.736 -53.706  15.319  1.00  0.00     0.170 C 
HETATM   24  O   UNL     1     -45.938 -54.699  14.316  1.00  0.00    -0.388 OA
ENDBRANCH   6  13
BRANCH   2  25
HETATM   25  C   UNL     1     -42.228 -45.743  11.770  1.00  0.00     0.147 C 
BRANCH  25  26
HETATM   26  C   UNL     1     -40.786 -45.291  11.953  1.00  0.00     0.040 C 
HETATM   27  C   UNL     1     -39.791 -46.340  12.489  1.00  0.00     0.183 C 
HETATM   28  O   UNL     1     -39.397 -45.460  13.569  1.00  0.00    -0.389 OA
HETATM   29  C   UNL     1     -40.553 -44.621  13.321  1.00  0.00     0.183 C 
BRANCH  26  30
HETATM   30  C   UNL     1     -40.208 -44.518  10.773  1.00  0.00     0.179 C 
BRANCH  30  31
HETATM   31  O   UNL     1     -40.413 -45.250   9.571  1.00  0.00    -0.400 OA
HETATM   32  H   UNL     1     -41.367 -45.190   9.360  1.00  0.00     0.209 HD
ENDBRANCH  30  31
ENDBRANCH  26  30
ENDBRANCH  25  26
ENDBRANCH   2  25
TORSDOF 5
ENDMDL
MODEL 9
REMARK VINA RESULT:      -6.0      1.415      1.720
REMARK  5 active torsions:
REMARK  status: ('A' for Active; 'I' for Inactive)
REMARK    1  A    between atoms: N_2  and  C_16 
REMARK    2  A    between atoms: N_4  and  C_7 
REMARK    3  A    between atoms: C_15  and  C_16 
REMARK    4  A    between atoms: C_15  and  C_27 
REMARK    5  A    between atoms: C_27  and  O_28 
ROOT
HETATM    1  C   UNL     1     -41.106 -46.989  11.495  1.00  0.00     0.122 A 
HETATM    2  N   UNL     1     -41.304 -44.842  11.188  1.00  0.00    -0.326 N 
HETATM    3  C   UNL     1     -41.886 -45.894  11.838  1.00  0.00     0.140 A 
HETATM    4  N   UNL     1     -40.086 -46.612  10.638  1.00  0.00    -0.346 N 
ATOM      5  HN  UNL     1     -39.382 -47.212  10.210  1.00  0.00     0.167 HD
HETATM    6  C   UNL     1     -41.422 -48.222  12.104  1.00  0.00     0.135 A 
HETATM    7  C   UNL     1     -40.224 -45.314  10.496  1.00  0.00     0.185 A 
HETATM    8  N   UNL     1     -42.958 -45.875  12.653  1.00  0.00    -0.336 N 
ATOM      9  HN  UNL     1     -43.525 -45.050  12.851  1.00  0.00     0.168 HD
HETATM   10  N   UNL     1     -42.475 -48.236  12.968  1.00  0.00    -0.337 N 
ATOM     11  HN  UNL     1     -42.729 -49.094  13.458  1.00  0.00     0.168 HD
HETATM   12  C   UNL     1     -43.177 -47.101  13.170  1.00  0.00     0.183 A 
ENDROOT
BRANCH   6  13
HETATM   13  N   UNL     1     -40.639 -49.339  11.947  1.00  0.00    -0.359 N 
HETATM   14  C   UNL     1     -41.238 -50.659  11.881  1.00  0.00     0.165 C 
HETATM   15  C   UNL     1     -40.354 -51.628  12.709  1.00  0.00     0.101 C 
HETATM   16  O   UNL     1     -38.974 -51.579  12.272  1.00  0.00    -0.364 OA
HETATM   17  C   UNL     1     -40.471 -51.420  14.216  1.00  0.00     0.068 C 
HETATM   18  C   UNL     1     -40.884 -53.062  12.538  1.00  0.00     0.207 C 
HETATM   19  C   UNL     1     -38.366 -50.263  12.182  1.00  0.00     0.071 C 
HETATM   20  C   UNL     1     -39.274 -49.248  11.436  1.00  0.00     0.161 C 
HETATM   21  C   UNL     1     -37.076 -50.471  11.373  1.00  0.00     0.047 C 
HETATM   22  C   UNL     1     -37.956 -49.723  13.562  1.00  0.00     0.047 C 
HETATM   23  C   UNL     1     -41.558 -52.372  14.638  1.00  0.00     0.170 C 
HETATM   24  O   UNL     1     -41.409 -53.516  13.799  1.00  0.00    -0.388 OA
ENDBRANCH   6  13
BRANCH   2  25
HETATM   25  C   UNL     1     -41.689 -43.445  11.276  1.00  0.00     0.147 C 
BRANCH  25  26
HETATM   26  C   UNL     1     -41.182 -42.759  12.536  1.00  0.00     0.040 C 
HETATM   27  C   UNL     1     -40.134 -41.643  12.348  1.00  0.00     0.183 C 
HETATM   28  O   UNL     1     -39.224 -42.301  13.263  1.00  0.00    -0.389 OA
HETATM   29  C   UNL     1     -40.008 -43.519  13.184  1.00  0.00     0.183 C 
BRANCH  26  30
HETATM   30  C   UNL     1     -42.274 -42.345  13.517  1.00  0.00     0.179 C 
BRANCH  30  31
HETATM   31  O   UNL     1     -43.450 -43.110  13.279  1.00  0.00    -0.400 OA
HETATM   32  H   UNL     1     -43.644 -43.597  14.106  1.00  0.00     0.209 HD
ENDBRANCH  30  31
ENDBRANCH  26  30
ENDBRANCH  25  26
ENDBRANCH   2  25
TORSDOF 5
ENDMDL
