MODEL 1
REMARK VINA RESULT:      -5.6      0.000      0.000
REMARK  6 active torsions:
REMARK  status: ('A' for Active; 'I' for Inactive)
REMARK    1  A    between atoms: C_5  and  C_6 
REMARK    2  A    between atoms: C_6  and  N_7 
REMARK    3  A    between atoms: N_7  and  C_8 
REMARK    4  A    between atoms: C_8  and  C_9 
REMARK    5  A    between atoms: C_9  and  N_10 
REMARK    6  A    between atoms: C_9  and  C_13 
ROOT
HETATM    1  C   UNL     1     -41.382 -52.624  12.326  1.00  0.00     0.310 C 
ENDROOT
BRANCH   1   2
HETATM    2  N   UNL     1     -42.746 -52.623  11.781  1.00  0.00     0.086 N 
HETATM    3  H   UNL     1     -43.012 -51.653  11.661  1.00  0.00     0.315 HD
BRANCH   2   4
HETATM    4  C   UNL     1     -43.701 -53.233  12.707  1.00  0.00     0.274 C 
BRANCH   4   5
HETATM    5  C   UNL     1     -43.972 -52.295  13.907  1.00  0.00     0.014 C 
HETATM    6  C   UNL     1     -44.481 -53.015  15.171  1.00  0.00     0.007 C 
HETATM    7  C   UNL     1     -45.901 -53.558  15.008  1.00  0.00     0.005 C 
HETATM    8  C   UNL     1     -46.901 -52.471  14.590  1.00  0.00    -0.019 C 
HETATM    9  C   UNL     1     -47.218 -51.528  15.754  1.00  0.00     0.010 C 
HETATM   10  C   UNL     1     -46.401 -51.699  13.360  1.00  0.00     0.005 C 
HETATM   11  C   UNL     1     -44.965 -51.188  13.512  1.00  0.00     0.007 C 
ENDBRANCH   4   5
ENDBRANCH   2   4
ENDBRANCH   1   2
BRANCH   1  12
HETATM   12  C   UNL     1     -40.938 -51.271  12.992  1.00  0.00     0.285 C 
BRANCH  12  13
HETATM   13  N   UNL     1     -39.534 -51.118  13.455  1.00  0.00     0.090 N 
HETATM   14  C   UNL     1     -39.304 -49.983  14.342  1.00  0.00     0.310 C 
HETATM   15  C   UNL     1     -38.921 -52.330  13.988  1.00  0.00     0.310 C 
ENDBRANCH  12  13
BRANCH  12  16
HETATM   16  C   UNL     1     -41.284 -50.108  12.081  1.00  0.00     0.011 A 
HETATM   17  C   UNL     1     -40.646 -49.722  10.875  1.00  0.00     0.118 A 
HETATM   18  N   UNL     1     -41.233 -48.683  10.280  1.00  0.00    -0.310 N 
HETATM   19  N   UNL     1     -42.243 -48.378  11.110  1.00  0.00    -0.308 N 
ATOM     20  HN  UNL     1     -40.976 -48.229   9.403  1.00  0.00     0.186 HD
HETATM   21  C   UNL     1     -43.151 -47.310  10.770  1.00  0.00     0.177 C 
HETATM   22  C   UNL     1     -42.313 -49.191  12.204  1.00  0.00     0.120 A 
ENDBRANCH  12  16
ENDBRANCH   1  12
TORSDOF 6
ENDMDL
MODEL 2
REMARK VINA RESULT:      -5.6      1.352      1.500
REMARK  6 active torsions:
REMARK  status: ('A' for Active; 'I' for Inactive)
REMARK    1  A    between atoms: C_5  and  C_6 
REMARK    2  A    between atoms: C_6  and  N_7 
REMARK    3  A    between atoms: N_7  and  C_8 
REMARK    4  A    between atoms: C_8  and  C_9 
REMARK    5  A    between atoms: C_9  and  N_10 
REMARK    6  A    between atoms: C_9  and  C_13 
ROOT
HETATM    1  C   UNL     1     -40.994 -52.856  12.223  1.00  0.00     0.310 C 
ENDROOT
BRANCH   1   2
HETATM    2  N   UNL     1     -42.313 -52.401  11.766  1.00  0.00     0.086 N 
HETATM    3  H   UNL     1     -42.355 -51.404  11.938  1.00  0.00     0.315 HD
BRANCH   2   4
HETATM    4  C   UNL     1     -43.397 -53.028  12.524  1.00  0.00     0.274 C 
BRANCH   4   5
HETATM    5  C   UNL     1     -43.726 -52.199  13.788  1.00  0.00     0.014 C 
HETATM    6  C   UNL     1     -44.359 -53.015  14.933  1.00  0.00     0.007 C 
HETATM    7  C   UNL     1     -45.780 -53.476  14.611  1.00  0.00     0.005 C 
HETATM    8  C   UNL     1     -46.704 -52.311  14.230  1.00  0.00    -0.019 C 
HETATM    9  C   UNL     1     -47.077 -51.472  15.456  1.00  0.00     0.010 C 
HETATM   10  C   UNL     1     -46.081 -51.446  13.125  1.00  0.00     0.005 C 
HETATM   11  C   UNL     1     -44.644 -51.016  13.433  1.00  0.00     0.007 C 
ENDBRANCH   4   5
ENDBRANCH   2   4
ENDBRANCH   1   2
BRANCH   1  12
HETATM   12  C   UNL     1     -40.293 -51.905  13.262  1.00  0.00     0.285 C 
BRANCH  12  13
HETATM   13  N   UNL     1     -39.140 -52.416  14.048  1.00  0.00     0.090 N 
HETATM   14  C   UNL     1     -38.945 -51.763  15.338  1.00  0.00     0.310 C 
HETATM   15  C   UNL     1     -39.075 -53.867  14.183  1.00  0.00     0.310 C 
ENDBRANCH  12  13
BRANCH  12  16
HETATM   16  C   UNL     1     -39.891 -50.609  12.586  1.00  0.00     0.011 A 
HETATM   17  C   UNL     1     -38.695 -50.326  11.877  1.00  0.00     0.118 A 
HETATM   18  N   UNL     1     -38.674 -49.101  11.351  1.00  0.00    -0.310 N 
HETATM   19  N   UNL     1     -39.849 -48.577  11.734  1.00  0.00    -0.308 N 
ATOM     20  HN  UNL     1     -37.941 -48.666  10.791  1.00  0.00     0.186 HD
HETATM   21  C   UNL     1     -40.213 -47.248  11.306  1.00  0.00     0.177 C 
HETATM   22  C   UNL     1     -40.609 -49.431  12.480  1.00  0.00     0.120 A 
ENDBRANCH  12  16
ENDBRANCH   1  12
TORSDOF 6
ENDMDL
MODEL 3
REMARK VINA RESULT:      -5.6      2.608      4.067
REMARK  6 active torsions:
REMARK  status: ('A' for Active; 'I' for Inactive)
REMARK    1  A    between atoms: C_5  and  C_6 
REMARK    2  A    between atoms: C_6  and  N_7 
REMARK    3  A    between atoms: N_7  and  C_8 
REMARK    4  A    between atoms: C_8  and  C_9 
REMARK    5  A    between atoms: C_9  and  N_10 
REMARK    6  A    between atoms: C_9  and  C_13 
ROOT
HETATM    1  C   UNL     1     -42.392 -54.157  16.470  1.00  0.00     0.310 C 
ENDROOT
BRANCH   1   2
HETATM    2  N   UNL     1     -43.439 -54.586  15.533  1.00  0.00     0.086 N 
HETATM    3  H   UNL     1     -43.105 -54.368  14.602  1.00  0.00     0.315 HD
BRANCH   2   4
HETATM    4  C   UNL     1     -44.688 -53.852  15.740  1.00  0.00     0.274 C 
BRANCH   4   5
HETATM    5  C   UNL     1     -45.666 -54.102  14.569  1.00  0.00     0.014 C 
HETATM    6  C   UNL     1     -45.037 -53.935  13.172  1.00  0.00     0.007 C 
HETATM    7  C   UNL     1     -44.696 -52.480  12.851  1.00  0.00     0.005 C 
HETATM    8  C   UNL     1     -45.908 -51.548  12.990  1.00  0.00    -0.019 C 
HETATM    9  C   UNL     1     -46.897 -51.744  11.837  1.00  0.00     0.010 C 
HETATM   10  C   UNL     1     -46.591 -51.726  14.354  1.00  0.00     0.005 C 
HETATM   11  C   UNL     1     -46.898 -53.188  14.690  1.00  0.00     0.007 C 
ENDBRANCH   4   5
ENDBRANCH   2   4
ENDBRANCH   1   2
BRANCH   1  12
HETATM   12  C   UNL     1     -40.932 -54.197  15.890  1.00  0.00     0.285 C 
BRANCH  12  13
HETATM   13  N   UNL     1     -40.176 -55.477  15.920  1.00  0.00     0.090 N 
HETATM   14  C   UNL     1     -38.729 -55.328  16.037  1.00  0.00     0.310 C 
HETATM   15  C   UNL     1     -40.676 -56.470  16.864  1.00  0.00     0.310 C 
ENDBRANCH  12  13
BRANCH  12  16
HETATM   16  C   UNL     1     -40.923 -53.656  14.473  1.00  0.00     0.011 A 
HETATM   17  C   UNL     1     -40.899 -54.385  13.257  1.00  0.00     0.118 A 
HETATM   18  N   UNL     1     -40.957 -53.607  12.177  1.00  0.00    -0.310 N 
HETATM   19  N   UNL     1     -40.998 -52.366  12.688  1.00  0.00    -0.308 N 
ATOM     20  HN  UNL     1     -40.967 -53.887  11.196  1.00  0.00     0.186 HD
HETATM   21  C   UNL     1     -41.113 -51.232  11.804  1.00  0.00     0.177 C 
HETATM   22  C   UNL     1     -40.971 -52.338  14.052  1.00  0.00     0.120 A 
ENDBRANCH  12  16
ENDBRANCH   1  12
TORSDOF 6
ENDMDL
MODEL 4
REMARK VINA RESULT:      -5.4      1.712      2.696
REMARK  6 active torsions:
REMARK  status: ('A' for Active; 'I' for Inactive)
REMARK    1  A    between atoms: C_5  and  C_6 
REMARK    2  A    between atoms: C_6  and  N_7 
REMARK    3  A    between atoms: N_7  and  C_8 
REMARK    4  A    between atoms: C_8  and  C_9 
REMARK    5  A    between atoms: C_9  and  N_10 
REMARK    6  A    between atoms: C_9  and  C_13 
ROOT
HETATM    1  C   UNL     1     -42.399 -52.981  12.172  1.00  0.00     0.310 C 
ENDROOT
BRANCH   1   2
HETATM    2  N   UNL     1     -43.865 -52.957  12.093  1.00  0.00     0.086 N 
HETATM    3  H   UNL     1     -44.150 -51.994  12.224  1.00  0.00     0.315 HD
BRANCH   2   4
HETATM    4  C   UNL     1     -44.480 -53.751  13.158  1.00  0.00     0.274 C 
BRANCH   4   5
HETATM    5  C   UNL     1     -45.946 -53.313  13.386  1.00  0.00     0.014 C 
HETATM    6  C   UNL     1     -46.151 -51.786  13.428  1.00  0.00     0.007 C 
HETATM    7  C   UNL     1     -45.547 -51.146  14.678  1.00  0.00     0.005 C 
HETATM    8  C   UNL     1     -46.073 -51.778  15.974  1.00  0.00    -0.019 C 
HETATM    9  C   UNL     1     -47.518 -51.354  16.254  1.00  0.00     0.010 C 
HETATM   10  C   UNL     1     -45.930 -53.307  15.945  1.00  0.00     0.005 C 
HETATM   11  C   UNL     1     -46.502 -53.942  14.675  1.00  0.00     0.007 C 
ENDBRANCH   4   5
ENDBRANCH   2   4
ENDBRANCH   1   2
BRANCH   1  12
HETATM   12  C   UNL     1     -41.773 -51.883  13.108  1.00  0.00     0.285 C 
BRANCH  12  13
HETATM   13  N   UNL     1     -41.248 -52.281  14.440  1.00  0.00     0.090 N 
HETATM   14  C   UNL     1     -41.989 -51.740  15.575  1.00  0.00     0.310 C 
HETATM   15  C   UNL     1     -41.004 -53.709  14.610  1.00  0.00     0.310 C 
ENDBRANCH  12  13
BRANCH  12  16
HETATM   16  C   UNL     1     -40.694 -51.121  12.362  1.00  0.00     0.011 A 
HETATM   17  C   UNL     1     -40.849 -50.223  11.276  1.00  0.00     0.118 A 
HETATM   18  N   UNL     1     -39.701 -49.672  10.883  1.00  0.00    -0.310 N 
HETATM   19  N   UNL     1     -38.792 -50.228  11.699  1.00  0.00    -0.308 N 
ATOM     20  HN  UNL     1     -39.549 -48.991  10.138  1.00  0.00     0.186 HD
HETATM   21  C   UNL     1     -37.408 -49.834  11.603  1.00  0.00     0.177 C 
HETATM   22  C   UNL     1     -39.330 -51.106  12.595  1.00  0.00     0.120 A 
ENDBRANCH  12  16
ENDBRANCH   1  12
TORSDOF 6
ENDMDL
MODEL 5
REMARK VINA RESULT:      -5.4      2.540      4.914
REMARK  6 active torsions:
REMARK  status: ('A' for Active; 'I' for Inactive)
REMARK    1  A    between atoms: C_5  and  C_6 
REMARK    2  A    between atoms: C_6  and  N_7 
REMARK    3  A    between atoms: N_7  and  C_8 
REMARK    4  A    between atoms: C_8  and  C_9 
REMARK    5  A    between atoms: C_9  and  N_10 
REMARK    6  A    between atoms: C_9  and  C_13 
ROOT
HETATM    1  C   UNL     1     -41.290 -48.562  10.676  1.00  0.00     0.310 C 
ENDROOT
BRANCH   1   2
HETATM    2  N   UNL     1     -41.883 -49.699  11.394  1.00  0.00     0.086 N 
HETATM    3  H   UNL     1     -42.790 -49.394  11.726  1.00  0.00     0.315 HD
BRANCH   2   4
HETATM    4  C   UNL     1     -41.087 -50.078  12.562  1.00  0.00     0.274 C 
BRANCH   4   5
HETATM    5  C   UNL     1     -40.645 -51.557  12.462  1.00  0.00     0.014 C 
HETATM    6  C   UNL     1     -41.806 -52.551  12.261  1.00  0.00     0.007 C 
HETATM    7  C   UNL     1     -42.691 -52.682  13.500  1.00  0.00     0.005 C 
HETATM    8  C   UNL     1     -41.892 -53.062  14.754  1.00  0.00    -0.019 C 
HETATM    9  C   UNL     1     -41.451 -54.528  14.712  1.00  0.00     0.010 C 
HETATM   10  C   UNL     1     -40.696 -52.120  14.958  1.00  0.00     0.005 C 
HETATM   11  C   UNL     1     -39.833 -51.962  13.704  1.00  0.00     0.007 C 
ENDBRANCH   4   5
ENDBRANCH   2   4
ENDBRANCH   1   2
BRANCH   1  12
HETATM   12  C   UNL     1     -42.167 -47.256  10.674  1.00  0.00     0.285 C 
BRANCH  12  13
HETATM   13  N   UNL     1     -41.524 -45.954  10.358  1.00  0.00     0.090 N 
HETATM   14  C   UNL     1     -42.235 -44.784  10.862  1.00  0.00     0.310 C 
HETATM   15  C   UNL     1     -40.101 -45.873  10.667  1.00  0.00     0.310 C 
ENDBRANCH  12  13
BRANCH  12  16
HETATM   16  C   UNL     1     -43.370 -47.442   9.771  1.00  0.00     0.011 A 
HETATM   17  C   UNL     1     -43.387 -47.659   8.369  1.00  0.00     0.118 A 
HETATM   18  N   UNL     1     -44.614 -47.842   7.882  1.00  0.00    -0.310 N 
HETATM   19  N   UNL     1     -45.401 -47.724   8.963  1.00  0.00    -0.308 N 
ATOM     20  HN  UNL     1     -44.890 -48.027   6.917  1.00  0.00     0.186 HD
HETATM   21  C   UNL     1     -46.826 -47.910   8.835  1.00  0.00     0.177 C 
HETATM   22  C   UNL     1     -44.710 -47.477  10.114  1.00  0.00     0.120 A 
ENDBRANCH  12  16
ENDBRANCH   1  12
TORSDOF 6
ENDMDL
MODEL 6
REMARK VINA RESULT:      -5.4      1.702      2.319
REMARK  6 active torsions:
REMARK  status: ('A' for Active; 'I' for Inactive)
REMARK    1  A    between atoms: C_5  and  C_6 
REMARK    2  A    between atoms: C_6  and  N_7 
REMARK    3  A    between atoms: N_7  and  C_8 
REMARK    4  A    between atoms: C_8  and  C_9 
REMARK    5  A    between atoms: C_9  and  N_10 
REMARK    6  A    between atoms: C_9  and  C_13 
ROOT
HETATM    1  C   UNL     1     -40.912 -50.380  11.578  1.00  0.00     0.310 C 
ENDROOT
BRANCH   1   2
HETATM    2  N   UNL     1     -42.032 -51.292  11.846  1.00  0.00     0.086 N 
HETATM    3  H   UNL     1     -42.691 -51.176  11.086  1.00  0.00     0.315 HD
BRANCH   2   4
HETATM    4  C   UNL     1     -42.724 -50.951  13.089  1.00  0.00     0.274 C 
BRANCH   4   5
HETATM    5  C   UNL     1     -43.462 -52.186  13.657  1.00  0.00     0.014 C 
HETATM    6  C   UNL     1     -44.712 -52.600  12.856  1.00  0.00     0.007 C 
HETATM    7  C   UNL     1     -45.856 -51.595  12.990  1.00  0.00     0.005 C 
HETATM    8  C   UNL     1     -46.239 -51.333  14.453  1.00  0.00    -0.019 C 
HETATM    9  C   UNL     1     -46.994 -52.523  15.054  1.00  0.00     0.010 C 
HETATM   10  C   UNL     1     -45.007 -50.966  15.293  1.00  0.00     0.005 C 
HETATM   11  C   UNL     1     -43.849 -51.954  15.128  1.00  0.00     0.007 C 
ENDBRANCH   4   5
ENDBRANCH   2   4
ENDBRANCH   1   2
BRANCH   1  12
HETATM   12  C   UNL     1     -41.039 -48.966  12.253  1.00  0.00     0.285 C 
BRANCH  12  13
HETATM   13  N   UNL     1     -39.877 -48.412  12.996  1.00  0.00     0.090 N 
HETATM   14  C   UNL     1     -40.160 -48.035  14.377  1.00  0.00     0.310 C 
HETATM   15  C   UNL     1     -38.652 -49.200  12.911  1.00  0.00     0.310 C 
ENDBRANCH  12  13
BRANCH  12  16
HETATM   16  C   UNL     1     -41.500 -47.945  11.232  1.00  0.00     0.011 A 
HETATM   17  C   UNL     1     -40.864 -46.734  10.854  1.00  0.00     0.118 A 
HETATM   18  N   UNL     1     -41.504 -46.087   9.880  1.00  0.00    -0.310 N 
HETATM   19  N   UNL     1     -42.569 -46.865   9.635  1.00  0.00    -0.308 N 
ATOM     20  HN  UNL     1     -41.244 -45.210   9.428  1.00  0.00     0.186 HD
HETATM   21  C   UNL     1     -43.492 -46.506   8.587  1.00  0.00     0.177 C 
HETATM   22  C   UNL     1     -42.620 -47.982  10.420  1.00  0.00     0.120 A 
ENDBRANCH  12  16
ENDBRANCH   1  12
TORSDOF 6
ENDMDL
MODEL 7
REMARK VINA RESULT:      -5.3      1.859      3.871
REMARK  6 active torsions:
REMARK  status: ('A' for Active; 'I' for Inactive)
REMARK    1  A    between atoms: C_5  and  C_6 
REMARK    2  A    between atoms: C_6  and  N_7 
REMARK    3  A    between atoms: N_7  and  C_8 
REMARK    4  A    between atoms: C_8  and  C_9 
REMARK    5  A    between atoms: C_9  and  N_10 
REMARK    6  A    between atoms: C_9  and  C_13 
ROOT
HETATM    1  C   UNL     1     -41.783 -51.514  12.399  1.00  0.00     0.310 C 
ENDROOT
BRANCH   1   2
HETATM    2  N   UNL     1     -42.507 -52.604  11.734  1.00  0.00     0.086 N 
HETATM    3  H   UNL     1     -42.824 -52.244  10.842  1.00  0.00     0.315 HD
BRANCH   2   4
HETATM    4  C   UNL     1     -43.690 -53.013  12.493  1.00  0.00     0.274 C 
BRANCH   4   5
HETATM    5  C   UNL     1     -43.962 -52.024  13.650  1.00  0.00     0.014 C 
HETATM    6  C   UNL     1     -44.267 -52.700  15.001  1.00  0.00     0.007 C 
HETATM    7  C   UNL     1     -45.621 -53.410  15.012  1.00  0.00     0.005 C 
HETATM    8  C   UNL     1     -46.776 -52.476  14.625  1.00  0.00    -0.019 C 
HETATM    9  C   UNL     1     -47.098 -51.490  15.752  1.00  0.00     0.010 C 
HETATM   10  C   UNL     1     -46.483 -51.747  13.306  1.00  0.00     0.005 C 
HETATM   11  C   UNL     1     -45.111 -51.068  13.284  1.00  0.00     0.007 C 
ENDBRANCH   4   5
ENDBRANCH   2   4
ENDBRANCH   1   2
BRANCH   1  12
HETATM   12  C   UNL     1     -40.252 -51.787  12.634  1.00  0.00     0.285 C 
BRANCH  12  13
HETATM   13  N   UNL     1     -39.332 -50.635  12.818  1.00  0.00     0.090 N 
HETATM   14  C   UNL     1     -37.939 -50.907  12.480  1.00  0.00     0.310 C 
HETATM   15  C   UNL     1     -39.778 -49.381  12.219  1.00  0.00     0.310 C 
ENDBRANCH  12  13
BRANCH  12  16
HETATM   16  C   UNL     1     -40.070 -52.750  13.791  1.00  0.00     0.011 A 
HETATM   17  C   UNL     1     -39.867 -54.153  13.739  1.00  0.00     0.118 A 
HETATM   18  N   UNL     1     -39.685 -54.702  14.940  1.00  0.00    -0.310 N 
HETATM   19  N   UNL     1     -39.789 -53.659  15.779  1.00  0.00    -0.308 N 
ATOM     20  HN  UNL     1     -39.508 -55.681  15.167  1.00  0.00     0.186 HD
HETATM   21  C   UNL     1     -39.599 -53.859  17.195  1.00  0.00     0.177 C 
HETATM   22  C   UNL     1     -40.028 -52.473  15.147  1.00  0.00     0.120 A 
ENDBRANCH  12  16
ENDBRANCH   1  12
TORSDOF 6
ENDMDL
MODEL 8
REMARK VINA RESULT:      -5.3      1.935      2.601
REMARK  6 active torsions:
REMARK  status: ('A' for Active; 'I' for Inactive)
REMARK    1  A    between atoms: C_5  and  C_6 
REMARK    2  A    between atoms: C_6  and  N_7 
REMARK    3  A    between atoms: N_7  and  C_8 
REMARK    4  A    between atoms: C_8  and  C_9 
REMARK    5  A    between atoms: C_9  and  N_10 
REMARK    6  A    between atoms: C_9  and  C_13 
ROOT
HETATM    1  C   UNL     1     -41.400 -49.992  12.635  1.00  0.00     0.310 C 
ENDROOT
BRANCH   1   2
HETATM    2  N   UNL     1     -42.301 -50.060  13.794  1.00  0.00     0.086 N 
HETATM    3  H   UNL     1     -42.019 -50.867  14.336  1.00  0.00     0.315 HD
BRANCH   2   4
HETATM    4  C   UNL     1     -43.693 -50.264  13.387  1.00  0.00     0.274 C 
BRANCH   4   5
HETATM    5  C   UNL     1     -44.399 -51.253  14.344  1.00  0.00     0.014 C 
HETATM    6  C   UNL     1     -43.563 -52.499  14.696  1.00  0.00     0.007 C 
HETATM    7  C   UNL     1     -43.390 -53.446  13.509  1.00  0.00     0.005 C 
HETATM    8  C   UNL     1     -44.732 -53.875  12.900  1.00  0.00    -0.019 C 
HETATM    9  C   UNL     1     -45.461 -54.875  13.803  1.00  0.00     0.010 C 
HETATM   10  C   UNL     1     -45.613 -52.658  12.583  1.00  0.00     0.005 C 
HETATM   11  C   UNL     1     -45.754 -51.692  13.762  1.00  0.00     0.007 C 
ENDBRANCH   4   5
ENDBRANCH   2   4
ENDBRANCH   1   2
BRANCH   1  12
HETATM   12  C   UNL     1     -40.639 -48.625  12.474  1.00  0.00     0.285 C 
BRANCH  12  13
HETATM   13  N   UNL     1     -39.164 -48.635  12.292  1.00  0.00     0.090 N 
HETATM   14  C   UNL     1     -38.398 -48.400  13.512  1.00  0.00     0.310 C 
HETATM   15  C   UNL     1     -38.637 -49.780  11.558  1.00  0.00     0.310 C 
ENDBRANCH  12  13
BRANCH  12  16
HETATM   16  C   UNL     1     -41.266 -47.813  11.357  1.00  0.00     0.011 A 
HETATM   17  C   UNL     1     -40.816 -46.585  10.809  1.00  0.00     0.118 A 
HETATM   18  N   UNL     1     -41.564 -46.159   9.791  1.00  0.00    -0.310 N 
HETATM   19  N   UNL     1     -42.516 -47.099   9.689  1.00  0.00    -0.308 N 
ATOM     20  HN  UNL     1     -41.443 -45.318   9.226  1.00  0.00     0.186 HD
HETATM   21  C   UNL     1     -43.507 -47.003   8.645  1.00  0.00     0.177 C 
HETATM   22  C   UNL     1     -42.390 -48.104  10.604  1.00  0.00     0.120 A 
ENDBRANCH  12  16
ENDBRANCH   1  12
TORSDOF 6
ENDMDL
MODEL 9
REMARK VINA RESULT:      -5.2      1.247      3.054
REMARK  6 active torsions:
REMARK  status: ('A' for Active; 'I' for Inactive)
REMARK    1  A    between atoms: C_5  and  C_6 
REMARK    2  A    between atoms: C_6  and  N_7 
REMARK    3  A    between atoms: N_7  and  C_8 
REMARK    4  A    between atoms: C_8  and  C_9 
REMARK    5  A    between atoms: C_9  and  N_10 
REMARK    6  A    between atoms: C_9  and  C_13 
ROOT
HETATM    1  C   UNL     1     -41.533 -52.078  12.331  1.00  0.00     0.310 C 
ENDROOT
BRANCH   1   2
HETATM    2  N   UNL     1     -42.720 -52.612  11.650  1.00  0.00     0.086 N 
HETATM    3  H   UNL     1     -43.159 -51.833  11.173  1.00  0.00     0.315 HD
BRANCH   2   4
HETATM    4  C   UNL     1     -43.692 -53.154  12.601  1.00  0.00     0.274 C 
BRANCH   4   5
HETATM    5  C   UNL     1     -43.945 -52.152  13.752  1.00  0.00     0.014 C 
HETATM    6  C   UNL     1     -44.346 -52.810  15.087  1.00  0.00     0.007 C 
HETATM    7  C   UNL     1     -45.742 -53.431  15.042  1.00  0.00     0.005 C 
HETATM    8  C   UNL     1     -46.819 -52.424  14.614  1.00  0.00    -0.019 C 
HETATM    9  C   UNL     1     -47.120 -51.421  15.732  1.00  0.00     0.010 C 
HETATM   10  C   UNL     1     -46.427 -51.711  13.311  1.00  0.00     0.005 C 
HETATM   11  C   UNL     1     -45.015 -51.123  13.345  1.00  0.00     0.007 C 
ENDBRANCH   4   5
ENDBRANCH   2   4
ENDBRANCH   1   2
BRANCH   1  12
HETATM   12  C   UNL     1     -41.021 -50.698  11.776  1.00  0.00     0.285 C 
BRANCH  12  13
HETATM   13  N   UNL     1     -41.919 -49.516  11.837  1.00  0.00     0.090 N 
HETATM   14  C   UNL     1     -42.029 -48.902  13.156  1.00  0.00     0.310 C 
HETATM   15  C   UNL     1     -41.688 -48.507  10.809  1.00  0.00     0.310 C 
ENDBRANCH  12  13
BRANCH  12  16
HETATM   16  C   UNL     1     -39.695 -50.342  12.420  1.00  0.00     0.011 A 
HETATM   17  C   UNL     1     -38.658 -49.529  11.895  1.00  0.00     0.118 A 
HETATM   18  N   UNL     1     -37.641 -49.365  12.741  1.00  0.00    -0.310 N 
HETATM   19  N   UNL     1     -38.005 -50.089  13.811  1.00  0.00    -0.308 N 
ATOM     20  HN  UNL     1     -36.789 -48.819  12.608  1.00  0.00     0.186 HD
HETATM   21  C   UNL     1     -37.157 -50.118  14.978  1.00  0.00     0.177 C 
HETATM   22  C   UNL     1     -39.218 -50.700  13.668  1.00  0.00     0.120 A 
ENDBRANCH  12  16
ENDBRANCH   1  12
TORSDOF 6
ENDMDL
