MODEL 1
REMARK VINA RESULT:      -5.4      0.000      0.000
REMARK  6 active torsions:
REMARK  status: ('A' for Active; 'I' for Inactive)
REMARK    1  A    between atoms: O_2  and  C_3 
REMARK    2  A    between atoms: C_3  and  C_4 
REMARK    3  A    between atoms: C_4  and  O_5 
REMARK    4  A    between atoms: C_4  and  C_6 
REMARK    5  A    between atoms: C_6  and  N_7 
REMARK    6  A    between atoms: C_8  and  C_17 
ROOT
HETATM    1  N   UNL     1     -41.586 -53.663  13.249  1.00  0.00    -0.325 N 
HETATM    2  C   UNL     1     -41.137 -54.364  14.352  1.00  0.00     0.194 A 
HETATM    3  N   UNL     1     -42.171 -54.816  15.052  1.00  0.00    -0.337 N 
ATOM      4  HN  UNL     1     -42.133 -55.350  15.920  1.00  0.00     0.167 HD
HETATM    5  C   UNL     1     -43.298 -54.427  14.382  1.00  0.00     0.060 A 
HETATM    6  C   UNL     1     -44.645 -54.652  14.693  1.00  0.00     0.032 A 
HETATM    7  C   UNL     1     -45.630 -54.130  13.852  1.00  0.00     0.002 A 
HETATM    8  C   UNL     1     -45.279 -53.392  12.722  1.00  0.00     0.002 A 
HETATM    9  C   UNL     1     -43.937 -53.155  12.394  1.00  0.00     0.032 A 
HETATM   10  C   UNL     1     -42.968 -53.687  13.252  1.00  0.00     0.063 A 
ENDROOT
BRANCH   1  11
HETATM   11  C   UNL     1     -40.785 -52.994  12.236  1.00  0.00     0.164 C 
BRANCH  11  12
HETATM   12  C   UNL     1     -40.828 -51.468  12.365  1.00  0.00     0.160 C 
BRANCH  12  13
HETATM   13  C   UNL     1     -39.603 -50.971  13.153  1.00  0.00     0.200 C 
BRANCH  13  14
HETATM   14  O   UNL     1     -38.440 -51.665  12.698  1.00  0.00    -0.393 OA
HETATM   15  C   UNL     1     -37.429 -50.771  12.248  1.00  0.00     0.201 C 
ENDBRANCH  13  14
ENDBRANCH  12  13
BRANCH  12  16
HETATM   16  O   UNL     1     -40.863 -50.889  11.055  1.00  0.00    -0.392 OA
HETATM   17  H   UNL     1     -41.123 -49.954  11.131  1.00  0.00     0.210 HD
ENDBRANCH  12  16
ENDBRANCH  11  12
ENDBRANCH   1  11
BRANCH   2  18
HETATM   18  C   UNL     1     -39.690 -54.578  14.720  1.00  0.00     0.449 C 
HETATM   19  F   UNL     1     -39.480 -55.544  15.656  1.00  0.00    -0.163 F 
HETATM   20  F   UNL     1     -38.966 -54.972  13.636  1.00  0.00    -0.163 F 
HETATM   21  F   UNL     1     -39.096 -53.450  15.190  1.00  0.00    -0.163 F 
ENDBRANCH   2  18
TORSDOF 6
ENDMDL
MODEL 2
REMARK VINA RESULT:      -5.4      6.027      8.247
REMARK  6 active torsions:
REMARK  status: ('A' for Active; 'I' for Inactive)
REMARK    1  A    between atoms: O_2  and  C_3 
REMARK    2  A    between atoms: C_3  and  C_4 
REMARK    3  A    between atoms: C_4  and  O_5 
REMARK    4  A    between atoms: C_4  and  C_6 
REMARK    5  A    between atoms: C_6  and  N_7 
REMARK    6  A    between atoms: C_8  and  C_17 
ROOT
HETATM    1  N   UNL     1     -41.323 -47.208  11.531  1.00  0.00    -0.325 N 
HETATM    2  C   UNL     1     -42.000 -46.551  10.521  1.00  0.00     0.194 A 
HETATM    3  N   UNL     1     -41.637 -45.274  10.490  1.00  0.00    -0.337 N 
ATOM      4  HN  UNL     1     -41.989 -44.556   9.857  1.00  0.00     0.167 HD
HETATM    5  C   UNL     1     -40.698 -45.110  11.470  1.00  0.00     0.060 A 
HETATM    6  C   UNL     1     -39.994 -43.959  11.850  1.00  0.00     0.032 A 
HETATM    7  C   UNL     1     -39.087 -44.040  12.909  1.00  0.00     0.002 A 
HETATM    8  C   UNL     1     -38.889 -45.244  13.583  1.00  0.00     0.002 A 
HETATM    9  C   UNL     1     -39.584 -46.406  13.219  1.00  0.00     0.032 A 
HETATM   10  C   UNL     1     -40.487 -46.301  12.155  1.00  0.00     0.063 A 
ENDROOT
BRANCH   1  11
HETATM   11  C   UNL     1     -41.440 -48.606  11.914  1.00  0.00     0.164 C 
BRANCH  11  12
HETATM   12  C   UNL     1     -40.203 -49.425  11.532  1.00  0.00     0.160 C 
BRANCH  12  13
HETATM   13  C   UNL     1     -39.905 -50.470  12.622  1.00  0.00     0.200 C 
BRANCH  13  14
HETATM   14  O   UNL     1     -38.824 -51.301  12.191  1.00  0.00    -0.393 OA
HETATM   15  C   UNL     1     -37.565 -50.660  12.351  1.00  0.00     0.201 C 
ENDBRANCH  13  14
ENDBRANCH  12  13
BRANCH  12  16
HETATM   16  O   UNL     1     -40.433 -50.056  10.267  1.00  0.00    -0.392 OA
HETATM   17  H   UNL     1     -41.308 -49.786   9.935  1.00  0.00     0.210 HD
ENDBRANCH  12  16
ENDBRANCH  11  12
ENDBRANCH   1  11
BRANCH   2  18
HETATM   18  C   UNL     1     -43.012 -47.181   9.595  1.00  0.00     0.449 C 
HETATM   19  F   UNL     1     -44.108 -47.694  10.219  1.00  0.00    -0.163 F 
HETATM   20  F   UNL     1     -43.502 -46.265   8.715  1.00  0.00    -0.163 F 
HETATM   21  F   UNL     1     -42.485 -48.187   8.851  1.00  0.00    -0.163 F 
ENDBRANCH   2  18
TORSDOF 6
ENDMDL
MODEL 3
REMARK VINA RESULT:      -5.3      4.748      6.675
REMARK  6 active torsions:
REMARK  status: ('A' for Active; 'I' for Inactive)
REMARK    1  A    between atoms: O_2  and  C_3 
REMARK    2  A    between atoms: C_3  and  C_4 
REMARK    3  A    between atoms: C_4  and  O_5 
REMARK    4  A    between atoms: C_4  and  C_6 
REMARK    5  A    between atoms: C_6  and  N_7 
REMARK    6  A    between atoms: C_8  and  C_17 
ROOT
HETATM    1  N   UNL     1     -44.390 -53.356  14.171  1.00  0.00    -0.325 N 
HETATM    2  C   UNL     1     -45.040 -52.245  13.666  1.00  0.00     0.194 A 
HETATM    3  N   UNL     1     -44.231 -51.583  12.847  1.00  0.00    -0.337 N 
ATOM      4  HN  UNL     1     -44.444 -50.719  12.348  1.00  0.00     0.167 HD
HETATM    5  C   UNL     1     -43.059 -52.285  12.800  1.00  0.00     0.060 A 
HETATM    6  C   UNL     1     -41.886 -52.018  12.083  1.00  0.00     0.032 A 
HETATM    7  C   UNL     1     -40.800 -52.886  12.216  1.00  0.00     0.002 A 
HETATM    8  C   UNL     1     -40.878 -53.998  13.054  1.00  0.00     0.002 A 
HETATM    9  C   UNL     1     -42.043 -54.281  13.782  1.00  0.00     0.032 A 
HETATM   10  C   UNL     1     -43.117 -53.397  13.633  1.00  0.00     0.063 A 
ENDROOT
BRANCH   1  11
HETATM   11  C   UNL     1     -44.909 -54.337  15.110  1.00  0.00     0.164 C 
BRANCH  11  12
HETATM   12  C   UNL     1     -44.577 -53.991  16.565  1.00  0.00     0.160 C 
BRANCH  12  13
HETATM   13  C   UNL     1     -45.873 -53.850  17.383  1.00  0.00     0.200 C 
BRANCH  13  14
HETATM   14  O   UNL     1     -46.112 -55.066  18.095  1.00  0.00    -0.393 OA
HETATM   15  C   UNL     1     -46.601 -54.825  19.409  1.00  0.00     0.201 C 
ENDBRANCH  13  14
ENDBRANCH  12  13
BRANCH  12  16
HETATM   16  O   UNL     1     -43.737 -55.017  17.109  1.00  0.00    -0.392 OA
HETATM   17  H   UNL     1     -44.226 -55.859  17.104  1.00  0.00     0.210 HD
ENDBRANCH  12  16
ENDBRANCH  11  12
ENDBRANCH   1  11
BRANCH   2  18
HETATM   18  C   UNL     1     -46.452 -51.834  14.000  1.00  0.00     0.449 C 
HETATM   19  F   UNL     1     -47.279 -52.863  14.331  1.00  0.00    -0.163 F 
HETATM   20  F   UNL     1     -46.474 -51.002  15.078  1.00  0.00    -0.163 F 
HETATM   21  F   UNL     1     -47.057 -51.164  12.985  1.00  0.00    -0.163 F 
ENDBRANCH   2  18
TORSDOF 6
ENDMDL
MODEL 4
REMARK VINA RESULT:      -5.2      6.953      8.611
REMARK  6 active torsions:
REMARK  status: ('A' for Active; 'I' for Inactive)
REMARK    1  A    between atoms: O_2  and  C_3 
REMARK    2  A    between atoms: C_3  and  C_4 
REMARK    3  A    between atoms: C_4  and  O_5 
REMARK    4  A    between atoms: C_4  and  C_6 
REMARK    5  A    between atoms: C_6  and  N_7 
REMARK    6  A    between atoms: C_8  and  C_17 
ROOT
HETATM    1  N   UNL     1     -41.626 -46.580  10.465  1.00  0.00    -0.325 N 
HETATM    2  C   UNL     1     -42.473 -47.447   9.801  1.00  0.00     0.194 A 
HETATM    3  N   UNL     1     -42.210 -48.698  10.160  1.00  0.00    -0.337 N 
ATOM      4  HN  UNL     1     -42.671 -49.540   9.815  1.00  0.00     0.167 HD
HETATM    5  C   UNL     1     -41.203 -48.638  11.082  1.00  0.00     0.060 A 
HETATM    6  C   UNL     1     -40.562 -49.674  11.774  1.00  0.00     0.032 A 
HETATM    7  C   UNL     1     -39.534 -49.357  12.664  1.00  0.00     0.002 A 
HETATM    8  C   UNL     1     -39.145 -48.033  12.858  1.00  0.00     0.002 A 
HETATM    9  C   UNL     1     -39.772 -46.982  12.174  1.00  0.00     0.032 A 
HETATM   10  C   UNL     1     -40.800 -47.323  11.287  1.00  0.00     0.063 A 
ENDROOT
BRANCH   1  11
HETATM   11  C   UNL     1     -41.569 -45.131  10.349  1.00  0.00     0.164 C 
BRANCH  11  12
HETATM   12  C   UNL     1     -42.711 -44.436  11.098  1.00  0.00     0.160 C 
BRANCH  12  13
HETATM   13  C   UNL     1     -42.144 -43.568  12.234  1.00  0.00     0.200 C 
BRANCH  13  14
HETATM   14  O   UNL     1     -40.751 -43.345  12.004  1.00  0.00    -0.393 OA
HETATM   15  C   UNL     1     -40.423 -41.961  12.034  1.00  0.00     0.201 C 
ENDBRANCH  13  14
ENDBRANCH  12  13
BRANCH  12  16
HETATM   16  O   UNL     1     -43.461 -43.642  10.171  1.00  0.00    -0.392 OA
HETATM   17  H   UNL     1     -43.084 -42.745  10.148  1.00  0.00     0.210 HD
ENDBRANCH  12  16
ENDBRANCH  11  12
ENDBRANCH   1  11
BRANCH   2  18
HETATM   18  C   UNL     1     -43.534 -47.041   8.808  1.00  0.00     0.449 C 
HETATM   19  F   UNL     1     -43.126 -46.124   7.887  1.00  0.00    -0.163 F 
HETATM   20  F   UNL     1     -43.953 -48.112   8.079  1.00  0.00    -0.163 F 
HETATM   21  F   UNL     1     -44.640 -46.524   9.404  1.00  0.00    -0.163 F 
ENDBRANCH   2  18
TORSDOF 6
ENDMDL
MODEL 5
REMARK VINA RESULT:      -5.1      2.897      4.075
REMARK  6 active torsions:
REMARK  status: ('A' for Active; 'I' for Inactive)
REMARK    1  A    between atoms: O_2  and  C_3 
REMARK    2  A    between atoms: C_3  and  C_4 
REMARK    3  A    between atoms: C_4  and  O_5 
REMARK    4  A    between atoms: C_4  and  C_6 
REMARK    5  A    between atoms: C_6  and  N_7 
REMARK    6  A    between atoms: C_8  and  C_17 
ROOT
HETATM    1  N   UNL     1     -43.021 -52.902  14.549  1.00  0.00    -0.325 N 
HETATM    2  C   UNL     1     -42.576 -52.799  13.244  1.00  0.00     0.194 A 
HETATM    3  N   UNL     1     -43.539 -52.303  12.477  1.00  0.00    -0.337 N 
ATOM      4  HN  UNL     1     -43.492 -52.135  11.471  1.00  0.00     0.167 HD
HETATM    5  C   UNL     1     -44.607 -52.059  13.296  1.00  0.00     0.060 A 
HETATM    6  C   UNL     1     -45.868 -51.533  12.987  1.00  0.00     0.032 A 
HETATM    7  C   UNL     1     -46.811 -51.394  14.008  1.00  0.00     0.002 A 
HETATM    8  C   UNL     1     -46.506 -51.778  15.313  1.00  0.00     0.002 A 
HETATM    9  C   UNL     1     -45.250 -52.308  15.642  1.00  0.00     0.032 A 
HETATM   10  C   UNL     1     -44.322 -52.438  14.602  1.00  0.00     0.063 A 
ENDROOT
BRANCH   1  11
HETATM   11  C   UNL     1     -42.289 -53.409  15.699  1.00  0.00     0.164 C 
BRANCH  11  12
HETATM   12  C   UNL     1     -42.422 -54.927  15.858  1.00  0.00     0.160 C 
BRANCH  12  13
HETATM   13  C   UNL     1     -41.061 -55.539  16.233  1.00  0.00     0.200 C 
BRANCH  13  14
HETATM   14  O   UNL     1     -40.033 -54.572  16.007  1.00  0.00    -0.393 OA
HETATM   15  C   UNL     1     -38.881 -55.151  15.406  1.00  0.00     0.201 C 
ENDBRANCH  13  14
ENDBRANCH  12  13
BRANCH  12  16
HETATM   16  O   UNL     1     -43.403 -55.206  16.863  1.00  0.00    -0.392 OA
HETATM   17  H   UNL     1     -43.765 -56.097  16.711  1.00  0.00     0.210 HD
ENDBRANCH  12  16
ENDBRANCH  11  12
ENDBRANCH   1  11
BRANCH   2  18
HETATM   18  C   UNL     1     -41.206 -53.198  12.755  1.00  0.00     0.449 C 
HETATM   19  F   UNL     1     -40.174 -52.690  13.484  1.00  0.00    -0.163 F 
HETATM   20  F   UNL     1     -41.045 -54.549  12.808  1.00  0.00    -0.163 F 
HETATM   21  F   UNL     1     -40.983 -52.834  11.466  1.00  0.00    -0.163 F 
ENDBRANCH   2  18
TORSDOF 6
ENDMDL
MODEL 6
REMARK VINA RESULT:      -5.0      3.063      4.198
REMARK  6 active torsions:
REMARK  status: ('A' for Active; 'I' for Inactive)
REMARK    1  A    between atoms: O_2  and  C_3 
REMARK    2  A    between atoms: C_3  and  C_4 
REMARK    3  A    between atoms: C_4  and  O_5 
REMARK    4  A    between atoms: C_4  and  C_6 
REMARK    5  A    between atoms: C_6  and  N_7 
REMARK    6  A    between atoms: C_8  and  C_17 
ROOT
HETATM    1  N   UNL     1     -40.081 -51.056  12.214  1.00  0.00    -0.325 N 
HETATM    2  C   UNL     1     -38.935 -51.212  12.970  1.00  0.00     0.194 A 
HETATM    3  N   UNL     1     -39.087 -52.224  13.817  1.00  0.00    -0.337 N 
ATOM      4  HN  UNL     1     -38.408 -52.551  14.504  1.00  0.00     0.167 HD
HETATM    5  C   UNL     1     -40.331 -52.742  13.588  1.00  0.00     0.060 A 
HETATM    6  C   UNL     1     -40.978 -53.819  14.208  1.00  0.00     0.032 A 
HETATM    7  C   UNL     1     -42.274 -54.151  13.807  1.00  0.00     0.002 A 
HETATM    8  C   UNL     1     -42.918 -53.419  12.811  1.00  0.00     0.002 A 
HETATM    9  C   UNL     1     -42.289 -52.337  12.180  1.00  0.00     0.032 A 
HETATM   10  C   UNL     1     -40.990 -52.023  12.598  1.00  0.00     0.063 A 
ENDROOT
BRANCH   1  11
HETATM   11  C   UNL     1     -40.336 -50.059  11.185  1.00  0.00     0.164 C 
BRANCH  11  12
HETATM   12  C   UNL     1     -41.241 -48.926  11.677  1.00  0.00     0.160 C 
BRANCH  12  13
HETATM   13  C   UNL     1     -40.461 -47.600  11.701  1.00  0.00     0.200 C 
BRANCH  13  14
HETATM   14  O   UNL     1     -40.989 -46.726  10.701  1.00  0.00    -0.393 OA
HETATM   15  C   UNL     1     -40.172 -45.577  10.514  1.00  0.00     0.201 C 
ENDBRANCH  13  14
ENDBRANCH  12  13
BRANCH  12  16
HETATM   16  O   UNL     1     -42.382 -48.832  10.815  1.00  0.00    -0.392 OA
HETATM   17  H   UNL     1     -42.878 -48.024  11.035  1.00  0.00     0.210 HD
ENDBRANCH  12  16
ENDBRANCH  11  12
ENDBRANCH   1  11
BRANCH   2  18
HETATM   18  C   UNL     1     -37.696 -50.358  12.864  1.00  0.00     0.449 C 
HETATM   19  F   UNL     1     -37.181 -50.261  11.607  1.00  0.00    -0.163 F 
HETATM   20  F   UNL     1     -37.955 -49.075  13.240  1.00  0.00    -0.163 F 
HETATM   21  F   UNL     1     -36.687 -50.796  13.661  1.00  0.00    -0.163 F 
ENDBRANCH   2  18
TORSDOF 6
ENDMDL
MODEL 7
REMARK VINA RESULT:      -4.9      1.652      1.992
REMARK  6 active torsions:
REMARK  status: ('A' for Active; 'I' for Inactive)
REMARK    1  A    between atoms: O_2  and  C_3 
REMARK    2  A    between atoms: C_3  and  C_4 
REMARK    3  A    between atoms: C_4  and  O_5 
REMARK    4  A    between atoms: C_4  and  C_6 
REMARK    5  A    between atoms: C_6  and  N_7 
REMARK    6  A    between atoms: C_8  and  C_17 
ROOT
HETATM    1  N   UNL     1     -43.036 -52.746  13.418  1.00  0.00    -0.325 N 
HETATM    2  C   UNL     1     -42.550 -53.560  14.424  1.00  0.00     0.194 A 
HETATM    3  N   UNL     1     -43.482 -53.733  15.355  1.00  0.00    -0.337 N 
ATOM      4  HN  UNL     1     -43.390 -54.272  16.216  1.00  0.00     0.167 HD
HETATM    5  C   UNL     1     -44.587 -53.047  14.935  1.00  0.00     0.060 A 
HETATM    6  C   UNL     1     -45.840 -52.911  15.547  1.00  0.00     0.032 A 
HETATM    7  C   UNL     1     -46.817 -52.133  14.922  1.00  0.00     0.002 A 
HETATM    8  C   UNL     1     -46.549 -51.495  13.711  1.00  0.00     0.002 A 
HETATM    9  C   UNL     1     -45.302 -51.618  13.084  1.00  0.00     0.032 A 
HETATM   10  C   UNL     1     -44.339 -52.402  13.729  1.00  0.00     0.063 A 
ENDROOT
BRANCH   1  11
HETATM   11  C   UNL     1     -42.338 -52.297  12.224  1.00  0.00     0.164 C 
BRANCH  11  12
HETATM   12  C   UNL     1     -41.703 -50.915  12.399  1.00  0.00     0.160 C 
BRANCH  12  13
HETATM   13  C   UNL     1     -40.315 -50.883  11.735  1.00  0.00     0.200 C 
BRANCH  13  14
HETATM   14  O   UNL     1     -39.413 -51.687  12.498  1.00  0.00    -0.393 OA
HETATM   15  C   UNL     1     -38.236 -50.973  12.856  1.00  0.00     0.201 C 
ENDBRANCH  13  14
ENDBRANCH  12  13
BRANCH  12  16
HETATM   16  O   UNL     1     -42.568 -49.928  11.824  1.00  0.00    -0.392 OA
HETATM   17  H   UNL     1     -43.470 -50.063  12.165  1.00  0.00     0.210 HD
ENDBRANCH  12  16
ENDBRANCH  11  12
ENDBRANCH   1  11
BRANCH   2  18
HETATM   18  C   UNL     1     -41.166 -54.157  14.471  1.00  0.00     0.449 C 
HETATM   19  F   UNL     1     -40.708 -54.621  13.276  1.00  0.00    -0.163 F 
HETATM   20  F   UNL     1     -40.249 -53.230  14.865  1.00  0.00    -0.163 F 
HETATM   21  F   UNL     1     -41.070 -55.190  15.348  1.00  0.00    -0.163 F 
ENDBRANCH   2  18
TORSDOF 6
ENDMDL
MODEL 8
REMARK VINA RESULT:      -4.8      2.242      2.901
REMARK  6 active torsions:
REMARK  status: ('A' for Active; 'I' for Inactive)
REMARK    1  A    between atoms: O_2  and  C_3 
REMARK    2  A    between atoms: C_3  and  C_4 
REMARK    3  A    between atoms: C_4  and  O_5 
REMARK    4  A    between atoms: C_4  and  C_6 
REMARK    5  A    between atoms: C_6  and  N_7 
REMARK    6  A    between atoms: C_8  and  C_17 
ROOT
HETATM    1  N   UNL     1     -43.207 -53.741  14.274  1.00  0.00    -0.325 N 
HETATM    2  C   UNL     1     -43.188 -54.067  15.617  1.00  0.00     0.194 A 
HETATM    3  N   UNL     1     -44.214 -53.494  16.235  1.00  0.00    -0.337 N 
ATOM      4  HN  UNL     1     -44.435 -53.550  17.230  1.00  0.00     0.167 HD
HETATM    5  C   UNL     1     -44.917 -52.813  15.281  1.00  0.00     0.060 A 
HETATM    6  C   UNL     1     -46.082 -52.046  15.406  1.00  0.00     0.032 A 
HETATM    7  C   UNL     1     -46.608 -51.424  14.271  1.00  0.00     0.002 A 
HETATM    8  C   UNL     1     -45.981 -51.559  13.034  1.00  0.00     0.002 A 
HETATM    9  C   UNL     1     -44.813 -52.320  12.888  1.00  0.00     0.032 A 
HETATM   10  C   UNL     1     -44.304 -52.934  14.038  1.00  0.00     0.063 A 
ENDROOT
BRANCH   1  11
HETATM   11  C   UNL     1     -42.259 -54.147  13.248  1.00  0.00     0.164 C 
BRANCH  11  12
HETATM   12  C   UNL     1     -41.497 -52.961  12.650  1.00  0.00     0.160 C 
BRANCH  12  13
HETATM   13  C   UNL     1     -40.677 -52.254  13.744  1.00  0.00     0.200 C 
BRANCH  13  14
HETATM   14  O   UNL     1     -41.235 -50.960  13.985  1.00  0.00    -0.393 OA
HETATM   15  C   UNL     1     -41.490 -50.742  15.367  1.00  0.00     0.201 C 
ENDBRANCH  13  14
ENDBRANCH  12  13
BRANCH  12  16
HETATM   16  O   UNL     1     -40.647 -53.435  11.598  1.00  0.00    -0.392 OA
HETATM   17  H   UNL     1     -40.706 -52.820  10.845  1.00  0.00     0.210 HD
ENDBRANCH  12  16
ENDBRANCH  11  12
ENDBRANCH   1  11
BRANCH   2  18
HETATM   18  C   UNL     1     -42.153 -54.935  16.289  1.00  0.00     0.449 C 
HETATM   19  F   UNL     1     -40.864 -54.611  15.994  1.00  0.00    -0.163 F 
HETATM   20  F   UNL     1     -42.241 -54.835  17.645  1.00  0.00    -0.163 F 
HETATM   21  F   UNL     1     -42.299 -56.252  15.990  1.00  0.00    -0.163 F 
ENDBRANCH   2  18
TORSDOF 6
ENDMDL
MODEL 9
REMARK VINA RESULT:      -4.8      6.525      8.141
REMARK  6 active torsions:
REMARK  status: ('A' for Active; 'I' for Inactive)
REMARK    1  A    between atoms: O_2  and  C_3 
REMARK    2  A    between atoms: C_3  and  C_4 
REMARK    3  A    between atoms: C_4  and  O_5 
REMARK    4  A    between atoms: C_4  and  C_6 
REMARK    5  A    between atoms: C_6  and  N_7 
REMARK    6  A    between atoms: C_8  and  C_17 
ROOT
HETATM    1  N   UNL     1     -40.693 -47.260  11.821  1.00  0.00    -0.325 N 
HETATM    2  C   UNL     1     -41.350 -47.907  10.791  1.00  0.00     0.194 A 
HETATM    3  N   UNL     1     -40.803 -49.100  10.586  1.00  0.00    -0.337 N 
ATOM      4  HN  UNL     1     -41.078 -49.782   9.878  1.00  0.00     0.167 HD
HETATM    5  C   UNL     1     -39.802 -49.236  11.507  1.00  0.00     0.060 A 
HETATM    6  C   UNL     1     -38.923 -50.307  11.719  1.00  0.00     0.032 A 
HETATM    7  C   UNL     1     -37.960 -50.200  12.724  1.00  0.00     0.002 A 
HETATM    8  C   UNL     1     -37.868 -49.046  13.501  1.00  0.00     0.002 A 
HETATM    9  C   UNL     1     -38.737 -47.964  13.302  1.00  0.00     0.032 A 
HETATM   10  C   UNL     1     -39.694 -48.093  12.289  1.00  0.00     0.063 A 
ENDROOT
BRANCH   1  11
HETATM   11  C   UNL     1     -40.963 -45.933  12.351  1.00  0.00     0.164 C 
BRANCH  11  12
HETATM   12  C   UNL     1     -40.072 -44.857  11.725  1.00  0.00     0.160 C 
BRANCH  12  13
HETATM   13  C   UNL     1     -40.927 -43.660  11.275  1.00  0.00     0.200 C 
BRANCH  13  14
HETATM   14  O   UNL     1     -42.282 -43.873  11.679  1.00  0.00    -0.393 OA
HETATM   15  C   UNL     1     -42.833 -42.727  12.316  1.00  0.00     0.201 C 
ENDBRANCH  13  14
ENDBRANCH  12  13
BRANCH  12  16
HETATM   16  O   UNL     1     -39.087 -44.451  12.683  1.00  0.00    -0.392 OA
HETATM   17  H   UNL     1     -39.233 -44.941  13.511  1.00  0.00     0.210 HD
ENDBRANCH  12  16
ENDBRANCH  11  12
ENDBRANCH   1  11
BRANCH   2  18
HETATM   18  C   UNL     1     -42.508 -47.345  10.006  1.00  0.00     0.449 C 
HETATM   19  F   UNL     1     -42.293 -46.104   9.489  1.00  0.00    -0.163 F 
HETATM   20  F   UNL     1     -42.795 -48.131   8.931  1.00  0.00    -0.163 F 
HETATM   21  F   UNL     1     -43.649 -47.264  10.739  1.00  0.00    -0.163 F 
ENDBRANCH   2  18
TORSDOF 6
ENDMDL
