MODEL 1
REMARK VINA RESULT:      -5.3      0.000      0.000
REMARK  6 active torsions:
REMARK  status: ('A' for Active; 'I' for Inactive)
REMARK    1  A    between atoms: C_2  and  C_3 
REMARK    2  A    between atoms: C_3  and  C_4 
REMARK    3  A    between atoms: C_6  and  N_7 
REMARK       I    between atoms: N_7  and  C_8 
REMARK    4  A    between atoms: C_8  and  C_10 
REMARK    5  A    between atoms: C_10  and  N_11 
REMARK    6  A    between atoms: C_19  and  O_20 
ROOT
HETATM    1  C   UNL     1     -45.422 -52.782  14.356  1.00  0.00     0.006 C 
HETATM    2  C   UNL     1     -44.033 -52.721  15.088  1.00  0.00     0.101 C 
HETATM    3  C   UNL     1     -44.347 -51.288  15.571  1.00  0.00     0.035 C 
HETATM    4  C   UNL     1     -43.717 -50.063  14.924  1.00  0.00     0.015 C 
HETATM    5  C   UNL     1     -45.858 -51.584  15.299  1.00  0.00     0.137 C 
ENDROOT
BRANCH   2   6
HETATM    6  N   UNL     1     -42.834 -52.899  14.240  1.00  0.00    -0.354 N 
HETATM    7  C   UNL     1     -42.036 -54.027  14.358  1.00  0.00     0.236 C 
HETATM    8  O   UNL     1     -42.248 -54.921  15.175  1.00  0.00    -0.272 OA
HETATM    9  H   UNL     1     -42.528 -52.160  13.618  1.00  0.00     0.163 HD
BRANCH   7  10
HETATM   10  C   UNL     1     -40.880 -54.113  13.392  1.00  0.00     0.231 C 
BRANCH  10  11
HETATM   11  N   UNL     1     -40.579 -52.836  12.776  1.00  0.00    -0.343 N 
HETATM   12  C   UNL     1     -39.731 -51.886  13.272  1.00  0.00     0.109 A 
HETATM   13  C   UNL     1     -39.823 -50.840  12.385  1.00  0.00     0.106 A 
HETATM   14  N   UNL     1     -40.701 -51.133  11.376  1.00  0.00    -0.361 N 
HETATM   15  C   UNL     1     -41.150 -52.338  11.641  1.00  0.00     0.182 A 
ATOM     16  HN  UNL     1     -40.954 -50.539  10.585  1.00  0.00     0.166 HD
ENDBRANCH  10  11
ENDBRANCH   7  10
ENDBRANCH   2   6
BRANCH   1  17
HETATM   17  C   UNL     1     -46.124 -54.131  14.646  1.00  0.00     0.010 C 
HETATM   18  C   UNL     1     -45.561 -55.295  13.844  1.00  0.00     0.006 C 
ENDBRANCH   1  17
BRANCH   1  19
HETATM   19  C   UNL     1     -45.449 -52.406  12.855  1.00  0.00     0.010 C 
HETATM   20  C   UNL     1     -46.698 -51.627  12.455  1.00  0.00     0.006 C 
ENDBRANCH   1  19
BRANCH   5  21
HETATM   21  O   UNL     1     -46.578 -51.923  16.510  1.00  0.00    -0.389 OA
HETATM   22  C   UNL     1     -47.837 -51.304  16.724  1.00  0.00     0.202 C 
ENDBRANCH   5  21
TORSDOF 6
ENDMDL
MODEL 2
REMARK VINA RESULT:      -5.3      3.555      4.787
REMARK  6 active torsions:
REMARK  status: ('A' for Active; 'I' for Inactive)
REMARK    1  A    between atoms: C_2  and  C_3 
REMARK    2  A    between atoms: C_3  and  C_4 
REMARK    3  A    between atoms: C_6  and  N_7 
REMARK       I    between atoms: N_7  and  C_8 
REMARK    4  A    between atoms: C_8  and  C_10 
REMARK    5  A    between atoms: C_10  and  N_11 
REMARK    6  A    between atoms: C_19  and  O_20 
ROOT
HETATM    1  C   UNL     1     -45.065 -51.983  13.626  1.00  0.00     0.006 C 
HETATM    2  C   UNL     1     -43.757 -51.263  13.136  1.00  0.00     0.101 C 
HETATM    3  C   UNL     1     -43.002 -51.778  14.382  1.00  0.00     0.035 C 
HETATM    4  C   UNL     1     -42.691 -50.875  15.566  1.00  0.00     0.015 C 
HETATM    5  C   UNL     1     -44.115 -52.865  14.541  1.00  0.00     0.137 C 
ENDROOT
BRANCH   2   6
HETATM    6  N   UNL     1     -43.841 -49.797  12.956  1.00  0.00    -0.354 N 
HETATM    7  C   UNL     1     -42.876 -49.108  12.238  1.00  0.00     0.236 C 
HETATM    8  O   UNL     1     -41.892 -49.650  11.737  1.00  0.00    -0.272 OA
HETATM    9  H   UNL     1     -44.561 -49.261  13.428  1.00  0.00     0.163 HD
BRANCH   7  10
HETATM   10  C   UNL     1     -43.115 -47.627  12.078  1.00  0.00     0.231 C 
BRANCH  10  11
HETATM   11  N   UNL     1     -43.333 -47.247  10.697  1.00  0.00    -0.343 N 
HETATM   12  C   UNL     1     -44.439 -47.540   9.949  1.00  0.00     0.109 A 
HETATM   13  C   UNL     1     -44.159 -47.035   8.702  1.00  0.00     0.106 A 
HETATM   14  N   UNL     1     -42.919 -46.453   8.678  1.00  0.00    -0.361 N 
HETATM   15  C   UNL     1     -42.440 -46.603   9.892  1.00  0.00     0.182 A 
ATOM     16  HN  UNL     1     -42.465 -46.000   7.885  1.00  0.00     0.166 HD
ENDBRANCH  10  11
ENDBRANCH   7  10
ENDBRANCH   2   6
BRANCH   1  17
HETATM   17  C   UNL     1     -45.733 -52.743  12.454  1.00  0.00     0.010 C 
HETATM   18  C   UNL     1     -46.821 -51.944  11.754  1.00  0.00     0.006 C 
ENDBRANCH   1  17
BRANCH   1  19
HETATM   19  C   UNL     1     -46.073 -51.141  14.444  1.00  0.00     0.010 C 
HETATM   20  C   UNL     1     -46.798 -51.948  15.516  1.00  0.00     0.006 C 
ENDBRANCH   1  19
BRANCH   5  21
HETATM   21  O   UNL     1     -43.704 -54.153  14.020  1.00  0.00    -0.389 OA
HETATM   22  C   UNL     1     -43.282 -55.137  14.951  1.00  0.00     0.202 C 
ENDBRANCH   5  21
TORSDOF 6
ENDMDL
MODEL 3
REMARK VINA RESULT:      -5.2      2.019      3.008
REMARK  6 active torsions:
REMARK  status: ('A' for Active; 'I' for Inactive)
REMARK    1  A    between atoms: C_2  and  C_3 
REMARK    2  A    between atoms: C_3  and  C_4 
REMARK    3  A    between atoms: C_6  and  N_7 
REMARK       I    between atoms: N_7  and  C_8 
REMARK    4  A    between atoms: C_8  and  C_10 
REMARK    5  A    between atoms: C_10  and  N_11 
REMARK    6  A    between atoms: C_19  and  O_20 
ROOT
HETATM    1  C   UNL     1     -45.982 -51.578  16.298  1.00  0.00     0.006 C 
HETATM    2  C   UNL     1     -45.587 -53.086  16.496  1.00  0.00     0.101 C 
HETATM    3  C   UNL     1     -45.731 -52.927  18.025  1.00  0.00     0.035 C 
HETATM    4  C   UNL     1     -44.521 -52.807  18.940  1.00  0.00     0.015 C 
HETATM    5  C   UNL     1     -46.597 -51.653  17.758  1.00  0.00     0.137 C 
ENDROOT
BRANCH   2   6
HETATM    6  N   UNL     1     -44.261 -53.492  15.982  1.00  0.00    -0.354 N 
HETATM    7  C   UNL     1     -44.139 -54.489  15.026  1.00  0.00     0.236 C 
HETATM    8  O   UNL     1     -45.098 -55.111  14.573  1.00  0.00    -0.272 OA
HETATM    9  H   UNL     1     -43.413 -53.106  16.382  1.00  0.00     0.163 HD
BRANCH   7  10
HETATM   10  C   UNL     1     -42.735 -54.762  14.544  1.00  0.00     0.231 C 
BRANCH  10  11
HETATM   11  N   UNL     1     -42.348 -53.894  13.451  1.00  0.00    -0.343 N 
HETATM   12  C   UNL     1     -41.072 -53.511  13.144  1.00  0.00     0.109 A 
HETATM   13  C   UNL     1     -41.214 -52.646  12.085  1.00  0.00     0.106 A 
HETATM   14  N   UNL     1     -42.534 -52.497  11.750  1.00  0.00    -0.361 N 
HETATM   15  C   UNL     1     -43.196 -53.253  12.596  1.00  0.00     0.182 A 
ATOM     16  HN  UNL     1     -42.920 -51.920  11.003  1.00  0.00     0.166 HD
ENDBRANCH  10  11
ENDBRANCH   7  10
ENDBRANCH   2   6
BRANCH   1  17
HETATM   17  C   UNL     1     -47.019 -51.438  15.158  1.00  0.00     0.010 C 
HETATM   18  C   UNL     1     -46.404 -51.477  13.767  1.00  0.00     0.006 C 
ENDBRANCH   1  17
BRANCH   1  19
HETATM   19  C   UNL     1     -44.828 -50.553  16.185  1.00  0.00     0.010 C 
HETATM   20  C   UNL     1     -44.889 -49.462  17.249  1.00  0.00     0.006 C 
ENDBRANCH   1  19
BRANCH   5  21
HETATM   21  O   UNL     1     -48.017 -51.922  17.865  1.00  0.00    -0.389 OA
HETATM   22  C   UNL     1     -48.688 -51.470  19.030  1.00  0.00     0.202 C 
ENDBRANCH   5  21
TORSDOF 6
ENDMDL
MODEL 4
REMARK VINA RESULT:      -5.0      2.396      5.830
REMARK  6 active torsions:
REMARK  status: ('A' for Active; 'I' for Inactive)
REMARK    1  A    between atoms: C_2  and  C_3 
REMARK    2  A    between atoms: C_3  and  C_4 
REMARK    3  A    between atoms: C_6  and  N_7 
REMARK       I    between atoms: N_7  and  C_8 
REMARK    4  A    between atoms: C_8  and  C_10 
REMARK    5  A    between atoms: C_10  and  N_11 
REMARK    6  A    between atoms: C_19  and  O_20 
ROOT
HETATM    1  C   UNL     1     -41.526 -52.186  13.828  1.00  0.00     0.006 C 
HETATM    2  C   UNL     1     -42.352 -51.975  12.508  1.00  0.00     0.101 C 
HETATM    3  C   UNL     1     -41.595 -50.655  12.241  1.00  0.00     0.035 C 
HETATM    4  C   UNL     1     -42.231 -49.297  12.494  1.00  0.00     0.015 C 
HETATM    5  C   UNL     1     -40.484 -51.156  13.220  1.00  0.00     0.137 C 
ENDROOT
BRANCH   2   6
HETATM    6  N   UNL     1     -43.821 -51.892  12.657  1.00  0.00    -0.354 N 
HETATM    7  C   UNL     1     -44.616 -53.022  12.546  1.00  0.00     0.236 C 
HETATM    8  O   UNL     1     -44.170 -54.140  12.293  1.00  0.00    -0.272 OA
HETATM    9  H   UNL     1     -44.278 -50.993  12.759  1.00  0.00     0.163 HD
BRANCH   7  10
HETATM   10  C   UNL     1     -46.092 -52.808  12.781  1.00  0.00     0.231 C 
BRANCH  10  11
HETATM   11  N   UNL     1     -46.397 -52.537  14.171  1.00  0.00    -0.343 N 
HETATM   12  C   UNL     1     -46.879 -51.361  14.673  1.00  0.00     0.109 A 
HETATM   13  C   UNL     1     -46.944 -51.563  16.031  1.00  0.00     0.106 A 
HETATM   14  N   UNL     1     -46.514 -52.821  16.358  1.00  0.00    -0.361 N 
HETATM   15  C   UNL     1     -46.181 -53.384  15.219  1.00  0.00     0.182 A 
ATOM     16  HN  UNL     1     -46.462 -53.233  17.290  1.00  0.00     0.166 HD
ENDBRANCH  10  11
ENDBRANCH   7  10
ENDBRANCH   2   6
BRANCH   1  17
HETATM   17  C   UNL     1     -41.023 -53.647  13.922  1.00  0.00     0.010 C 
HETATM   18  C   UNL     1     -41.816 -54.502  14.898  1.00  0.00     0.006 C 
ENDBRANCH   1  17
BRANCH   1  19
HETATM   19  C   UNL     1     -42.162 -51.687  15.148  1.00  0.00     0.010 C 
HETATM   20  C   UNL     1     -41.211 -50.843  15.991  1.00  0.00     0.006 C 
ENDBRANCH   1  19
BRANCH   5  21
HETATM   21  O   UNL     1     -39.342 -51.707  12.520  1.00  0.00    -0.389 OA
HETATM   22  C   UNL     1     -38.054 -51.229  12.878  1.00  0.00     0.202 C 
ENDBRANCH   5  21
TORSDOF 6
ENDMDL
MODEL 5
REMARK VINA RESULT:      -4.9      2.023      2.948
REMARK  6 active torsions:
REMARK  status: ('A' for Active; 'I' for Inactive)
REMARK    1  A    between atoms: C_2  and  C_3 
REMARK    2  A    between atoms: C_3  and  C_4 
REMARK    3  A    between atoms: C_6  and  N_7 
REMARK       I    between atoms: N_7  and  C_8 
REMARK    4  A    between atoms: C_8  and  C_10 
REMARK    5  A    between atoms: C_10  and  N_11 
REMARK    6  A    between atoms: C_19  and  O_20 
ROOT
HETATM    1  C   UNL     1     -43.988 -53.426  15.017  1.00  0.00     0.006 C 
HETATM    2  C   UNL     1     -43.740 -51.909  14.691  1.00  0.00     0.101 C 
HETATM    3  C   UNL     1     -45.252 -51.628  14.830  1.00  0.00     0.035 C 
HETATM    4  C   UNL     1     -46.149 -51.428  13.617  1.00  0.00     0.015 C 
HETATM    5  C   UNL     1     -45.372 -52.962  15.637  1.00  0.00     0.137 C 
ENDROOT
BRANCH   2   6
HETATM    6  N   UNL     1     -43.115 -51.611  13.384  1.00  0.00    -0.354 N 
HETATM    7  C   UNL     1     -41.738 -51.516  13.254  1.00  0.00     0.236 C 
HETATM    8  O   UNL     1     -40.961 -51.641  14.198  1.00  0.00    -0.272 OA
HETATM    9  H   UNL     1     -43.689 -51.387  12.579  1.00  0.00     0.163 HD
BRANCH   7  10
HETATM   10  C   UNL     1     -41.230 -51.268  11.855  1.00  0.00     0.231 C 
BRANCH  10  11
HETATM   11  N   UNL     1     -40.868 -49.882  11.636  1.00  0.00    -0.343 N 
HETATM   12  C   UNL     1     -41.730 -48.866  11.331  1.00  0.00     0.109 A 
HETATM   13  C   UNL     1     -40.923 -47.767  11.155  1.00  0.00     0.106 A 
HETATM   14  N   UNL     1     -39.606 -48.093  11.342  1.00  0.00    -0.361 N 
HETATM   15  C   UNL     1     -39.600 -49.377  11.622  1.00  0.00     0.182 A 
ATOM     16  HN  UNL     1     -38.800 -47.471  11.277  1.00  0.00     0.166 HD
ENDBRANCH  10  11
ENDBRANCH   7  10
ENDBRANCH   2   6
BRANCH   1  17
HETATM   17  C   UNL     1     -42.948 -53.934  16.045  1.00  0.00     0.010 C 
HETATM   18  C   UNL     1     -41.972 -54.950  15.473  1.00  0.00     0.006 C 
ENDBRANCH   1  17
BRANCH   1  19
HETATM   19  C   UNL     1     -44.160 -54.389  13.817  1.00  0.00     0.010 C 
HETATM   20  C   UNL     1     -45.470 -55.170  13.859  1.00  0.00     0.006 C 
ENDBRANCH   1  19
BRANCH   5  21
HETATM   21  O   UNL     1     -45.413 -52.737  17.067  1.00  0.00    -0.389 OA
HETATM   22  C   UNL     1     -46.194 -53.624  17.853  1.00  0.00     0.202 C 
ENDBRANCH   5  21
TORSDOF 6
ENDMDL
MODEL 6
REMARK VINA RESULT:      -4.9      1.638      2.042
REMARK  6 active torsions:
REMARK  status: ('A' for Active; 'I' for Inactive)
REMARK    1  A    between atoms: C_2  and  C_3 
REMARK    2  A    between atoms: C_3  and  C_4 
REMARK    3  A    between atoms: C_6  and  N_7 
REMARK       I    between atoms: N_7  and  C_8 
REMARK    4  A    between atoms: C_8  and  C_10 
REMARK    5  A    between atoms: C_10  and  N_11 
REMARK    6  A    between atoms: C_19  and  O_20 
ROOT
HETATM    1  C   UNL     1     -45.282 -53.004  14.938  1.00  0.00     0.006 C 
HETATM    2  C   UNL     1     -43.789 -53.415  14.674  1.00  0.00     0.101 C 
HETATM    3  C   UNL     1     -43.426 -53.046  16.129  1.00  0.00     0.035 C 
HETATM    4  C   UNL     1     -42.691 -51.759  16.473  1.00  0.00     0.015 C 
HETATM    5  C   UNL     1     -44.945 -53.157  16.480  1.00  0.00     0.137 C 
ENDROOT
BRANCH   2   6
HETATM    6  N   UNL     1     -43.086 -52.685  13.596  1.00  0.00    -0.354 N 
HETATM    7  C   UNL     1     -41.970 -53.226  12.976  1.00  0.00     0.236 C 
HETATM    8  O   UNL     1     -41.481 -54.309  13.291  1.00  0.00    -0.272 OA
HETATM    9  H   UNL     1     -43.359 -51.740  13.352  1.00  0.00     0.163 HD
BRANCH   7  10
HETATM   10  C   UNL     1     -41.387 -52.405  11.852  1.00  0.00     0.231 C 
BRANCH  10  11
HETATM   11  N   UNL     1     -40.638 -51.262  12.334  1.00  0.00    -0.343 N 
HETATM   12  C   UNL     1     -40.806 -49.966  11.933  1.00  0.00     0.109 A 
HETATM   13  C   UNL     1     -39.837 -49.264  12.610  1.00  0.00     0.106 A 
HETATM   14  N   UNL     1     -39.093 -50.099  13.401  1.00  0.00    -0.361 N 
HETATM   15  C   UNL     1     -39.591 -51.299  13.208  1.00  0.00     0.182 A 
ATOM     16  HN  UNL     1     -38.315 -49.843  14.010  1.00  0.00     0.166 HD
ENDBRANCH  10  11
ENDBRANCH   7  10
ENDBRANCH   2   6
BRANCH   1  17
HETATM   17  C   UNL     1     -46.245 -54.075  14.370  1.00  0.00     0.010 C 
HETATM   18  C   UNL     1     -45.533 -55.296  13.807  1.00  0.00     0.006 C 
ENDBRANCH   1  17
BRANCH   1  19
HETATM   19  C   UNL     1     -45.698 -51.564  14.554  1.00  0.00     0.010 C 
HETATM   20  C   UNL     1     -46.552 -51.502  13.292  1.00  0.00     0.006 C 
ENDBRANCH   1  19
BRANCH   5  21
HETATM   21  O   UNL     1     -45.273 -54.422  17.107  1.00  0.00    -0.389 OA
HETATM   22  C   UNL     1     -45.986 -54.385  18.333  1.00  0.00     0.202 C 
ENDBRANCH   5  21
TORSDOF 6
ENDMDL
MODEL 7
REMARK VINA RESULT:      -4.9      2.639      4.061
REMARK  6 active torsions:
REMARK  status: ('A' for Active; 'I' for Inactive)
REMARK    1  A    between atoms: C_2  and  C_3 
REMARK    2  A    between atoms: C_3  and  C_4 
REMARK    3  A    between atoms: C_6  and  N_7 
REMARK       I    between atoms: N_7  and  C_8 
REMARK    4  A    between atoms: C_8  and  C_10 
REMARK    5  A    between atoms: C_10  and  N_11 
REMARK    6  A    between atoms: C_19  and  O_20 
ROOT
HETATM    1  C   UNL     1     -44.225 -51.850  14.018  1.00  0.00     0.006 C 
HETATM    2  C   UNL     1     -42.948 -51.853  13.103  1.00  0.00     0.101 C 
HETATM    3  C   UNL     1     -42.521 -53.213  13.697  1.00  0.00     0.035 C 
HETATM    4  C   UNL     1     -41.409 -53.328  14.729  1.00  0.00     0.015 C 
HETATM    5  C   UNL     1     -43.999 -53.413  14.165  1.00  0.00     0.137 C 
ENDROOT
BRANCH   2   6
HETATM    6  N   UNL     1     -42.013 -50.719  13.273  1.00  0.00    -0.354 N 
HETATM    7  C   UNL     1     -40.897 -50.585  12.462  1.00  0.00     0.236 C 
HETATM    8  O   UNL     1     -40.597 -51.394  11.587  1.00  0.00    -0.272 OA
HETATM    9  H   UNL     1     -42.129 -50.068  14.041  1.00  0.00     0.163 HD
BRANCH   7  10
HETATM   10  C   UNL     1     -40.062 -49.351  12.702  1.00  0.00     0.231 C 
BRANCH  10  11
HETATM   11  N   UNL     1     -40.393 -48.274  11.790  1.00  0.00    -0.343 N 
HETATM   12  C   UNL     1     -39.925 -46.992  11.859  1.00  0.00     0.109 A 
HETATM   13  C   UNL     1     -40.563 -46.333  10.835  1.00  0.00     0.106 A 
HETATM   14  N   UNL     1     -41.401 -47.179  10.158  1.00  0.00    -0.361 N 
HETATM   15  C   UNL     1     -41.286 -48.341  10.760  1.00  0.00     0.182 A 
ATOM     16  HN  UNL     1     -41.990 -46.954   9.356  1.00  0.00     0.166 HD
ENDBRANCH  10  11
ENDBRANCH   7  10
ENDBRANCH   2   6
BRANCH   1  17
HETATM   17  C   UNL     1     -45.474 -51.444  13.199  1.00  0.00     0.010 C 
HETATM   18  C   UNL     1     -46.757 -51.424  14.015  1.00  0.00     0.006 C 
ENDBRANCH   1  17
BRANCH   1  19
HETATM   19  C   UNL     1     -44.127 -51.100  15.368  1.00  0.00     0.010 C 
HETATM   20  C   UNL     1     -44.354 -52.005  16.575  1.00  0.00     0.006 C 
ENDBRANCH   1  19
BRANCH   5  21
HETATM   21  O   UNL     1     -44.746 -54.276  13.273  1.00  0.00    -0.389 OA
HETATM   22  C   UNL     1     -45.620 -55.231  13.856  1.00  0.00     0.202 C 
ENDBRANCH   5  21
TORSDOF 6
ENDMDL
MODEL 8
REMARK VINA RESULT:      -4.9      2.322      3.795
REMARK  6 active torsions:
REMARK  status: ('A' for Active; 'I' for Inactive)
REMARK    1  A    between atoms: C_2  and  C_3 
REMARK    2  A    between atoms: C_3  and  C_4 
REMARK    3  A    between atoms: C_6  and  N_7 
REMARK       I    between atoms: N_7  and  C_8 
REMARK    4  A    between atoms: C_8  and  C_10 
REMARK    5  A    between atoms: C_10  and  N_11 
REMARK    6  A    between atoms: C_19  and  O_20 
ROOT
HETATM    1  C   UNL     1     -43.902 -52.547  14.291  1.00  0.00     0.006 C 
HETATM    2  C   UNL     1     -44.328 -51.062  14.006  1.00  0.00     0.101 C 
HETATM    3  C   UNL     1     -45.809 -51.496  13.936  1.00  0.00     0.035 C 
HETATM    4  C   UNL     1     -46.544 -51.639  12.613  1.00  0.00     0.015 C 
HETATM    5  C   UNL     1     -45.411 -52.791  14.716  1.00  0.00     0.137 C 
ENDROOT
BRANCH   2   6
HETATM    6  N   UNL     1     -43.752 -50.432  12.798  1.00  0.00    -0.354 N 
HETATM    7  C   UNL     1     -43.135 -49.192  12.863  1.00  0.00     0.236 C 
HETATM    8  O   UNL     1     -43.051 -48.532  13.897  1.00  0.00    -0.272 OA
HETATM    9  H   UNL     1     -43.874 -50.859  11.887  1.00  0.00     0.163 HD
BRANCH   7  10
HETATM   10  C   UNL     1     -42.536 -48.693  11.571  1.00  0.00     0.231 C 
BRANCH  10  11
HETATM   11  N   UNL     1     -41.105 -48.913  11.503  1.00  0.00    -0.343 N 
HETATM   12  C   UNL     1     -40.479 -50.127  11.498  1.00  0.00     0.109 A 
HETATM   13  C   UNL     1     -39.137 -49.827  11.492  1.00  0.00     0.106 A 
HETATM   14  N   UNL     1     -38.941 -48.472  11.497  1.00  0.00    -0.361 N 
HETATM   15  C   UNL     1     -40.144 -47.944  11.513  1.00  0.00     0.182 A 
ATOM     16  HN  UNL     1     -38.049 -47.976  11.490  1.00  0.00     0.166 HD
ENDBRANCH  10  11
ENDBRANCH   7  10
ENDBRANCH   2   6
BRANCH   1  17
HETATM   17  C   UNL     1     -42.879 -52.601  15.451  1.00  0.00     0.010 C 
HETATM   18  C   UNL     1     -42.588 -51.242  16.070  1.00  0.00     0.006 C 
ENDBRANCH   1  17
BRANCH   1  19
HETATM   19  C   UNL     1     -43.474 -53.406  13.077  1.00  0.00     0.010 C 
HETATM   20  C   UNL     1     -42.031 -53.892  13.165  1.00  0.00     0.006 C 
ENDBRANCH   1  19
BRANCH   5  21
HETATM   21  O   UNL     1     -45.723 -52.701  16.128  1.00  0.00    -0.389 OA
HETATM   22  C   UNL     1     -46.022 -53.905  16.816  1.00  0.00     0.202 C 
ENDBRANCH   5  21
TORSDOF 6
ENDMDL
MODEL 9
REMARK VINA RESULT:      -4.8      3.327      4.481
REMARK  6 active torsions:
REMARK  status: ('A' for Active; 'I' for Inactive)
REMARK    1  A    between atoms: C_2  and  C_3 
REMARK    2  A    between atoms: C_3  and  C_4 
REMARK    3  A    between atoms: C_6  and  N_7 
REMARK       I    between atoms: N_7  and  C_8 
REMARK    4  A    between atoms: C_8  and  C_10 
REMARK    5  A    between atoms: C_10  and  N_11 
REMARK    6  A    between atoms: C_19  and  O_20 
ROOT
HETATM    1  C   UNL     1     -43.818 -52.546  14.445  1.00  0.00     0.006 C 
HETATM    2  C   UNL     1     -44.088 -51.055  14.030  1.00  0.00     0.101 C 
HETATM    3  C   UNL     1     -45.604 -51.345  13.963  1.00  0.00     0.035 C 
HETATM    4  C   UNL     1     -46.332 -51.526  12.639  1.00  0.00     0.015 C 
HETATM    5  C   UNL     1     -45.349 -52.604  14.854  1.00  0.00     0.137 C 
ENDROOT
BRANCH   2   6
HETATM    6  N   UNL     1     -43.435 -50.588  12.788  1.00  0.00    -0.354 N 
HETATM    7  C   UNL     1     -42.794 -49.361  12.735  1.00  0.00     0.236 C 
HETATM    8  O   UNL     1     -42.750 -48.580  13.685  1.00  0.00    -0.272 OA
HETATM    9  H   UNL     1     -43.519 -51.122  11.930  1.00  0.00     0.163 HD
BRANCH   7  10
HETATM   10  C   UNL     1     -42.116 -49.034  11.427  1.00  0.00     0.231 C 
BRANCH  10  11
HETATM   11  N   UNL     1     -42.608 -47.802  10.843  1.00  0.00    -0.343 N 
HETATM   12  C   UNL     1     -41.885 -46.656  10.661  1.00  0.00     0.109 A 
HETATM   13  C   UNL     1     -42.786 -45.756  10.142  1.00  0.00     0.106 A 
HETATM   14  N   UNL     1     -44.024 -46.326  10.010  1.00  0.00    -0.361 N 
HETATM   15  C   UNL     1     -43.891 -47.557  10.448  1.00  0.00     0.182 A 
ATOM     16  HN  UNL     1     -44.871 -45.887   9.649  1.00  0.00     0.166 HD
ENDBRANCH  10  11
ENDBRANCH   7  10
ENDBRANCH   2   6
BRANCH   1  17
HETATM   17  C   UNL     1     -42.822 -52.604  15.628  1.00  0.00     0.010 C 
HETATM   18  C   UNL     1     -42.341 -51.236  16.086  1.00  0.00     0.006 C 
ENDBRANCH   1  17
BRANCH   1  19
HETATM   19  C   UNL     1     -43.461 -53.542  13.314  1.00  0.00     0.010 C 
HETATM   20  C   UNL     1     -42.017 -54.030  13.379  1.00  0.00     0.006 C 
ENDBRANCH   1  19
BRANCH   5  21
HETATM   21  O   UNL     1     -45.670 -52.366  16.247  1.00  0.00    -0.389 OA
HETATM   22  C   UNL     1     -46.063 -53.481  17.033  1.00  0.00     0.202 C 
ENDBRANCH   5  21
TORSDOF 6
ENDMDL
