MODEL 1
REMARK VINA RESULT:      -5.2      0.000      0.000
REMARK  8 active torsions:
REMARK  status: ('A' for Active; 'I' for Inactive)
REMARK    1  A    between atoms: C_2  and  C_3 
REMARK    2  A    between atoms: C_3  and  N_4 
REMARK    3  A    between atoms: C_5  and  N_6 
REMARK    4  A    between atoms: C_7  and  N_8 
REMARK    5  A    between atoms: N_8  and  C_9 
REMARK       I    between atoms: N_8  and  C_13 
REMARK    6  A    between atoms: C_9  and  C_10 
REMARK    7  A    between atoms: C_10  and  O_11 
REMARK    8  A    between atoms: C_13  and  C_15 
ROOT
HETATM    1  N   UNL     1     -43.544 -47.154  10.142  1.00  0.00    -0.288 N 
HETATM    2  C   UNL     1     -42.913 -47.932  11.119  1.00  0.00     0.117 C 
HETATM    3  C   UNL     1     -41.653 -47.607  11.524  1.00  0.00     0.144 C 
HETATM    4  C   UNL     1     -40.922 -46.528  10.792  1.00  0.00     0.279 C 
HETATM    5  O   UNL     1     -39.848 -46.085  11.180  1.00  0.00    -0.265 OA
HETATM    6  N   UNL     1     -41.549 -46.018   9.704  1.00  0.00    -0.273 N 
HETATM    7  C   UNL     1     -42.881 -46.141   9.457  1.00  0.00     0.330 C 
HETATM    8  O   UNL     1     -43.426 -45.357   8.680  1.00  0.00    -0.246 OA
HETATM    9  H   UNL     1     -41.084 -45.257   9.240  1.00  0.00     0.173 HD
ENDROOT
BRANCH   3  10
HETATM   10  N   UNL     1     -41.017 -48.265  12.577  1.00  0.00    -0.308 N 
HETATM   11  C   UNL     1     -40.991 -47.846  13.918  1.00  0.00     0.232 C 
HETATM   12  O   UNL     1     -40.332 -48.523  14.725  1.00  0.00    -0.272 OA
BRANCH  10  13
HETATM   13  C   UNL     1     -40.022 -49.317  12.276  1.00  0.00     0.158 C 
BRANCH  13  14
HETATM   14  C   UNL     1     -40.456 -50.749  11.949  1.00  0.00     0.187 C 
BRANCH  14  15
HETATM   15  O   UNL     1     -41.660 -51.105  12.627  1.00  0.00    -0.394 OA
HETATM   16  C   UNL     1     -42.142 -52.369  12.182  1.00  0.00     0.201 C 
ENDBRANCH  14  15
ENDBRANCH  13  14
ENDBRANCH  10  13
BRANCH  11  17
HETATM   17  C   UNL     1     -41.701 -46.568  14.472  1.00  0.00     0.030 C 
HETATM   18  C   UNL     1     -43.129 -46.336  13.980  1.00  0.00     0.025 C 
HETATM   19  C   UNL     1     -41.797 -46.734  16.017  1.00  0.00     0.025 C 
HETATM   20  C   UNL     1     -40.850 -45.313  14.234  1.00  0.00     0.025 C 
ENDBRANCH  11  17
ENDBRANCH   3  10
BRANCH   2  21
HETATM   21  N   UNL     1     -43.578 -48.998  11.714  1.00  0.00    -0.286 NA
HETATM   22  H   UNL     1     -43.054 -49.448  12.456  1.00  0.00     0.125 HD
HETATM   23  H   UNL     1     -43.934 -49.668  11.035  1.00  0.00     0.125 HD
ENDBRANCH   2  21
BRANCH   1  24
HETATM   24  C   UNL     1     -44.974 -47.314   9.836  1.00  0.00     0.135 C 
BRANCH  24  25
HETATM   25  C   UNL     1     -45.211 -47.997   8.482  1.00  0.00     0.016 C 
HETATM   26  C   UNL     1     -46.561 -48.700   8.436  1.00  0.00     0.006 C 
ENDBRANCH  24  25
ENDBRANCH   1  24
TORSDOF 8
ENDMDL
MODEL 2
REMARK VINA RESULT:      -5.0      4.893      7.462
REMARK  8 active torsions:
REMARK  status: ('A' for Active; 'I' for Inactive)
REMARK    1  A    between atoms: C_2  and  C_3 
REMARK    2  A    between atoms: C_3  and  N_4 
REMARK    3  A    between atoms: C_5  and  N_6 
REMARK    4  A    between atoms: C_7  and  N_8 
REMARK    5  A    between atoms: N_8  and  C_9 
REMARK       I    between atoms: N_8  and  C_13 
REMARK    6  A    between atoms: C_9  and  C_10 
REMARK    7  A    between atoms: C_10  and  O_11 
REMARK    8  A    between atoms: C_13  and  C_15 
ROOT
HETATM    1  N   UNL     1     -40.047 -51.345  13.579  1.00  0.00    -0.288 N 
HETATM    2  C   UNL     1     -40.424 -52.673  13.812  1.00  0.00     0.117 C 
HETATM    3  C   UNL     1     -41.161 -52.978  14.916  1.00  0.00     0.144 C 
HETATM    4  C   UNL     1     -41.403 -51.908  15.932  1.00  0.00     0.279 C 
HETATM    5  O   UNL     1     -42.168 -52.062  16.877  1.00  0.00    -0.265 OA
HETATM    6  N   UNL     1     -40.776 -50.726  15.712  1.00  0.00    -0.273 N 
HETATM    7  C   UNL     1     -40.272 -50.336  14.510  1.00  0.00     0.330 C 
HETATM    8  O   UNL     1     -40.067 -49.141  14.301  1.00  0.00    -0.246 OA
HETATM    9  H   UNL     1     -40.978 -49.989  16.365  1.00  0.00     0.173 HD
ENDROOT
BRANCH   3  10
HETATM   10  N   UNL     1     -41.671 -54.256  15.141  1.00  0.00    -0.308 N 
HETATM   11  C   UNL     1     -42.948 -54.713  14.773  1.00  0.00     0.232 C 
HETATM   12  O   UNL     1     -43.266 -55.870  15.096  1.00  0.00    -0.272 OA
BRANCH  10  13
HETATM   13  C   UNL     1     -40.989 -55.147  16.104  1.00  0.00     0.158 C 
BRANCH  13  14
HETATM   14  C   UNL     1     -39.476 -55.377  16.038  1.00  0.00     0.187 C 
BRANCH  14  15
HETATM   15  O   UNL     1     -39.116 -56.672  16.521  1.00  0.00    -0.394 OA
HETATM   16  C   UNL     1     -40.210 -57.287  17.194  1.00  0.00     0.201 C 
ENDBRANCH  14  15
ENDBRANCH  13  14
ENDBRANCH  10  13
BRANCH  11  17
HETATM   17  C   UNL     1     -44.020 -53.864  14.016  1.00  0.00     0.030 C 
HETATM   18  C   UNL     1     -43.565 -53.243  12.696  1.00  0.00     0.025 C 
HETATM   19  C   UNL     1     -45.194 -54.824  13.660  1.00  0.00     0.025 C 
HETATM   20  C   UNL     1     -44.620 -52.784  14.929  1.00  0.00     0.025 C 
ENDBRANCH  11  17
ENDBRANCH   3  10
BRANCH   2  21
HETATM   21  N   UNL     1     -40.097 -53.672  12.900  1.00  0.00    -0.286 NA
HETATM   22  H   UNL     1     -40.561 -54.556  13.075  1.00  0.00     0.125 HD
HETATM   23  H   UNL     1     -39.091 -53.782  12.783  1.00  0.00     0.125 HD
ENDBRANCH   2  21
BRANCH   1  24
HETATM   24  C   UNL     1     -39.457 -50.925  12.299  1.00  0.00     0.135 C 
BRANCH  24  25
HETATM   25  C   UNL     1     -37.932 -50.761  12.382  1.00  0.00     0.016 C 
HETATM   26  C   UNL     1     -37.386 -49.978  11.196  1.00  0.00     0.006 C 
ENDBRANCH  24  25
ENDBRANCH   1  24
TORSDOF 8
ENDMDL
MODEL 3
REMARK VINA RESULT:      -5.0      4.950      7.232
REMARK  8 active torsions:
REMARK  status: ('A' for Active; 'I' for Inactive)
REMARK    1  A    between atoms: C_2  and  C_3 
REMARK    2  A    between atoms: C_3  and  N_4 
REMARK    3  A    between atoms: C_5  and  N_6 
REMARK    4  A    between atoms: C_7  and  N_8 
REMARK    5  A    between atoms: N_8  and  C_9 
REMARK       I    between atoms: N_8  and  C_13 
REMARK    6  A    between atoms: C_9  and  C_10 
REMARK    7  A    between atoms: C_10  and  O_11 
REMARK    8  A    between atoms: C_13  and  C_15 
ROOT
HETATM    1  N   UNL     1     -41.622 -51.657  13.630  1.00  0.00    -0.288 N 
HETATM    2  C   UNL     1     -42.469 -52.100  14.653  1.00  0.00     0.117 C 
HETATM    3  C   UNL     1     -43.468 -52.979  14.363  1.00  0.00     0.144 C 
HETATM    4  C   UNL     1     -43.731 -53.316  12.931  1.00  0.00     0.279 C 
HETATM    5  O   UNL     1     -44.514 -54.198  12.598  1.00  0.00    -0.265 OA
HETATM    6  N   UNL     1     -43.002 -52.632  12.016  1.00  0.00    -0.273 N 
HETATM    7  C   UNL     1     -41.848 -51.968  12.293  1.00  0.00     0.330 C 
HETATM    8  O   UNL     1     -41.068 -51.703  11.378  1.00  0.00    -0.246 OA
HETATM    9  H   UNL     1     -43.140 -52.892  11.054  1.00  0.00     0.173 HD
ENDROOT
BRANCH   3  10
HETATM   10  N   UNL     1     -44.266 -53.551  15.353  1.00  0.00    -0.308 N 
HETATM   11  C   UNL     1     -45.448 -53.004  15.881  1.00  0.00     0.232 C 
HETATM   12  O   UNL     1     -46.013 -53.621  16.801  1.00  0.00    -0.272 OA
BRANCH  10  13
HETATM   13  C   UNL     1     -43.723 -54.661  16.167  1.00  0.00     0.158 C 
BRANCH  13  14
HETATM   14  C   UNL     1     -42.615 -55.571  15.630  1.00  0.00     0.187 C 
BRANCH  14  15
HETATM   15  O   UNL     1     -42.415 -56.711  16.465  1.00  0.00    -0.394 OA
HETATM   16  C   UNL     1     -41.104 -56.714  17.020  1.00  0.00     0.201 C 
ENDBRANCH  14  15
ENDBRANCH  13  14
ENDBRANCH  10  13
BRANCH  11  17
HETATM   17  C   UNL     1     -46.093 -51.656  15.426  1.00  0.00     0.030 C 
HETATM   18  C   UNL     1     -46.367 -51.523  13.928  1.00  0.00     0.025 C 
HETATM   19  C   UNL     1     -47.478 -51.552  16.129  1.00  0.00     0.025 C 
HETATM   20  C   UNL     1     -45.277 -50.454  15.922  1.00  0.00     0.025 C 
ENDBRANCH  11  17
ENDBRANCH   3  10
BRANCH   2  21
HETATM   21  N   UNL     1     -42.266 -51.690  15.967  1.00  0.00    -0.286 NA
HETATM   22  H   UNL     1     -42.970 -52.025  16.616  1.00  0.00     0.125 HD
HETATM   23  H   UNL     1     -42.117 -50.686  16.047  1.00  0.00     0.125 HD
ENDBRANCH   2  21
BRANCH   1  24
HETATM   24  C   UNL     1     -40.396 -50.898  13.921  1.00  0.00     0.135 C 
BRANCH  24  25
HETATM   25  C   UNL     1     -39.172 -51.808  14.102  1.00  0.00     0.016 C 
HETATM   26  C   UNL     1     -37.958 -51.271  13.356  1.00  0.00     0.006 C 
ENDBRANCH  24  25
ENDBRANCH   1  24
TORSDOF 8
ENDMDL
MODEL 4
REMARK VINA RESULT:      -4.9      3.484      6.020
REMARK  8 active torsions:
REMARK  status: ('A' for Active; 'I' for Inactive)
REMARK    1  A    between atoms: C_2  and  C_3 
REMARK    2  A    between atoms: C_3  and  N_4 
REMARK    3  A    between atoms: C_5  and  N_6 
REMARK    4  A    between atoms: C_7  and  N_8 
REMARK    5  A    between atoms: N_8  and  C_9 
REMARK       I    between atoms: N_8  and  C_13 
REMARK    6  A    between atoms: C_9  and  C_10 
REMARK    7  A    between atoms: C_10  and  O_11 
REMARK    8  A    between atoms: C_13  and  C_15 
ROOT
HETATM    1  N   UNL     1     -44.261 -51.972  13.258  1.00  0.00    -0.288 N 
HETATM    2  C   UNL     1     -42.942 -52.062  12.799  1.00  0.00     0.117 C 
HETATM    3  C   UNL     1     -41.953 -51.399  13.463  1.00  0.00     0.144 C 
HETATM    4  C   UNL     1     -42.336 -50.463  14.564  1.00  0.00     0.279 C 
HETATM    5  O   UNL     1     -41.504 -49.940  15.297  1.00  0.00    -0.265 OA
HETATM    6  N   UNL     1     -43.665 -50.275  14.751  1.00  0.00    -0.273 N 
HETATM    7  C   UNL     1     -44.631 -51.112  14.287  1.00  0.00     0.330 C 
HETATM    8  O   UNL     1     -45.750 -51.087  14.801  1.00  0.00    -0.246 OA
HETATM    9  H   UNL     1     -43.925 -49.687  15.523  1.00  0.00     0.173 HD
ENDROOT
BRANCH   3  10
HETATM   10  N   UNL     1     -40.607 -51.546  13.132  1.00  0.00    -0.308 N 
HETATM   11  C   UNL     1     -39.712 -52.469  13.699  1.00  0.00     0.232 C 
HETATM   12  O   UNL     1     -38.526 -52.433  13.326  1.00  0.00    -0.272 OA
BRANCH  10  13
HETATM   13  C   UNL     1     -39.933 -50.479  12.361  1.00  0.00     0.158 C 
BRANCH  13  14
HETATM   14  C   UNL     1     -40.662 -49.723  11.247  1.00  0.00     0.187 C 
BRANCH  14  15
HETATM   15  O   UNL     1     -41.158 -48.463  11.700  1.00  0.00    -0.394 OA
HETATM   16  C   UNL     1     -42.552 -48.338  11.433  1.00  0.00     0.201 C 
ENDBRANCH  14  15
ENDBRANCH  13  14
ENDBRANCH  10  13
BRANCH  11  17
HETATM   17  C   UNL     1     -40.083 -53.522  14.793  1.00  0.00     0.030 C 
HETATM   18  C   UNL     1     -41.373 -54.306  14.550  1.00  0.00     0.025 C 
HETATM   19  C   UNL     1     -38.936 -54.575  14.820  1.00  0.00     0.025 C 
HETATM   20  C   UNL     1     -40.107 -52.887  16.190  1.00  0.00     0.025 C 
ENDBRANCH  11  17
ENDBRANCH   3  10
BRANCH   2  21
HETATM   21  N   UNL     1     -42.625 -52.861  11.706  1.00  0.00    -0.286 NA
HETATM   22  H   UNL     1     -42.517 -53.844  11.931  1.00  0.00     0.125 HD
HETATM   23  H   UNL     1     -41.837 -52.501  11.171  1.00  0.00     0.125 HD
ENDBRANCH   2  21
BRANCH   1  24
HETATM   24  C   UNL     1     -45.321 -52.842  12.727  1.00  0.00     0.135 C 
BRANCH  24  25
HETATM   25  C   UNL     1     -45.212 -54.283  13.245  1.00  0.00     0.016 C 
HETATM   26  C   UNL     1     -46.133 -54.525  14.434  1.00  0.00     0.006 C 
ENDBRANCH  24  25
ENDBRANCH   1  24
TORSDOF 8
ENDMDL
MODEL 5
REMARK VINA RESULT:      -4.8      4.387      6.584
REMARK  8 active torsions:
REMARK  status: ('A' for Active; 'I' for Inactive)
REMARK    1  A    between atoms: C_2  and  C_3 
REMARK    2  A    between atoms: C_3  and  N_4 
REMARK    3  A    between atoms: C_5  and  N_6 
REMARK    4  A    between atoms: C_7  and  N_8 
REMARK    5  A    between atoms: N_8  and  C_9 
REMARK       I    between atoms: N_8  and  C_13 
REMARK    6  A    between atoms: C_9  and  C_10 
REMARK    7  A    between atoms: C_10  and  O_11 
REMARK    8  A    between atoms: C_13  and  C_15 
ROOT
HETATM    1  N   UNL     1     -44.769 -52.780  14.005  1.00  0.00    -0.288 N 
HETATM    2  C   UNL     1     -43.606 -52.469  14.719  1.00  0.00     0.117 C 
HETATM    3  C   UNL     1     -42.459 -52.183  14.040  1.00  0.00     0.144 C 
HETATM    4  C   UNL     1     -42.439 -52.373  12.558  1.00  0.00     0.279 C 
HETATM    5  O   UNL     1     -41.498 -52.009  11.863  1.00  0.00    -0.265 OA
HETATM    6  N   UNL     1     -43.555 -52.916  12.013  1.00  0.00    -0.273 N 
HETATM    7  C   UNL     1     -44.769 -52.952  12.625  1.00  0.00     0.330 C 
HETATM    8  O   UNL     1     -45.784 -53.108  11.946  1.00  0.00    -0.246 OA
HETATM    9  H   UNL     1     -43.565 -52.997  11.011  1.00  0.00     0.173 HD
ENDROOT
BRANCH   3  10
HETATM   10  N   UNL     1     -41.302 -51.747  14.685  1.00  0.00    -0.308 N 
HETATM   11  C   UNL     1     -40.244 -52.560  15.125  1.00  0.00     0.232 C 
HETATM   12  O   UNL     1     -39.306 -52.015  15.732  1.00  0.00    -0.272 OA
BRANCH  10  13
HETATM   13  C   UNL     1     -41.263 -50.382  15.254  1.00  0.00     0.158 C 
BRANCH  13  14
HETATM   14  C   UNL     1     -41.301 -49.145  14.353  1.00  0.00     0.187 C 
BRANCH  14  15
HETATM   15  O   UNL     1     -40.303 -49.202  13.334  1.00  0.00    -0.394 OA
HETATM   16  C   UNL     1     -39.006 -48.971  13.876  1.00  0.00     0.201 C 
ENDBRANCH  14  15
ENDBRANCH  13  14
ENDBRANCH  10  13
BRANCH  11  17
HETATM   17  C   UNL     1     -40.169 -54.111  14.941  1.00  0.00     0.030 C 
HETATM   18  C   UNL     1     -40.073 -54.604  13.497  1.00  0.00     0.025 C 
HETATM   19  C   UNL     1     -38.868 -54.592  15.650  1.00  0.00     0.025 C 
HETATM   20  C   UNL     1     -41.328 -54.812  15.663  1.00  0.00     0.025 C 
ENDBRANCH  11  17
ENDBRANCH   3  10
BRANCH   2  21
HETATM   21  N   UNL     1     -43.624 -52.398  16.107  1.00  0.00    -0.286 NA
HETATM   22  H   UNL     1     -44.223 -53.088  16.547  1.00  0.00     0.125 HD
HETATM   23  H   UNL     1     -43.808 -51.456  16.450  1.00  0.00     0.125 HD
ENDBRANCH   2  21
BRANCH   1  24
HETATM   24  C   UNL     1     -46.079 -52.868  14.669  1.00  0.00     0.135 C 
BRANCH  24  25
HETATM   25  C   UNL     1     -46.742 -51.494  14.842  1.00  0.00     0.016 C 
HETATM   26  C   UNL     1     -47.368 -51.341  16.222  1.00  0.00     0.006 C 
ENDBRANCH  24  25
ENDBRANCH   1  24
TORSDOF 8
ENDMDL
MODEL 6
REMARK VINA RESULT:      -4.8      3.796      5.595
REMARK  8 active torsions:
REMARK  status: ('A' for Active; 'I' for Inactive)
REMARK    1  A    between atoms: C_2  and  C_3 
REMARK    2  A    between atoms: C_3  and  N_4 
REMARK    3  A    between atoms: C_5  and  N_6 
REMARK    4  A    between atoms: C_7  and  N_8 
REMARK    5  A    between atoms: N_8  and  C_9 
REMARK       I    between atoms: N_8  and  C_13 
REMARK    6  A    between atoms: C_9  and  C_10 
REMARK    7  A    between atoms: C_10  and  O_11 
REMARK    8  A    between atoms: C_13  and  C_15 
ROOT
HETATM    1  N   UNL     1     -44.185 -52.767  14.120  1.00  0.00    -0.288 N 
HETATM    2  C   UNL     1     -43.024 -52.137  14.583  1.00  0.00     0.117 C 
HETATM    3  C   UNL     1     -41.981 -51.940  13.728  1.00  0.00     0.144 C 
HETATM    4  C   UNL     1     -42.048 -52.552  12.366  1.00  0.00     0.279 C 
HETATM    5  O   UNL     1     -41.220 -52.307  11.496  1.00  0.00    -0.265 OA
HETATM    6  N   UNL     1     -43.118 -53.347  12.123  1.00  0.00    -0.273 N 
HETATM    7  C   UNL     1     -44.266 -53.334  12.852  1.00  0.00     0.330 C 
HETATM    8  O   UNL     1     -45.299 -53.790  12.361  1.00  0.00    -0.246 OA
HETATM    9  H   UNL     1     -43.193 -53.719  11.192  1.00  0.00     0.173 HD
ENDROOT
BRANCH   3  10
HETATM   10  N   UNL     1     -40.849 -51.212  14.091  1.00  0.00    -0.308 N 
HETATM   11  C   UNL     1     -40.651 -49.835  13.891  1.00  0.00     0.232 C 
HETATM   12  O   UNL     1     -39.557 -49.350  14.228  1.00  0.00    -0.272 OA
BRANCH  10  13
HETATM   13  C   UNL     1     -39.605 -51.935  14.435  1.00  0.00     0.158 C 
BRANCH  13  14
HETATM   14  C   UNL     1     -39.549 -52.896  15.626  1.00  0.00     0.187 C 
BRANCH  14  15
HETATM   15  O   UNL     1     -39.891 -54.229  15.247  1.00  0.00    -0.394 OA
HETATM   16  C   UNL     1     -39.274 -54.583  14.013  1.00  0.00     0.201 C 
ENDBRANCH  14  15
ENDBRANCH  13  14
ENDBRANCH  10  13
BRANCH  11  17
HETATM   17  C   UNL     1     -41.691 -48.866  13.241  1.00  0.00     0.030 C 
HETATM   18  C   UNL     1     -43.089 -48.880  13.860  1.00  0.00     0.025 C 
HETATM   19  C   UNL     1     -41.147 -47.419  13.433  1.00  0.00     0.025 C 
HETATM   20  C   UNL     1     -41.782 -49.085  11.724  1.00  0.00     0.025 C 
ENDBRANCH  11  17
ENDBRANCH   3  10
BRANCH   2  21
HETATM   21  N   UNL     1     -42.947 -51.665  15.889  1.00  0.00    -0.286 NA
HETATM   22  H   UNL     1     -42.439 -52.277  16.518  1.00  0.00     0.125 HD
HETATM   23  H   UNL     1     -43.855 -51.397  16.264  1.00  0.00     0.125 HD
ENDBRANCH   2  21
BRANCH   1  24
HETATM   24  C   UNL     1     -45.417 -52.798  14.923  1.00  0.00     0.135 C 
BRANCH  24  25
HETATM   25  C   UNL     1     -46.257 -51.523  14.758  1.00  0.00     0.016 C 
HETATM   26  C   UNL     1     -47.272 -51.369  15.883  1.00  0.00     0.006 C 
ENDBRANCH  24  25
ENDBRANCH   1  24
TORSDOF 8
ENDMDL
MODEL 7
REMARK VINA RESULT:      -4.8      5.726      7.075
REMARK  8 active torsions:
REMARK  status: ('A' for Active; 'I' for Inactive)
REMARK    1  A    between atoms: C_2  and  C_3 
REMARK    2  A    between atoms: C_3  and  N_4 
REMARK    3  A    between atoms: C_5  and  N_6 
REMARK    4  A    between atoms: C_7  and  N_8 
REMARK    5  A    between atoms: N_8  and  C_9 
REMARK       I    between atoms: N_8  and  C_13 
REMARK    6  A    between atoms: C_9  and  C_10 
REMARK    7  A    between atoms: C_10  and  O_11 
REMARK    8  A    between atoms: C_13  and  C_15 
ROOT
HETATM    1  N   UNL     1     -45.322 -53.401  14.168  1.00  0.00    -0.288 N 
HETATM    2  C   UNL     1     -44.356 -53.691  15.137  1.00  0.00     0.117 C 
HETATM    3  C   UNL     1     -43.047 -53.793  14.771  1.00  0.00     0.144 C 
HETATM    4  C   UNL     1     -42.708 -53.757  13.315  1.00  0.00     0.279 C 
HETATM    5  O   UNL     1     -41.551 -53.703  12.914  1.00  0.00    -0.265 OA
HETATM    6  N   UNL     1     -43.758 -53.719  12.460  1.00  0.00    -0.273 N 
HETATM    7  C   UNL     1     -45.021 -53.355  12.810  1.00  0.00     0.330 C 
HETATM    8  O   UNL     1     -45.808 -52.989  11.937  1.00  0.00    -0.246 OA
HETATM    9  H   UNL     1     -43.533 -53.643  11.484  1.00  0.00     0.173 HD
ENDROOT
BRANCH   3  10
HETATM   10  N   UNL     1     -42.024 -53.958  15.703  1.00  0.00    -0.308 N 
HETATM   11  C   UNL     1     -41.293 -52.928  16.319  1.00  0.00     0.232 C 
HETATM   12  O   UNL     1     -40.375 -53.250  17.093  1.00  0.00    -0.272 OA
BRANCH  10  13
HETATM   13  C   UNL     1     -41.404 -55.291  15.868  1.00  0.00     0.158 C 
BRANCH  13  14
HETATM   14  C   UNL     1     -42.109 -56.404  16.648  1.00  0.00     0.187 C 
BRANCH  14  15
HETATM   15  O   UNL     1     -43.012 -55.877  17.621  1.00  0.00    -0.394 OA
HETATM   16  C   UNL     1     -42.447 -55.935  18.926  1.00  0.00     0.201 C 
ENDBRANCH  14  15
ENDBRANCH  13  14
ENDBRANCH  10  13
BRANCH  11  17
HETATM   17  C   UNL     1     -41.523 -51.400  16.082  1.00  0.00     0.030 C 
HETATM   18  C   UNL     1     -42.955 -50.904  16.284  1.00  0.00     0.025 C 
HETATM   19  C   UNL     1     -40.651 -50.640  17.125  1.00  0.00     0.025 C 
HETATM   20  C   UNL     1     -41.004 -50.969  14.703  1.00  0.00     0.025 C 
ENDBRANCH  11  17
ENDBRANCH   3  10
BRANCH   2  21
HETATM   21  N   UNL     1     -44.712 -53.823  16.475  1.00  0.00    -0.286 NA
HETATM   22  H   UNL     1     -44.323 -53.106  17.078  1.00  0.00     0.125 HD
HETATM   23  H   UNL     1     -44.543 -54.760  16.836  1.00  0.00     0.125 HD
ENDBRANCH   2  21
BRANCH   1  24
HETATM   24  C   UNL     1     -46.702 -53.052  14.537  1.00  0.00     0.135 C 
BRANCH  24  25
HETATM   25  C   UNL     1     -46.862 -51.560  14.864  1.00  0.00     0.016 C 
HETATM   26  C   UNL     1     -47.398 -51.348  16.274  1.00  0.00     0.006 C 
ENDBRANCH  24  25
ENDBRANCH   1  24
TORSDOF 8
ENDMDL
MODEL 8
REMARK VINA RESULT:      -4.8      4.671      6.093
REMARK  8 active torsions:
REMARK  status: ('A' for Active; 'I' for Inactive)
REMARK    1  A    between atoms: C_2  and  C_3 
REMARK    2  A    between atoms: C_3  and  N_4 
REMARK    3  A    between atoms: C_5  and  N_6 
REMARK    4  A    between atoms: C_7  and  N_8 
REMARK    5  A    between atoms: N_8  and  C_9 
REMARK       I    between atoms: N_8  and  C_13 
REMARK    6  A    between atoms: C_9  and  C_10 
REMARK    7  A    between atoms: C_10  and  O_11 
REMARK    8  A    between atoms: C_13  and  C_15 
ROOT
HETATM    1  N   UNL     1     -44.089 -53.327  14.012  1.00  0.00    -0.288 N 
HETATM    2  C   UNL     1     -42.801 -53.277  14.558  1.00  0.00     0.117 C 
HETATM    3  C   UNL     1     -41.752 -52.904  13.772  1.00  0.00     0.144 C 
HETATM    4  C   UNL     1     -41.987 -52.720  12.307  1.00  0.00     0.279 C 
HETATM    5  O   UNL     1     -41.135 -52.254  11.561  1.00  0.00    -0.265 OA
HETATM    6  N   UNL     1     -43.226 -53.038  11.859  1.00  0.00    -0.273 N 
HETATM    7  C   UNL     1     -44.325 -53.149  12.653  1.00  0.00     0.330 C 
HETATM    8  O   UNL     1     -45.445 -53.066  12.149  1.00  0.00    -0.246 OA
HETATM    9  H   UNL     1     -43.403 -52.866  10.884  1.00  0.00     0.173 HD
ENDROOT
BRANCH   3  10
HETATM   10  N   UNL     1     -40.469 -52.716  14.283  1.00  0.00    -0.308 N 
HETATM   11  C   UNL     1     -39.915 -51.494  14.699  1.00  0.00     0.232 C 
HETATM   12  O   UNL     1     -38.733 -51.492  15.083  1.00  0.00    -0.272 OA
BRANCH  10  13
HETATM   13  C   UNL     1     -39.460 -53.784  14.113  1.00  0.00     0.158 C 
BRANCH  13  14
HETATM   14  C   UNL     1     -39.326 -54.920  15.132  1.00  0.00     0.187 C 
BRANCH  14  15
HETATM   15  O   UNL     1     -39.865 -54.556  16.403  1.00  0.00    -0.394 OA
HETATM   16  C   UNL     1     -38.827 -54.262  17.333  1.00  0.00     0.201 C 
ENDBRANCH  14  15
ENDBRANCH  13  14
ENDBRANCH  10  13
BRANCH  11  17
HETATM   17  C   UNL     1     -40.662 -50.121  14.685  1.00  0.00     0.030 C 
HETATM   18  C   UNL     1     -42.103 -50.143  15.192  1.00  0.00     0.025 C 
HETATM   19  C   UNL     1     -39.882 -49.168  15.638  1.00  0.00     0.025 C 
HETATM   20  C   UNL     1     -40.601 -49.470  13.295  1.00  0.00     0.025 C 
ENDBRANCH  11  17
ENDBRANCH   3  10
BRANCH   2  21
HETATM   21  N   UNL     1     -42.592 -53.553  15.905  1.00  0.00    -0.286 NA
HETATM   22  H   UNL     1     -41.995 -52.883  16.376  1.00  0.00     0.125 HD
HETATM   23  H   UNL     1     -42.293 -54.514  16.067  1.00  0.00     0.125 HD
ENDBRANCH   2  21
BRANCH   1  24
HETATM   24  C   UNL     1     -45.279 -53.494  14.860  1.00  0.00     0.135 C 
BRANCH  24  25
HETATM   25  C   UNL     1     -45.680 -52.194  15.571  1.00  0.00     0.016 C 
HETATM   26  C   UNL     1     -46.859 -51.518  14.884  1.00  0.00     0.006 C 
ENDBRANCH  24  25
ENDBRANCH   1  24
TORSDOF 8
ENDMDL
MODEL 9
REMARK VINA RESULT:      -4.7      2.808      5.756
REMARK  8 active torsions:
REMARK  status: ('A' for Active; 'I' for Inactive)
REMARK    1  A    between atoms: C_2  and  C_3 
REMARK    2  A    between atoms: C_3  and  N_4 
REMARK    3  A    between atoms: C_5  and  N_6 
REMARK    4  A    between atoms: C_7  and  N_8 
REMARK    5  A    between atoms: N_8  and  C_9 
REMARK       I    between atoms: N_8  and  C_13 
REMARK    6  A    between atoms: C_9  and  C_10 
REMARK    7  A    between atoms: C_10  and  O_11 
REMARK    8  A    between atoms: C_13  and  C_15 
ROOT
HETATM    1  N   UNL     1     -42.800 -52.506  13.447  1.00  0.00    -0.288 N 
HETATM    2  C   UNL     1     -41.956 -51.906  12.506  1.00  0.00     0.117 C 
HETATM    3  C   UNL     1     -41.480 -50.650  12.736  1.00  0.00     0.144 C 
HETATM    4  C   UNL     1     -42.009 -49.889  13.909  1.00  0.00     0.279 C 
HETATM    5  O   UNL     1     -41.534 -48.816  14.262  1.00  0.00    -0.265 OA
HETATM    6  N   UNL     1     -43.007 -50.486  14.604  1.00  0.00    -0.273 N 
HETATM    7  C   UNL     1     -43.295 -51.815  14.548  1.00  0.00     0.330 C 
HETATM    8  O   UNL     1     -43.940 -52.332  15.460  1.00  0.00    -0.246 OA
HETATM    9  H   UNL     1     -43.330 -50.001  15.423  1.00  0.00     0.173 HD
ENDROOT
BRANCH   3  10
HETATM   10  N   UNL     1     -40.540 -50.046  11.902  1.00  0.00    -0.308 N 
HETATM   11  C   UNL     1     -39.150 -50.021  12.104  1.00  0.00     0.232 C 
HETATM   12  O   UNL     1     -38.456 -49.391  11.287  1.00  0.00    -0.272 OA
BRANCH  10  13
HETATM   13  C   UNL     1     -40.998 -49.080  10.879  1.00  0.00     0.158 C 
BRANCH  13  14
HETATM   14  C   UNL     1     -41.013 -47.574  11.159  1.00  0.00     0.187 C 
BRANCH  14  15
HETATM   15  O   UNL     1     -42.236 -46.970  10.738  1.00  0.00    -0.394 OA
HETATM   16  C   UNL     1     -43.352 -47.783  11.085  1.00  0.00     0.201 C 
ENDBRANCH  14  15
ENDBRANCH  13  14
ENDBRANCH  10  13
BRANCH  11  17
HETATM   17  C   UNL     1     -38.406 -50.697  13.300  1.00  0.00     0.030 C 
HETATM   18  C   UNL     1     -38.988 -52.028  13.777  1.00  0.00     0.025 C 
HETATM   19  C   UNL     1     -36.957 -51.007  12.820  1.00  0.00     0.025 C 
HETATM   20  C   UNL     1     -38.261 -49.730  14.483  1.00  0.00     0.025 C 
ENDBRANCH  11  17
ENDBRANCH   3  10
BRANCH   2  21
HETATM   21  N   UNL     1     -41.558 -52.599  11.368  1.00  0.00    -0.286 NA
HETATM   22  H   UNL     1     -40.937 -53.378  11.555  1.00  0.00     0.125 HD
HETATM   23  H   UNL     1     -41.194 -51.984  10.641  1.00  0.00     0.125 HD
ENDBRANCH   2  21
BRANCH   1  24
HETATM   24  C   UNL     1     -43.154 -53.932  13.365  1.00  0.00     0.135 C 
BRANCH  24  25
HETATM   25  C   UNL     1     -44.577 -54.154  12.833  1.00  0.00     0.016 C 
HETATM   26  C   UNL     1     -45.372 -55.092  13.731  1.00  0.00     0.006 C 
ENDBRANCH  24  25
ENDBRANCH   1  24
TORSDOF 8
ENDMDL
