MODEL 1
REMARK VINA RESULT:      -6.1      0.000      0.000
REMARK  7 active torsions:
REMARK  status: ('A' for Active; 'I' for Inactive)
REMARK    1  A    between atoms: O_2  and  C_3 
REMARK    2  A    between atoms: C_3  and  C_4 
REMARK    3  A    between atoms: C_4  and  O_5 
REMARK    4  A    between atoms: O_5  and  C_6 
REMARK    5  A    between atoms: C_9  and  C_10 
REMARK    6  A    between atoms: C_10  and  N_11 
REMARK       I    between atoms: N_11  and  C_12 
REMARK    7  A    between atoms: C_12  and  C_14 
ROOT
HETATM    1  C   UNL     1     -39.440 -52.913  13.926  1.00  0.00     0.162 C 
ENDROOT
BRANCH   1   2
HETATM    2  C   UNL     1     -40.817 -53.138  13.381  1.00  0.00    -0.025 A 
HETATM    3  C   UNL     1     -41.734 -53.951  14.049  1.00  0.00     0.014 A 
HETATM    4  C   UNL     1     -43.048 -54.028  13.593  1.00  0.00     0.057 A 
HETATM    5  C   UNL     1     -43.399 -53.316  12.459  1.00  0.00     0.141 A 
HETATM    6  N   UNL     1     -42.538 -52.547  11.765  1.00  0.00    -0.346 N 
HETATM    7  C   UNL     1     -41.270 -52.473  12.243  1.00  0.00     0.099 A 
ATOM      8  HN  UNL     1     -42.824 -52.045  10.924  1.00  0.00     0.167 HD
BRANCH   5   9
HETATM    9  O   UNL     1     -44.736 -53.342  12.124  1.00  0.00    -0.334 OA
BRANCH   9  10
HETATM   10  C   UNL     1     -45.611 -53.086  13.223  1.00  0.00     0.203 C 
BRANCH  10  11
HETATM   11  C   UNL     1     -46.205 -51.691  13.017  1.00  0.00     0.193 C 
BRANCH  11  12
HETATM   12  O   UNL     1     -46.924 -51.275  14.177  1.00  0.00    -0.394 OA
HETATM   13  C   UNL     1     -46.932 -52.292  15.173  1.00  0.00     0.201 C 
ENDBRANCH  11  12
ENDBRANCH  10  11
ENDBRANCH   9  10
ENDBRANCH   5   9
ENDBRANCH   1   2
BRANCH   1  14
HETATM   14  N   UNL     1     -38.993 -51.534  13.902  1.00  0.00    -0.356 N 
HETATM   15  C   UNL     1     -37.854 -51.256  13.182  1.00  0.00     0.223 C 
HETATM   16  O   UNL     1     -37.135 -52.150  12.733  1.00  0.00    -0.273 OA
HETATM   17  H   UNL     1     -39.676 -50.798  14.043  1.00  0.00     0.162 HD
BRANCH  15  18
HETATM   18  C   UNL     1     -37.523 -49.798  12.886  1.00  0.00     0.096 C 
HETATM   19  C   UNL     1     -38.185 -48.767  13.794  1.00  0.00     0.025 C 
HETATM   20  C   UNL     1     -39.546 -48.256  13.329  1.00  0.00     0.103 C 
HETATM   21  C   UNL     1     -39.741 -48.173  11.834  1.00  0.00     0.217 C 
HETATM   22  O   UNL     1     -40.582 -47.445  11.315  1.00  0.00    -0.274 OA
HETATM   23  N   UNL     1     -39.040 -49.062  11.068  1.00  0.00    -0.360 N 
HETATM   24  C   UNL     1     -37.697 -49.465  11.417  1.00  0.00     0.136 C 
HETATM   25  H   UNL     1     -39.231 -48.924  10.080  1.00  0.00     0.162 HD
ENDBRANCH  15  18
ENDBRANCH   1  14
TORSDOF 7
ENDMDL
MODEL 2
REMARK VINA RESULT:      -6.1      2.503      7.165
REMARK  7 active torsions:
REMARK  status: ('A' for Active; 'I' for Inactive)
REMARK    1  A    between atoms: O_2  and  C_3 
REMARK    2  A    between atoms: C_3  and  C_4 
REMARK    3  A    between atoms: C_4  and  O_5 
REMARK    4  A    between atoms: O_5  and  C_6 
REMARK    5  A    between atoms: C_9  and  C_10 
REMARK    6  A    between atoms: C_10  and  N_11 
REMARK       I    between atoms: N_11  and  C_12 
REMARK    7  A    between atoms: C_12  and  C_14 
ROOT
HETATM    1  C   UNL     1     -41.433 -52.141  12.154  1.00  0.00     0.162 C 
ENDROOT
BRANCH   1   2
HETATM    2  C   UNL     1     -41.347 -50.652  12.008  1.00  0.00    -0.025 A 
HETATM    3  C   UNL     1     -42.086 -49.802  12.832  1.00  0.00     0.014 A 
HETATM    4  C   UNL     1     -41.877 -48.427  12.768  1.00  0.00     0.057 A 
HETATM    5  C   UNL     1     -40.959 -47.937  11.854  1.00  0.00     0.141 A 
HETATM    6  N   UNL     1     -40.250 -48.719  11.017  1.00  0.00    -0.346 N 
HETATM    7  C   UNL     1     -40.457 -50.056  11.116  1.00  0.00     0.099 A 
ATOM      8  HN  UNL     1     -39.591 -48.326  10.345  1.00  0.00     0.167 HD
BRANCH   5   9
HETATM    9  O   UNL     1     -40.715 -46.582  11.916  1.00  0.00    -0.334 OA
BRANCH   9  10
HETATM   10  C   UNL     1     -40.846 -45.913  10.661  1.00  0.00     0.203 C 
BRANCH  10  11
HETATM   11  C   UNL     1     -42.317 -45.529  10.501  1.00  0.00     0.193 C 
BRANCH  11  12
HETATM   12  O   UNL     1     -42.711 -45.606   9.132  1.00  0.00    -0.394 OA
HETATM   13  C   UNL     1     -43.484 -46.776   8.882  1.00  0.00     0.201 C 
ENDBRANCH  11  12
ENDBRANCH  10  11
ENDBRANCH   9  10
ENDBRANCH   5   9
ENDBRANCH   1   2
BRANCH   1  14
HETATM   14  N   UNL     1     -42.741 -52.705  11.882  1.00  0.00    -0.356 N 
HETATM   15  C   UNL     1     -43.463 -53.164  12.959  1.00  0.00     0.223 C 
HETATM   16  O   UNL     1     -42.961 -53.271  14.079  1.00  0.00    -0.273 OA
HETATM   17  H   UNL     1     -43.237 -52.405  11.050  1.00  0.00     0.162 HD
BRANCH  15  18
HETATM   18  C   UNL     1     -44.939 -53.483  12.757  1.00  0.00     0.096 C 
HETATM   19  C   UNL     1     -45.852 -52.288  12.511  1.00  0.00     0.025 C 
HETATM   20  C   UNL     1     -46.454 -51.649  13.761  1.00  0.00     0.103 C 
HETATM   21  C   UNL     1     -46.743 -52.589  14.906  1.00  0.00     0.217 C 
HETATM   22  O   UNL     1     -47.555 -52.329  15.789  1.00  0.00    -0.274 OA
HETATM   23  N   UNL     1     -45.951 -53.698  15.011  1.00  0.00    -0.360 N 
HETATM   24  C   UNL     1     -45.473 -54.399  13.842  1.00  0.00     0.136 C 
HETATM   25  H   UNL     1     -46.226 -54.270  15.804  1.00  0.00     0.162 HD
ENDBRANCH  15  18
ENDBRANCH   1  14
TORSDOF 7
ENDMDL
MODEL 3
REMARK VINA RESULT:      -6.1      3.584      8.187
REMARK  7 active torsions:
REMARK  status: ('A' for Active; 'I' for Inactive)
REMARK    1  A    between atoms: O_2  and  C_3 
REMARK    2  A    between atoms: C_3  and  C_4 
REMARK    3  A    between atoms: C_4  and  O_5 
REMARK    4  A    between atoms: O_5  and  C_6 
REMARK    5  A    between atoms: C_9  and  C_10 
REMARK    6  A    between atoms: C_10  and  N_11 
REMARK       I    between atoms: N_11  and  C_12 
REMARK    7  A    between atoms: C_12  and  C_14 
ROOT
HETATM    1  C   UNL     1     -42.284 -50.039  12.795  1.00  0.00     0.162 C 
ENDROOT
BRANCH   1   2
HETATM    2  C   UNL     1     -42.191 -48.753  12.032  1.00  0.00    -0.025 A 
HETATM    3  C   UNL     1     -42.830 -47.597  12.484  1.00  0.00     0.014 A 
HETATM    4  C   UNL     1     -42.609 -46.387  11.832  1.00  0.00     0.057 A 
HETATM    5  C   UNL     1     -41.781 -46.373  10.722  1.00  0.00     0.141 A 
HETATM    6  N   UNL     1     -41.171 -47.470  10.233  1.00  0.00    -0.346 N 
HETATM    7  C   UNL     1     -41.387 -48.632  10.900  1.00  0.00     0.099 A 
ATOM      8  HN  UNL     1     -40.578 -47.429   9.404  1.00  0.00     0.167 HD
BRANCH   5   9
HETATM    9  O   UNL     1     -41.512 -45.130  10.190  1.00  0.00    -0.334 OA
BRANCH   9  10
HETATM   10  C   UNL     1     -40.228 -44.616  10.546  1.00  0.00     0.203 C 
BRANCH  10  11
HETATM   11  C   UNL     1     -40.454 -43.281  11.259  1.00  0.00     0.193 C 
BRANCH  11  12
HETATM   12  O   UNL     1     -40.118 -43.386  12.641  1.00  0.00    -0.394 OA
HETATM   13  C   UNL     1     -39.190 -44.442  12.868  1.00  0.00     0.201 C 
ENDBRANCH  11  12
ENDBRANCH  10  11
ENDBRANCH   9  10
ENDBRANCH   5   9
ENDBRANCH   1   2
BRANCH   1  14
HETATM   14  N   UNL     1     -43.512 -50.781  12.591  1.00  0.00    -0.356 N 
HETATM   15  C   UNL     1     -44.416 -50.797  13.627  1.00  0.00     0.223 C 
HETATM   16  O   UNL     1     -44.129 -50.367  14.746  1.00  0.00    -0.273 OA
HETATM   17  H   UNL     1     -43.849 -50.913  11.644  1.00  0.00     0.162 HD
BRANCH  15  18
HETATM   18  C   UNL     1     -45.826 -51.305  13.350  1.00  0.00     0.096 C 
HETATM   19  C   UNL     1     -46.750 -51.399  14.560  1.00  0.00     0.025 C 
HETATM   20  C   UNL     1     -46.723 -52.729  15.308  1.00  0.00     0.103 C 
HETATM   21  C   UNL     1     -46.469 -53.954  14.463  1.00  0.00     0.217 C 
HETATM   22  O   UNL     1     -46.796 -55.083  14.816  1.00  0.00    -0.274 OA
HETATM   23  N   UNL     1     -45.716 -53.782  13.335  1.00  0.00    -0.360 N 
HETATM   24  C   UNL     1     -45.816 -52.584  12.535  1.00  0.00     0.136 C 
HETATM   25  H   UNL     1     -45.606 -54.658  12.831  1.00  0.00     0.162 HD
ENDBRANCH  15  18
ENDBRANCH   1  14
TORSDOF 7
ENDMDL
MODEL 4
REMARK VINA RESULT:      -6.1      3.481      6.577
REMARK  7 active torsions:
REMARK  status: ('A' for Active; 'I' for Inactive)
REMARK    1  A    between atoms: O_2  and  C_3 
REMARK    2  A    between atoms: C_3  and  C_4 
REMARK    3  A    between atoms: C_4  and  O_5 
REMARK    4  A    between atoms: O_5  and  C_6 
REMARK    5  A    between atoms: C_9  and  C_10 
REMARK    6  A    between atoms: C_10  and  N_11 
REMARK       I    between atoms: N_11  and  C_12 
REMARK    7  A    between atoms: C_12  and  C_14 
ROOT
HETATM    1  C   UNL     1     -40.841 -50.508  13.327  1.00  0.00     0.162 C 
ENDROOT
BRANCH   1   2
HETATM    2  C   UNL     1     -41.497 -49.670  12.271  1.00  0.00    -0.025 A 
HETATM    3  C   UNL     1     -42.734 -49.065  12.496  1.00  0.00     0.014 A 
HETATM    4  C   UNL     1     -43.251 -48.181  11.552  1.00  0.00     0.057 A 
HETATM    5  C   UNL     1     -42.530 -47.954  10.392  1.00  0.00     0.141 A 
HETATM    6  N   UNL     1     -41.349 -48.542  10.120  1.00  0.00    -0.346 N 
HETATM    7  C   UNL     1     -40.860 -49.383  11.065  1.00  0.00     0.099 A 
ATOM      8  HN  UNL     1     -40.850 -48.364   9.249  1.00  0.00     0.167 HD
BRANCH   5   9
HETATM    9  O   UNL     1     -43.036 -46.985   9.551  1.00  0.00    -0.334 OA
BRANCH   9  10
HETATM   10  C   UNL     1     -44.134 -47.430   8.754  1.00  0.00     0.203 C 
BRANCH  10  11
HETATM   11  C   UNL     1     -45.258 -46.405   8.915  1.00  0.00     0.193 C 
BRANCH  11  12
HETATM   12  O   UNL     1     -46.501 -47.058   9.168  1.00  0.00    -0.394 OA
HETATM   13  C   UNL     1     -46.495 -48.392   8.671  1.00  0.00     0.201 C 
ENDBRANCH  11  12
ENDBRANCH  10  11
ENDBRANCH   9  10
ENDBRANCH   5   9
ENDBRANCH   1   2
BRANCH   1  14
HETATM   14  N   UNL     1     -41.099 -51.930  13.224  1.00  0.00    -0.356 N 
HETATM   15  C   UNL     1     -42.111 -52.442  14.001  1.00  0.00     0.223 C 
HETATM   16  O   UNL     1     -42.653 -51.776  14.884  1.00  0.00    -0.273 OA
HETATM   17  H   UNL     1     -40.848 -52.409  12.366  1.00  0.00     0.162 HD
BRANCH  15  18
HETATM   18  C   UNL     1     -42.607 -53.854  13.707  1.00  0.00     0.096 C 
HETATM   19  C   UNL     1     -43.727 -53.965  12.680  1.00  0.00     0.025 C 
HETATM   20  C   UNL     1     -45.145 -53.890  13.239  1.00  0.00     0.103 C 
HETATM   21  C   UNL     1     -45.338 -54.463  14.623  1.00  0.00     0.217 C 
HETATM   22  O   UNL     1     -46.431 -54.831  15.042  1.00  0.00    -0.274 OA
HETATM   23  N   UNL     1     -44.261 -54.424  15.464  1.00  0.00    -0.360 N 
HETATM   24  C   UNL     1     -42.915 -54.621  14.979  1.00  0.00     0.136 C 
HETATM   25  H   UNL     1     -44.485 -54.837  16.365  1.00  0.00     0.162 HD
ENDBRANCH  15  18
ENDBRANCH   1  14
TORSDOF 7
ENDMDL
MODEL 5
REMARK VINA RESULT:      -6.0      2.072      2.607
REMARK  7 active torsions:
REMARK  status: ('A' for Active; 'I' for Inactive)
REMARK    1  A    between atoms: O_2  and  C_3 
REMARK    2  A    between atoms: C_3  and  C_4 
REMARK    3  A    between atoms: C_4  and  O_5 
REMARK    4  A    between atoms: O_5  and  C_6 
REMARK    5  A    between atoms: C_9  and  C_10 
REMARK    6  A    between atoms: C_10  and  N_11 
REMARK       I    between atoms: N_11  and  C_12 
REMARK    7  A    between atoms: C_12  and  C_14 
ROOT
HETATM    1  C   UNL     1     -40.393 -51.989  13.140  1.00  0.00     0.162 C 
ENDROOT
BRANCH   1   2
HETATM    2  C   UNL     1     -41.648 -52.805  13.062  1.00  0.00    -0.025 A 
HETATM    3  C   UNL     1     -41.936 -53.779  14.019  1.00  0.00     0.014 A 
HETATM    4  C   UNL     1     -43.172 -54.420  14.000  1.00  0.00     0.057 A 
HETATM    5  C   UNL     1     -44.073 -54.093  13.001  1.00  0.00     0.141 A 
HETATM    6  N   UNL     1     -43.823 -53.184  12.039  1.00  0.00    -0.346 N 
HETATM    7  C   UNL     1     -42.619 -52.560  12.094  1.00  0.00     0.099 A 
ATOM      8  HN  UNL     1     -44.503 -52.976  11.308  1.00  0.00     0.167 HD
BRANCH   5   9
HETATM    9  O   UNL     1     -45.318 -54.677  13.102  1.00  0.00    -0.334 OA
BRANCH   9  10
HETATM   10  C   UNL     1     -45.915 -54.543  14.392  1.00  0.00     0.203 C 
BRANCH  10  11
HETATM   11  C   UNL     1     -46.676 -53.217  14.407  1.00  0.00     0.193 C 
BRANCH  11  12
HETATM   12  O   UNL     1     -46.276 -52.420  15.521  1.00  0.00    -0.394 OA
HETATM   13  C   UNL     1     -45.329 -51.430  15.135  1.00  0.00     0.201 C 
ENDBRANCH  11  12
ENDBRANCH  10  11
ENDBRANCH   9  10
ENDBRANCH   5   9
ENDBRANCH   1   2
BRANCH   1  14
HETATM   14  N   UNL     1     -40.597 -50.583  13.426  1.00  0.00    -0.356 N 
HETATM   15  C   UNL     1     -40.510 -49.709  12.368  1.00  0.00     0.223 C 
HETATM   16  O   UNL     1     -40.094 -50.064  11.264  1.00  0.00    -0.273 OA
HETATM   17  H   UNL     1     -41.159 -50.326  14.230  1.00  0.00     0.162 HD
BRANCH  15  18
HETATM   18  C   UNL     1     -41.006 -48.281  12.566  1.00  0.00     0.096 C 
HETATM   19  C   UNL     1     -42.519 -48.102  12.613  1.00  0.00     0.025 C 
HETATM   20  C   UNL     1     -43.195 -47.848  11.268  1.00  0.00     0.103 C 
HETATM   21  C   UNL     1     -42.381 -47.076  10.258  1.00  0.00     0.217 C 
HETATM   22  O   UNL     1     -42.890 -46.467   9.322  1.00  0.00    -0.274 OA
HETATM   23  N   UNL     1     -41.022 -47.201  10.334  1.00  0.00    -0.360 N 
HETATM   24  C   UNL     1     -40.343 -47.314  11.604  1.00  0.00     0.136 C 
HETATM   25  H   UNL     1     -40.563 -46.642   9.620  1.00  0.00     0.162 HD
ENDBRANCH  15  18
ENDBRANCH   1  14
TORSDOF 7
ENDMDL
MODEL 6
REMARK VINA RESULT:      -5.9      2.023      7.153
REMARK  7 active torsions:
REMARK  status: ('A' for Active; 'I' for Inactive)
REMARK    1  A    between atoms: O_2  and  C_3 
REMARK    2  A    between atoms: C_3  and  C_4 
REMARK    3  A    between atoms: C_4  and  O_5 
REMARK    4  A    between atoms: O_5  and  C_6 
REMARK    5  A    between atoms: C_9  and  C_10 
REMARK    6  A    between atoms: C_10  and  N_11 
REMARK       I    between atoms: N_11  and  C_12 
REMARK    7  A    between atoms: C_12  and  C_14 
ROOT
HETATM    1  C   UNL     1     -41.730 -54.083  13.166  1.00  0.00     0.162 C 
ENDROOT
BRANCH   1   2
HETATM    2  C   UNL     1     -41.048 -52.791  12.832  1.00  0.00    -0.025 A 
HETATM    3  C   UNL     1     -39.939 -52.352  13.556  1.00  0.00     0.014 A 
HETATM    4  C   UNL     1     -39.242 -51.222  13.133  1.00  0.00     0.057 A 
HETATM    5  C   UNL     1     -39.697 -50.543  12.016  1.00  0.00     0.141 A 
HETATM    6  N   UNL     1     -40.781 -50.912  11.308  1.00  0.00    -0.346 N 
HETATM    7  C   UNL     1     -41.429 -52.028  11.730  1.00  0.00     0.099 A 
ATOM      8  HN  UNL     1     -41.099 -50.382  10.497  1.00  0.00     0.167 HD
BRANCH   5   9
HETATM    9  O   UNL     1     -38.902 -49.503  11.582  1.00  0.00    -0.334 OA
BRANCH   9  10
HETATM   10  C   UNL     1     -38.821 -48.415  12.504  1.00  0.00     0.203 C 
BRANCH  10  11
HETATM   11  C   UNL     1     -40.095 -47.584  12.340  1.00  0.00     0.193 C 
BRANCH  11  12
HETATM   12  O   UNL     1     -40.259 -47.178  10.982  1.00  0.00    -0.394 OA
HETATM   13  C   UNL     1     -39.972 -45.793  10.818  1.00  0.00     0.201 C 
ENDBRANCH  11  12
ENDBRANCH  10  11
ENDBRANCH   9  10
ENDBRANCH   5   9
ENDBRANCH   1   2
BRANCH   1  14
HETATM   14  N   UNL     1     -43.135 -54.140  12.813  1.00  0.00    -0.356 N 
HETATM   15  C   UNL     1     -44.033 -54.320  13.838  1.00  0.00     0.223 C 
HETATM   16  O   UNL     1     -43.668 -54.611  14.979  1.00  0.00    -0.273 OA
HETATM   17  H   UNL     1     -43.443 -53.674  11.967  1.00  0.00     0.162 HD
BRANCH  15  18
HETATM   18  C   UNL     1     -45.513 -54.090  13.554  1.00  0.00     0.096 C 
HETATM   19  C   UNL     1     -45.870 -52.741  12.939  1.00  0.00     0.025 C 
HETATM   20  C   UNL     1     -46.179 -51.624  13.933  1.00  0.00     0.103 C 
HETATM   21  C   UNL     1     -46.831 -52.055  15.225  1.00  0.00     0.217 C 
HETATM   22  O   UNL     1     -47.479 -51.287  15.929  1.00  0.00    -0.274 OA
HETATM   23  N   UNL     1     -46.547 -53.316  15.670  1.00  0.00    -0.360 N 
HETATM   24  C   UNL     1     -46.378 -54.421  14.755  1.00  0.00     0.136 C 
HETATM   25  H   UNL     1     -47.036 -53.515  16.539  1.00  0.00     0.162 HD
ENDBRANCH  15  18
ENDBRANCH   1  14
TORSDOF 7
ENDMDL
MODEL 7
REMARK VINA RESULT:      -5.6      2.428      3.411
REMARK  7 active torsions:
REMARK  status: ('A' for Active; 'I' for Inactive)
REMARK    1  A    between atoms: O_2  and  C_3 
REMARK    2  A    between atoms: C_3  and  C_4 
REMARK    3  A    between atoms: C_4  and  O_5 
REMARK    4  A    between atoms: O_5  and  C_6 
REMARK    5  A    between atoms: C_9  and  C_10 
REMARK    6  A    between atoms: C_10  and  N_11 
REMARK       I    between atoms: N_11  and  C_12 
REMARK    7  A    between atoms: C_12  and  C_14 
ROOT
HETATM    1  C   UNL     1     -40.197 -50.177  13.402  1.00  0.00     0.162 C 
ENDROOT
BRANCH   1   2
HETATM    2  C   UNL     1     -41.333 -51.131  13.185  1.00  0.00    -0.025 A 
HETATM    3  C   UNL     1     -42.601 -50.874  13.708  1.00  0.00     0.014 A 
HETATM    4  C   UNL     1     -43.667 -51.705  13.371  1.00  0.00     0.057 A 
HETATM    5  C   UNL     1     -43.426 -52.791  12.547  1.00  0.00     0.141 A 
HETATM    6  N   UNL     1     -42.212 -53.094  12.048  1.00  0.00    -0.346 N 
HETATM    7  C   UNL     1     -41.196 -52.257  12.375  1.00  0.00     0.099 A 
ATOM      8  HN  UNL     1     -42.065 -53.911  11.455  1.00  0.00     0.167 HD
BRANCH   5   9
HETATM    9  O   UNL     1     -44.538 -53.507  12.159  1.00  0.00    -0.334 OA
BRANCH   9  10
HETATM   10  C   UNL     1     -45.521 -53.648  13.186  1.00  0.00     0.203 C 
BRANCH  10  11
HETATM   11  C   UNL     1     -45.289 -55.004  13.855  1.00  0.00     0.193 C 
BRANCH  11  12
HETATM   12  O   UNL     1     -45.096 -54.845  15.259  1.00  0.00    -0.394 OA
HETATM   13  C   UNL     1     -43.719 -54.668  15.575  1.00  0.00     0.201 C 
ENDBRANCH  11  12
ENDBRANCH  10  11
ENDBRANCH   9  10
ENDBRANCH   5   9
ENDBRANCH   1   2
BRANCH   1  14
HETATM   14  N   UNL     1     -40.582 -48.783  13.498  1.00  0.00    -0.356 N 
HETATM   15  C   UNL     1     -40.223 -47.960  12.456  1.00  0.00     0.223 C 
HETATM   16  O   UNL     1     -39.450 -48.331  11.571  1.00  0.00    -0.273 OA
HETATM   17  H   UNL     1     -41.389 -48.539  14.061  1.00  0.00     0.162 HD
BRANCH  15  18
HETATM   18  C   UNL     1     -40.856 -46.576  12.376  1.00  0.00     0.096 C 
HETATM   19  C   UNL     1     -42.379 -46.535  12.447  1.00  0.00     0.025 C 
HETATM   20  C   UNL     1     -43.104 -46.633  11.108  1.00  0.00     0.103 C 
HETATM   21  C   UNL     1     -42.393 -46.017   9.927  1.00  0.00     0.217 C 
HETATM   22  O   UNL     1     -42.980 -45.668   8.907  1.00  0.00    -0.274 OA
HETATM   23  N   UNL     1     -41.027 -45.994   9.971  1.00  0.00    -0.360 N 
HETATM   24  C   UNL     1     -40.314 -45.773  11.208  1.00  0.00     0.136 C 
HETATM   25  H   UNL     1     -40.641 -45.555   9.140  1.00  0.00     0.162 HD
ENDBRANCH  15  18
ENDBRANCH   1  14
TORSDOF 7
ENDMDL
MODEL 8
REMARK VINA RESULT:      -5.6      2.958      4.590
REMARK  7 active torsions:
REMARK  status: ('A' for Active; 'I' for Inactive)
REMARK    1  A    between atoms: O_2  and  C_3 
REMARK    2  A    between atoms: C_3  and  C_4 
REMARK    3  A    between atoms: C_4  and  O_5 
REMARK    4  A    between atoms: O_5  and  C_6 
REMARK    5  A    between atoms: C_9  and  C_10 
REMARK    6  A    between atoms: C_10  and  N_11 
REMARK       I    between atoms: N_11  and  C_12 
REMARK    7  A    between atoms: C_12  and  C_14 
ROOT
HETATM    1  C   UNL     1     -39.212 -48.692  12.490  1.00  0.00     0.162 C 
ENDROOT
BRANCH   1   2
HETATM    2  C   UNL     1     -39.642 -50.128  12.483  1.00  0.00    -0.025 A 
HETATM    3  C   UNL     1     -39.234 -51.008  13.487  1.00  0.00     0.014 A 
HETATM    4  C   UNL     1     -39.762 -52.295  13.532  1.00  0.00     0.057 A 
HETATM    5  C   UNL     1     -40.658 -52.679  12.549  1.00  0.00     0.141 A 
HETATM    6  N   UNL     1     -41.053 -51.873  11.544  1.00  0.00    -0.346 N 
HETATM    7  C   UNL     1     -40.539 -50.618  11.536  1.00  0.00     0.099 A 
ATOM      8  HN  UNL     1     -41.705 -52.191  10.826  1.00  0.00     0.167 HD
BRANCH   5   9
HETATM    9  O   UNL     1     -41.231 -53.922  12.711  1.00  0.00    -0.334 OA
BRANCH   9  10
HETATM   10  C   UNL     1     -41.833 -54.117  13.991  1.00  0.00     0.203 C 
BRANCH  10  11
HETATM   11  C   UNL     1     -43.340 -54.252  13.770  1.00  0.00     0.193 C 
BRANCH  11  12
HETATM   12  O   UNL     1     -43.730 -53.606  12.559  1.00  0.00    -0.394 OA
HETATM   13  C   UNL     1     -44.652 -52.551  12.810  1.00  0.00     0.201 C 
ENDBRANCH  11  12
ENDBRANCH  10  11
ENDBRANCH   9  10
ENDBRANCH   5   9
ENDBRANCH   1   2
BRANCH   1  14
HETATM   14  N   UNL     1     -39.656 -47.918  11.347  1.00  0.00    -0.356 N 
HETATM   15  C   UNL     1     -40.589 -46.934  11.580  1.00  0.00     0.223 C 
HETATM   16  O   UNL     1     -41.168 -46.831  12.663  1.00  0.00    -0.273 OA
HETATM   17  H   UNL     1     -39.036 -47.828  10.550  1.00  0.00     0.162 HD
BRANCH  15  18
HETATM   18  C   UNL     1     -40.856 -45.915  10.479  1.00  0.00     0.096 C 
HETATM   19  C   UNL     1     -40.105 -44.593  10.598  1.00  0.00     0.025 C 
HETATM   20  C   UNL     1     -40.816 -43.500  11.391  1.00  0.00     0.103 C 
HETATM   21  C   UNL     1     -42.323 -43.499  11.305  1.00  0.00     0.217 C 
HETATM   22  O   UNL     1     -43.000 -42.503  11.541  1.00  0.00    -0.274 OA
HETATM   23  N   UNL     1     -42.931 -44.706  11.096  1.00  0.00    -0.360 N 
HETATM   24  C   UNL     1     -42.341 -45.712  10.244  1.00  0.00     0.136 C 
HETATM   25  H   UNL     1     -43.941 -44.603  11.047  1.00  0.00     0.162 HD
ENDBRANCH  15  18
ENDBRANCH   1  14
TORSDOF 7
ENDMDL
MODEL 9
REMARK VINA RESULT:      -5.6      2.228      7.408
REMARK  7 active torsions:
REMARK  status: ('A' for Active; 'I' for Inactive)
REMARK    1  A    between atoms: O_2  and  C_3 
REMARK    2  A    between atoms: C_3  and  C_4 
REMARK    3  A    between atoms: C_4  and  O_5 
REMARK    4  A    between atoms: O_5  and  C_6 
REMARK    5  A    between atoms: C_9  and  C_10 
REMARK    6  A    between atoms: C_10  and  N_11 
REMARK       I    between atoms: N_11  and  C_12 
REMARK    7  A    between atoms: C_12  and  C_14 
ROOT
HETATM    1  C   UNL     1     -41.770 -52.310  12.080  1.00  0.00     0.162 C 
ENDROOT
BRANCH   1   2
HETATM    2  C   UNL     1     -41.650 -50.818  12.154  1.00  0.00    -0.025 A 
HETATM    3  C   UNL     1     -42.627 -50.046  12.784  1.00  0.00     0.014 A 
HETATM    4  C   UNL     1     -42.419 -48.681  12.961  1.00  0.00     0.057 A 
HETATM    5  C   UNL     1     -41.253 -48.119  12.468  1.00  0.00     0.141 A 
HETATM    6  N   UNL     1     -40.301 -48.820  11.824  1.00  0.00    -0.346 N 
HETATM    7  C   UNL     1     -40.520 -50.152  11.685  1.00  0.00     0.099 A 
ATOM      8  HN  UNL     1     -39.459 -48.374  11.461  1.00  0.00     0.167 HD
BRANCH   5   9
HETATM    9  O   UNL     1     -41.054 -46.789  12.773  1.00  0.00    -0.334 OA
BRANCH   9  10
HETATM   10  C   UNL     1     -39.707 -46.351  12.589  1.00  0.00     0.203 C 
BRANCH  10  11
HETATM   11  C   UNL     1     -38.984 -46.533  13.925  1.00  0.00     0.193 C 
BRANCH  11  12
HETATM   12  O   UNL     1     -38.257 -47.760  13.940  1.00  0.00    -0.394 OA
HETATM   13  C   UNL     1     -37.085 -47.658  14.742  1.00  0.00     0.201 C 
ENDBRANCH  11  12
ENDBRANCH  10  11
ENDBRANCH   9  10
ENDBRANCH   5   9
ENDBRANCH   1   2
BRANCH   1  14
HETATM   14  N   UNL     1     -43.122 -52.806  11.911  1.00  0.00    -0.356 N 
HETATM   15  C   UNL     1     -43.739 -53.335  13.021  1.00  0.00     0.223 C 
HETATM   16  O   UNL     1     -43.122 -53.557  14.064  1.00  0.00    -0.273 OA
HETATM   17  H   UNL     1     -43.694 -52.417  11.170  1.00  0.00     0.162 HD
BRANCH  15  18
HETATM   18  C   UNL     1     -45.241 -53.588  12.962  1.00  0.00     0.096 C 
HETATM   19  C   UNL     1     -46.106 -52.383  12.612  1.00  0.00     0.025 C 
HETATM   20  C   UNL     1     -46.581 -51.546  13.797  1.00  0.00     0.103 C 
HETATM   21  C   UNL     1     -46.835 -52.304  15.078  1.00  0.00     0.217 C 
HETATM   22  O   UNL     1     -47.566 -51.877  15.967  1.00  0.00    -0.274 OA
HETATM   23  N   UNL     1     -46.095 -53.435  15.285  1.00  0.00    -0.360 N 
HETATM   24  C   UNL     1     -45.740 -54.315  14.196  1.00  0.00     0.136 C 
HETATM   25  H   UNL     1     -46.341 -53.876  16.166  1.00  0.00     0.162 HD
ENDBRANCH  15  18
ENDBRANCH   1  14
TORSDOF 7
ENDMDL
