MODEL 1
REMARK VINA RESULT:      -7.3      0.000      0.000
REMARK  3 active torsions:
REMARK  status: ('A' for Active; 'I' for Inactive)
REMARK    1  A    between atoms: N_1  and  C_9 
REMARK    2  A    between atoms: N_2  and  C_12 
REMARK       I    between atoms: N_7  and  C_8 
REMARK    3  A    between atoms: C_8  and  C_9 
ROOT
HETATM    1  C   UNL     1     -41.335 -49.636  14.241  1.00  0.00     0.240 C 
ENDROOT
BRANCH   1   2
HETATM    2  N   UNL     1     -41.167 -48.465  13.368  1.00  0.00    -0.255 N 
HETATM    3  C   UNL     1     -41.710 -48.528  12.089  1.00  0.00     0.334 C 
HETATM    4  N   UNL     1     -41.690 -47.331  11.363  1.00  0.00    -0.279 N 
HETATM    5  O   UNL     1     -42.161 -49.564  11.607  1.00  0.00    -0.246 OA
HETATM    6  C   UNL     1     -40.842 -46.299  11.701  1.00  0.00     0.146 C 
HETATM    7  C   UNL     1     -40.090 -46.366  12.795  1.00  0.00     0.200 C 
HETATM    8  C   UNL     1     -40.230 -47.509  13.721  1.00  0.00     0.292 C 
HETATM    9  F   UNL     1     -39.195 -45.411  13.113  1.00  0.00    -0.199 F 
HETATM   10  O   UNL     1     -39.526 -47.570  14.731  1.00  0.00    -0.264 OA
BRANCH   4  11
HETATM   11  C   UNL     1     -42.484 -47.305  10.139  1.00  0.00     0.232 C 
HETATM   12  O   UNL     1     -42.412 -46.033   9.464  1.00  0.00    -0.366 OA
HETATM   13  C   UNL     1     -43.627 -45.872   8.709  1.00  0.00     0.170 C 
HETATM   14  C   UNL     1     -44.568 -46.994   9.104  1.00  0.00     0.031 C 
HETATM   15  C   UNL     1     -43.973 -47.493  10.393  1.00  0.00     0.056 C 
ENDBRANCH   4  11
ENDBRANCH   1   2
BRANCH   1  16
HETATM   16  C   UNL     1     -42.705 -49.710  14.973  1.00  0.00     0.242 C 
HETATM   17  N   UNL     1     -43.572 -50.789  14.687  1.00  0.00    -0.315 N 
HETATM   18  C   UNL     1     -44.889 -50.875  15.297  1.00  0.00     0.054 A 
HETATM   19  C   UNL     1     -43.045 -52.077  14.207  1.00  0.00     0.133 C 
HETATM   20  C   UNL     1     -46.006 -51.427  14.622  1.00  0.00     0.027 A 
HETATM   21  C   UNL     1     -45.081 -50.484  16.634  1.00  0.00     0.031 A 
HETATM   22  S   UNL     1     -46.092 -51.748  12.865  1.00  0.00    -0.123 SA
HETATM   23  C   UNL     1     -47.215 -51.656  15.305  1.00  0.00     0.021 A 
HETATM   24  C   UNL     1     -44.886 -53.094  12.714  1.00  0.00     0.050 C 
HETATM   25  C   UNL     1     -43.474 -52.516  12.811  1.00  0.00     0.035 C 
HETATM   26  C   UNL     1     -45.183 -54.258  13.665  1.00  0.00     0.021 C 
HETATM   27  C   UNL     1     -47.356 -51.313  16.641  1.00  0.00     0.002 A 
HETATM   28  C   UNL     1     -46.297 -50.701  17.299  1.00  0.00     0.002 A 
HETATM   29  O   UNL     1     -42.999 -48.797  15.752  1.00  0.00    -0.271 OA
ENDBRANCH   1  16
TORSDOF 3
ENDMDL
MODEL 2
REMARK VINA RESULT:      -7.1      3.624      7.917
REMARK  3 active torsions:
REMARK  status: ('A' for Active; 'I' for Inactive)
REMARK    1  A    between atoms: N_1  and  C_9 
REMARK    2  A    between atoms: N_2  and  C_12 
REMARK       I    between atoms: N_7  and  C_8 
REMARK    3  A    between atoms: C_8  and  C_9 
ROOT
HETATM    1  C   UNL     1     -42.363 -52.272  13.955  1.00  0.00     0.240 C 
ENDROOT
BRANCH   1   2
HETATM    2  N   UNL     1     -43.680 -52.768  14.378  1.00  0.00    -0.255 N 
HETATM    3  C   UNL     1     -44.212 -52.266  15.562  1.00  0.00     0.334 C 
HETATM    4  N   UNL     1     -45.539 -52.621  15.829  1.00  0.00    -0.279 N 
HETATM    5  O   UNL     1     -43.562 -51.573  16.342  1.00  0.00    -0.246 OA
HETATM    6  C   UNL     1     -46.133 -53.700  15.211  1.00  0.00     0.146 C 
HETATM    7  C   UNL     1     -45.496 -54.376  14.259  1.00  0.00     0.200 C 
HETATM    8  C   UNL     1     -44.178 -53.913  13.778  1.00  0.00     0.292 C 
HETATM    9  F   UNL     1     -46.015 -55.480  13.690  1.00  0.00    -0.199 F 
HETATM   10  O   UNL     1     -43.588 -54.546  12.900  1.00  0.00    -0.264 OA
BRANCH   4  11
HETATM   11  C   UNL     1     -46.195 -51.899  16.914  1.00  0.00     0.232 C 
HETATM   12  O   UNL     1     -46.497 -52.750  18.037  1.00  0.00    -0.366 OA
HETATM   13  C   UNL     1     -47.631 -52.184  18.719  1.00  0.00     0.170 C 
HETATM   14  C   UNL     1     -48.173 -51.059  17.859  1.00  0.00     0.031 C 
HETATM   15  C   UNL     1     -47.552 -51.335  16.516  1.00  0.00     0.056 C 
ENDBRANCH   4  11
ENDBRANCH   1   2
BRANCH   1  16
HETATM   16  C   UNL     1     -42.387 -50.894  13.235  1.00  0.00     0.242 C 
HETATM   17  N   UNL     1     -41.173 -50.361  12.745  1.00  0.00    -0.315 N 
HETATM   18  C   UNL     1     -41.128 -49.049  12.118  1.00  0.00     0.054 A 
HETATM   19  C   UNL     1     -40.053 -51.242  12.380  1.00  0.00     0.133 C 
HETATM   20  C   UNL     1     -40.012 -48.186  12.239  1.00  0.00     0.027 A 
HETATM   21  C   UNL     1     -42.178 -48.623  11.284  1.00  0.00     0.031 A 
HETATM   22  S   UNL     1     -38.689 -48.372  13.429  1.00  0.00    -0.123 SA
HETATM   23  C   UNL     1     -39.932 -47.006  11.475  1.00  0.00     0.021 A 
HETATM   24  C   UNL     1     -37.902 -49.886  12.814  1.00  0.00     0.050 C 
HETATM   25  C   UNL     1     -38.768 -51.089  13.188  1.00  0.00     0.035 C 
HETATM   26  C   UNL     1     -37.518 -49.790  11.334  1.00  0.00     0.021 C 
HETATM   27  C   UNL     1     -40.958 -46.641  10.617  1.00  0.00     0.002 A 
HETATM   28  C   UNL     1     -42.094 -47.437  10.542  1.00  0.00     0.002 A 
HETATM   29  O   UNL     1     -43.467 -50.299  13.152  1.00  0.00    -0.271 OA
ENDBRANCH   1  16
TORSDOF 3
ENDMDL
MODEL 3
REMARK VINA RESULT:      -7.1      2.061      2.327
REMARK  3 active torsions:
REMARK  status: ('A' for Active; 'I' for Inactive)
REMARK    1  A    between atoms: N_1  and  C_9 
REMARK    2  A    between atoms: N_2  and  C_12 
REMARK       I    between atoms: N_7  and  C_8 
REMARK    3  A    between atoms: C_8  and  C_9 
ROOT
HETATM    1  C   UNL     1     -41.082 -50.518  13.844  1.00  0.00     0.240 C 
ENDROOT
BRANCH   1   2
HETATM    2  N   UNL     1     -40.287 -49.283  13.789  1.00  0.00    -0.255 N 
HETATM    3  C   UNL     1     -40.531 -48.401  12.742  1.00  0.00     0.334 C 
HETATM    4  N   UNL     1     -39.889 -47.161  12.832  1.00  0.00    -0.279 N 
HETATM    5  O   UNL     1     -41.245 -48.688  11.784  1.00  0.00    -0.246 OA
HETATM    6  C   UNL     1     -38.792 -46.977  13.646  1.00  0.00     0.146 C 
HETATM    7  C   UNL     1     -38.373 -47.945  14.454  1.00  0.00     0.200 C 
HETATM    8  C   UNL     1     -39.144 -49.201  14.567  1.00  0.00     0.292 C 
HETATM    9  F   UNL     1     -37.261 -47.826  15.204  1.00  0.00    -0.199 F 
HETATM   10  O   UNL     1     -38.748 -50.099  15.313  1.00  0.00    -0.264 OA
BRANCH   4  11
HETATM   11  C   UNL     1     -40.334 -46.134  11.896  1.00  0.00     0.232 C 
HETATM   12  O   UNL     1     -39.602 -46.167  10.655  1.00  0.00    -0.366 OA
HETATM   13  C   UNL     1     -39.626 -44.838  10.101  1.00  0.00     0.170 C 
HETATM   14  C   UNL     1     -40.215 -43.912  11.148  1.00  0.00     0.031 C 
HETATM   15  C   UNL     1     -40.103 -44.720  12.412  1.00  0.00     0.056 C 
ENDBRANCH   4  11
ENDBRANCH   1   2
BRANCH   1  16
HETATM   16  C   UNL     1     -42.458 -50.375  14.555  1.00  0.00     0.242 C 
HETATM   17  N   UNL     1     -43.403 -51.419  14.424  1.00  0.00    -0.315 N 
HETATM   18  C   UNL     1     -44.727 -51.311  15.017  1.00  0.00     0.054 A 
HETATM   19  C   UNL     1     -42.972 -52.801  14.160  1.00  0.00     0.133 C 
HETATM   20  C   UNL     1     -45.878 -51.877  14.416  1.00  0.00     0.027 A 
HETATM   21  C   UNL     1     -44.896 -50.702  16.273  1.00  0.00     0.031 A 
HETATM   22  S   UNL     1     -45.977 -52.461  12.729  1.00  0.00    -0.123 SA
HETATM   23  C   UNL     1     -47.105 -51.906  15.105  1.00  0.00     0.021 A 
HETATM   24  C   UNL     1     -44.876 -53.900  12.811  1.00  0.00     0.050 C 
HETATM   25  C   UNL     1     -43.425 -53.420  12.841  1.00  0.00     0.035 C 
HETATM   26  C   UNL     1     -45.267 -54.876  13.925  1.00  0.00     0.021 C 
HETATM   27  C   UNL     1     -47.227 -51.348  16.368  1.00  0.00     0.002 A 
HETATM   28  C   UNL     1     -46.128 -50.722  16.942  1.00  0.00     0.002 A 
HETATM   29  O   UNL     1     -42.686 -49.333  15.177  1.00  0.00    -0.271 OA
ENDBRANCH   1  16
TORSDOF 3
ENDMDL
MODEL 4
REMARK VINA RESULT:      -7.1      2.654      3.037
REMARK  3 active torsions:
REMARK  status: ('A' for Active; 'I' for Inactive)
REMARK    1  A    between atoms: N_1  and  C_9 
REMARK    2  A    between atoms: N_2  and  C_12 
REMARK       I    between atoms: N_7  and  C_8 
REMARK    3  A    between atoms: C_8  and  C_9 
ROOT
HETATM    1  C   UNL     1     -40.243 -52.645  13.312  1.00  0.00     0.240 C 
ENDROOT
BRANCH   1   2
HETATM    2  N   UNL     1     -39.922 -51.312  12.783  1.00  0.00    -0.255 N 
HETATM    3  C   UNL     1     -40.957 -50.570  12.224  1.00  0.00     0.334 C 
HETATM    4  N   UNL     1     -40.647 -49.242  11.905  1.00  0.00    -0.279 N 
HETATM    5  O   UNL     1     -42.068 -51.042  12.000  1.00  0.00    -0.246 OA
HETATM    6  C   UNL     1     -39.342 -48.824  11.758  1.00  0.00     0.146 C 
HETATM    7  C   UNL     1     -38.330 -49.645  12.020  1.00  0.00     0.200 C 
HETATM    8  C   UNL     1     -38.591 -50.990  12.573  1.00  0.00     0.292 C 
HETATM    9  F   UNL     1     -37.047 -49.294  11.813  1.00  0.00    -0.199 F 
HETATM   10  O   UNL     1     -37.649 -51.750  12.808  1.00  0.00    -0.264 OA
BRANCH   4  11
HETATM   11  C   UNL     1     -41.775 -48.379  11.572  1.00  0.00     0.232 C 
HETATM   12  O   UNL     1     -41.897 -48.159  10.152  1.00  0.00    -0.366 OA
HETATM   13  C   UNL     1     -42.547 -46.888   9.964  1.00  0.00     0.170 C 
HETATM   14  C   UNL     1     -42.636 -46.209  11.317  1.00  0.00     0.031 C 
HETATM   15  C   UNL     1     -41.636 -46.974  12.142  1.00  0.00     0.056 C 
ENDBRANCH   4  11
ENDBRANCH   1   2
BRANCH   1  16
HETATM   16  C   UNL     1     -41.036 -52.640  14.649  1.00  0.00     0.242 C 
HETATM   17  N   UNL     1     -42.343 -53.181  14.668  1.00  0.00    -0.315 N 
HETATM   18  C   UNL     1     -43.152 -53.147  15.876  1.00  0.00     0.054 A 
HETATM   19  C   UNL     1     -42.748 -54.212  13.699  1.00  0.00     0.133 C 
HETATM   20  C   UNL     1     -44.560 -52.996  15.844  1.00  0.00     0.027 A 
HETATM   21  C   UNL     1     -42.560 -53.353  17.135  1.00  0.00     0.031 A 
HETATM   22  S   UNL     1     -45.507 -52.463  14.424  1.00  0.00    -0.123 SA
HETATM   23  C   UNL     1     -45.324 -53.146  17.018  1.00  0.00     0.021 A 
HETATM   24  C   UNL     1     -45.279 -53.885  13.321  1.00  0.00     0.050 C 
HETATM   25  C   UNL     1     -43.868 -53.842  12.733  1.00  0.00     0.035 C 
HETATM   26  C   UNL     1     -45.673 -55.210  13.982  1.00  0.00     0.021 C 
HETATM   27  C   UNL     1     -44.716 -53.407  18.236  1.00  0.00     0.002 A 
HETATM   28  C   UNL     1     -43.330 -53.483  18.299  1.00  0.00     0.002 A 
HETATM   29  O   UNL     1     -40.506 -52.127  15.640  1.00  0.00    -0.271 OA
ENDBRANCH   1  16
TORSDOF 3
ENDMDL
MODEL 5
REMARK VINA RESULT:      -7.0      4.214      8.353
REMARK  3 active torsions:
REMARK  status: ('A' for Active; 'I' for Inactive)
REMARK    1  A    between atoms: N_1  and  C_9 
REMARK    2  A    between atoms: N_2  and  C_12 
REMARK       I    between atoms: N_7  and  C_8 
REMARK    3  A    between atoms: C_8  and  C_9 
ROOT
HETATM    1  C   UNL     1     -44.908 -53.007  13.549  1.00  0.00     0.240 C 
ENDROOT
BRANCH   1   2
HETATM    2  N   UNL     1     -45.535 -52.799  14.863  1.00  0.00    -0.255 N 
HETATM    3  C   UNL     1     -45.322 -53.764  15.842  1.00  0.00     0.334 C 
HETATM    4  N   UNL     1     -45.778 -53.437  17.124  1.00  0.00    -0.279 N 
HETATM    5  O   UNL     1     -44.789 -54.846  15.605  1.00  0.00    -0.246 OA
HETATM    6  C   UNL     1     -46.721 -52.452  17.322  1.00  0.00     0.146 C 
HETATM    7  C   UNL     1     -47.149 -51.705  16.309  1.00  0.00     0.200 C 
HETATM    8  C   UNL     1     -46.541 -51.854  14.970  1.00  0.00     0.292 C 
HETATM    9  F   UNL     1     -48.124 -50.787  16.453  1.00  0.00    -0.199 F 
HETATM   10  O   UNL     1     -46.946 -51.164  14.032  1.00  0.00    -0.264 OA
BRANCH   4  11
HETATM   11  C   UNL     1     -45.334 -54.306  18.208  1.00  0.00     0.232 C 
HETATM   12  O   UNL     1     -46.278 -55.358  18.492  1.00  0.00    -0.366 OA
HETATM   13  C   UNL     1     -46.114 -55.729  19.873  1.00  0.00     0.170 C 
HETATM   14  C   UNL     1     -45.180 -54.721  20.514  1.00  0.00     0.031 C 
HETATM   15  C   UNL     1     -45.201 -53.576  19.537  1.00  0.00     0.056 C 
ENDBRANCH   4  11
ENDBRANCH   1   2
BRANCH   1  16
HETATM   16  C   UNL     1     -43.704 -52.071  13.248  1.00  0.00     0.242 C 
HETATM   17  N   UNL     1     -42.395 -52.545  13.494  1.00  0.00    -0.315 N 
HETATM   18  C   UNL     1     -41.236 -51.691  13.289  1.00  0.00     0.054 A 
HETATM   19  C   UNL     1     -42.094 -53.986  13.466  1.00  0.00     0.133 C 
HETATM   20  C   UNL     1     -40.075 -51.775  14.097  1.00  0.00     0.027 A 
HETATM   21  C   UNL     1     -41.196 -50.796  12.205  1.00  0.00     0.031 A 
HETATM   22  S   UNL     1     -39.973 -52.626  15.667  1.00  0.00    -0.123 SA
HETATM   23  C   UNL     1     -38.912 -51.059  13.757  1.00  0.00     0.021 A 
HETATM   24  C   UNL     1     -40.151 -54.347  15.123  1.00  0.00     0.050 C 
HETATM   25  C   UNL     1     -41.615 -54.612  14.771  1.00  0.00     0.035 C 
HETATM   26  C   UNL     1     -39.137 -54.729  14.040  1.00  0.00     0.021 C 
HETATM   27  C   UNL     1     -38.884 -50.228  12.648  1.00  0.00     0.002 A 
HETATM   28  C   UNL     1     -40.036 -50.075  11.887  1.00  0.00     0.002 A 
HETATM   29  O   UNL     1     -43.941 -50.929  12.840  1.00  0.00    -0.271 OA
ENDBRANCH   1  16
TORSDOF 3
ENDMDL
MODEL 6
REMARK VINA RESULT:      -6.9      4.477      8.312
REMARK  3 active torsions:
REMARK  status: ('A' for Active; 'I' for Inactive)
REMARK    1  A    between atoms: N_1  and  C_9 
REMARK    2  A    between atoms: N_2  and  C_12 
REMARK       I    between atoms: N_7  and  C_8 
REMARK    3  A    between atoms: C_8  and  C_9 
ROOT
HETATM    1  C   UNL     1     -40.741 -52.424  12.225  1.00  0.00     0.240 C 
ENDROOT
BRANCH   1   2
HETATM    2  N   UNL     1     -41.089 -53.297  13.356  1.00  0.00    -0.255 N 
HETATM    3  C   UNL     1     -40.073 -54.059  13.923  1.00  0.00     0.334 C 
HETATM    4  N   UNL     1     -40.405 -54.728  15.107  1.00  0.00    -0.279 N 
HETATM    5  O   UNL     1     -38.958 -54.164  13.416  1.00  0.00    -0.246 OA
HETATM    6  C   UNL     1     -41.717 -54.961  15.457  1.00  0.00     0.146 C 
HETATM    7  C   UNL     1     -42.715 -54.463  14.732  1.00  0.00     0.200 C 
HETATM    8  C   UNL     1     -42.427 -53.563  13.596  1.00  0.00     0.292 C 
HETATM    9  F   UNL     1     -44.005 -54.735  15.001  1.00  0.00    -0.199 F 
HETATM   10  O   UNL     1     -43.354 -53.108  12.924  1.00  0.00    -0.264 OA
BRANCH   4  11
HETATM   11  C   UNL     1     -39.294 -55.309  15.853  1.00  0.00     0.232 C 
HETATM   12  O   UNL     1     -39.604 -56.620  16.367  1.00  0.00    -0.366 OA
HETATM   13  C   UNL     1     -38.798 -56.829  17.541  1.00  0.00     0.170 C 
HETATM   14  C   UNL     1     -38.124 -55.512  17.878  1.00  0.00     0.031 C 
HETATM   15  C   UNL     1     -38.934 -54.512  17.099  1.00  0.00     0.056 C 
ENDBRANCH   4  11
ENDBRANCH   1   2
BRANCH   1  16
HETATM   16  C   UNL     1     -39.859 -51.199  12.596  1.00  0.00     0.242 C 
HETATM   17  N   UNL     1     -40.492 -49.975  12.911  1.00  0.00    -0.315 N 
HETATM   18  C   UNL     1     -39.714 -48.782  13.205  1.00  0.00     0.054 A 
HETATM   19  C   UNL     1     -41.863 -49.948  13.446  1.00  0.00     0.133 C 
HETATM   20  C   UNL     1     -40.152 -47.482  12.852  1.00  0.00     0.027 A 
HETATM   21  C   UNL     1     -38.519 -48.875  13.941  1.00  0.00     0.031 A 
HETATM   22  S   UNL     1     -41.476 -47.117  11.706  1.00  0.00    -0.123 SA
HETATM   23  C   UNL     1     -39.461 -46.344  13.310  1.00  0.00     0.021 A 
HETATM   24  C   UNL     1     -42.903 -47.729  12.643  1.00  0.00     0.050 C 
HETATM   25  C   UNL     1     -42.919 -49.257  12.591  1.00  0.00     0.035 C 
HETATM   26  C   UNL     1     -42.990 -47.120  14.046  1.00  0.00     0.021 C 
HETATM   27  C   UNL     1     -38.317 -46.467  14.083  1.00  0.00     0.002 A 
HETATM   28  C   UNL     1     -37.831 -47.734  14.376  1.00  0.00     0.002 A 
HETATM   29  O   UNL     1     -38.631 -51.334  12.563  1.00  0.00    -0.271 OA
ENDBRANCH   1  16
TORSDOF 3
ENDMDL
MODEL 7
REMARK VINA RESULT:      -6.9      3.274      7.290
REMARK  3 active torsions:
REMARK  status: ('A' for Active; 'I' for Inactive)
REMARK    1  A    between atoms: N_1  and  C_9 
REMARK    2  A    between atoms: N_2  and  C_12 
REMARK       I    between atoms: N_7  and  C_8 
REMARK    3  A    between atoms: C_8  and  C_9 
ROOT
HETATM    1  C   UNL     1     -40.034 -50.042  13.934  1.00  0.00     0.240 C 
ENDROOT
BRANCH   1   2
HETATM    2  N   UNL     1     -40.982 -51.145  13.723  1.00  0.00    -0.255 N 
HETATM    3  C   UNL     1     -42.223 -51.061  14.346  1.00  0.00     0.334 C 
HETATM    4  N   UNL     1     -43.157 -52.034  13.970  1.00  0.00    -0.279 N 
HETATM    5  O   UNL     1     -42.488 -50.207  15.189  1.00  0.00    -0.246 OA
HETATM    6  C   UNL     1     -42.767 -53.211  13.369  1.00  0.00     0.146 C 
HETATM    7  C   UNL     1     -41.497 -53.414  13.029  1.00  0.00     0.200 C 
HETATM    8  C   UNL     1     -40.503 -52.334  13.199  1.00  0.00     0.292 C 
HETATM    9  F   UNL     1     -41.069 -54.581  12.512  1.00  0.00    -0.199 F 
HETATM   10  O   UNL     1     -39.327 -52.529  12.888  1.00  0.00    -0.264 OA
BRANCH   4  11
HETATM   11  C   UNL     1     -44.532 -51.810  14.403  1.00  0.00     0.232 C 
HETATM   12  O   UNL     1     -45.177 -53.024  14.837  1.00  0.00    -0.366 OA
HETATM   13  C   UNL     1     -46.592 -52.863  14.629  1.00  0.00     0.170 C 
HETATM   14  C   UNL     1     -46.801 -51.582  13.844  1.00  0.00     0.031 C 
HETATM   15  C   UNL     1     -45.432 -51.305  13.283  1.00  0.00     0.056 C 
ENDBRANCH   4  11
ENDBRANCH   1   2
BRANCH   1  16
HETATM   16  C   UNL     1     -40.115 -48.904  12.878  1.00  0.00     0.242 C 
HETATM   17  N   UNL     1     -40.354 -47.582  13.319  1.00  0.00    -0.315 N 
HETATM   18  C   UNL     1     -40.500 -46.489  12.370  1.00  0.00     0.054 A 
HETATM   19  C   UNL     1     -39.973 -47.156  14.675  1.00  0.00     0.133 C 
HETATM   20  C   UNL     1     -41.368 -45.393  12.599  1.00  0.00     0.027 A 
HETATM   21  C   UNL     1     -39.704 -46.442  11.211  1.00  0.00     0.031 A 
HETATM   22  S   UNL     1     -42.656 -45.341  13.839  1.00  0.00    -0.123 SA
HETATM   23  C   UNL     1     -41.348 -44.273  11.746  1.00  0.00     0.021 A 
HETATM   24  C   UNL     1     -41.658 -45.325  15.353  1.00  0.00     0.050 C 
HETATM   25  C   UNL     1     -41.104 -46.728  15.603  1.00  0.00     0.035 C 
HETATM   26  C   UNL     1     -40.619 -44.199  15.360  1.00  0.00     0.021 C 
HETATM   27  C   UNL     1     -40.510 -44.231  10.643  1.00  0.00     0.002 A 
HETATM   28  C   UNL     1     -39.707 -45.328  10.360  1.00  0.00     0.002 A 
HETATM   29  O   UNL     1     -40.005 -49.207  11.685  1.00  0.00    -0.271 OA
ENDBRANCH   1  16
TORSDOF 3
ENDMDL
MODEL 8
REMARK VINA RESULT:      -6.7      3.962      4.686
REMARK  3 active torsions:
REMARK  status: ('A' for Active; 'I' for Inactive)
REMARK    1  A    between atoms: N_1  and  C_9 
REMARK    2  A    between atoms: N_2  and  C_12 
REMARK       I    between atoms: N_7  and  C_8 
REMARK    3  A    between atoms: C_8  and  C_9 
ROOT
HETATM    1  C   UNL     1     -40.955 -53.047  16.985  1.00  0.00     0.240 C 
ENDROOT
BRANCH   1   2
HETATM    2  N   UNL     1     -39.850 -52.223  16.474  1.00  0.00    -0.255 N 
HETATM    3  C   UNL     1     -39.626 -52.220  15.101  1.00  0.00     0.334 C 
HETATM    4  N   UNL     1     -38.692 -51.284  14.642  1.00  0.00    -0.279 N 
HETATM    5  O   UNL     1     -40.190 -52.996  14.333  1.00  0.00    -0.246 OA
HETATM    6  C   UNL     1     -37.769 -50.714  15.492  1.00  0.00     0.146 C 
HETATM    7  C   UNL     1     -37.805 -50.954  16.799  1.00  0.00     0.200 C 
HETATM    8  C   UNL     1     -38.905 -51.758  17.373  1.00  0.00     0.292 C 
HETATM    9  F   UNL     1     -36.874 -50.476  17.645  1.00  0.00    -0.199 F 
HETATM   10  O   UNL     1     -38.932 -51.983  18.585  1.00  0.00    -0.264 OA
BRANCH   4  11
HETATM   11  C   UNL     1     -38.638 -51.081  13.199  1.00  0.00     0.232 C 
HETATM   12  O   UNL     1     -37.286 -51.026  12.701  1.00  0.00    -0.366 OA
HETATM   13  C   UNL     1     -37.296 -50.230  11.502  1.00  0.00     0.170 C 
HETATM   14  C   UNL     1     -38.669 -49.599  11.377  1.00  0.00     0.031 C 
HETATM   15  C   UNL     1     -39.234 -49.749  12.764  1.00  0.00     0.056 C 
ENDBRANCH   4  11
ENDBRANCH   1   2
BRANCH   1  16
HETATM   16  C   UNL     1     -42.348 -52.357  16.956  1.00  0.00     0.242 C 
HETATM   17  N   UNL     1     -43.351 -52.883  16.109  1.00  0.00    -0.315 N 
HETATM   18  C   UNL     1     -44.651 -52.242  15.996  1.00  0.00     0.054 A 
HETATM   19  C   UNL     1     -43.343 -54.303  15.720  1.00  0.00     0.133 C 
HETATM   20  C   UNL     1     -45.391 -52.229  14.788  1.00  0.00     0.027 A 
HETATM   21  C   UNL     1     -45.266 -51.677  17.128  1.00  0.00     0.031 A 
HETATM   22  S   UNL     1     -44.735 -52.637  13.175  1.00  0.00    -0.123 SA
HETATM   23  C   UNL     1     -46.717 -51.756  14.765  1.00  0.00     0.021 A 
HETATM   24  C   UNL     1     -44.426 -54.412  13.382  1.00  0.00     0.050 C 
HETATM   25  C   UNL     1     -43.173 -54.606  14.235  1.00  0.00     0.035 C 
HETATM   26  C   UNL     1     -45.668 -55.173  13.858  1.00  0.00     0.021 C 
HETATM   27  C   UNL     1     -47.317 -51.258  15.911  1.00  0.00     0.002 A 
HETATM   28  C   UNL     1     -46.581 -51.193  17.087  1.00  0.00     0.002 A 
HETATM   29  O   UNL     1     -42.513 -51.347  17.648  1.00  0.00    -0.271 OA
ENDBRANCH   1  16
TORSDOF 3
ENDMDL
MODEL 9
REMARK VINA RESULT:      -6.6      3.037      3.944
REMARK  3 active torsions:
REMARK  status: ('A' for Active; 'I' for Inactive)
REMARK    1  A    between atoms: N_1  and  C_9 
REMARK    2  A    between atoms: N_2  and  C_12 
REMARK       I    between atoms: N_7  and  C_8 
REMARK    3  A    between atoms: C_8  and  C_9 
ROOT
HETATM    1  C   UNL     1     -38.975 -51.563  13.306  1.00  0.00     0.240 C 
ENDROOT
BRANCH   1   2
HETATM    2  N   UNL     1     -39.079 -50.104  13.445  1.00  0.00    -0.255 N 
HETATM    3  C   UNL     1     -39.302 -49.357  12.293  1.00  0.00     0.334 C 
HETATM    4  N   UNL     1     -39.580 -48.000  12.494  1.00  0.00    -0.279 N 
HETATM    5  O   UNL     1     -39.241 -49.841  11.165  1.00  0.00    -0.246 OA
HETATM    6  C   UNL     1     -39.250 -47.366  13.672  1.00  0.00     0.146 C 
HETATM    7  C   UNL     1     -38.753 -48.050  14.699  1.00  0.00     0.200 C 
HETATM    8  C   UNL     1     -38.644 -49.522  14.624  1.00  0.00     0.292 C 
HETATM    9  F   UNL     1     -38.349 -47.451  15.834  1.00  0.00    -0.199 F 
HETATM   10  O   UNL     1     -38.176 -50.151  15.575  1.00  0.00    -0.264 OA
BRANCH   4  11
HETATM   11  C   UNL     1     -40.074 -47.264  11.336  1.00  0.00     0.232 C 
HETATM   12  O   UNL     1     -39.710 -45.869  11.375  1.00  0.00    -0.366 OA
HETATM   13  C   UNL     1     -40.701 -45.140  10.627  1.00  0.00     0.170 C 
HETATM   14  C   UNL     1     -41.828 -46.099  10.296  1.00  0.00     0.031 C 
HETATM   15  C   UNL     1     -41.594 -47.236  11.255  1.00  0.00     0.056 C 
ENDBRANCH   4  11
ENDBRANCH   1   2
BRANCH   1  16
HETATM   16  C   UNL     1     -40.313 -52.283  12.978  1.00  0.00     0.242 C 
HETATM   17  N   UNL     1     -41.147 -52.688  14.046  1.00  0.00    -0.315 N 
HETATM   18  C   UNL     1     -42.380 -53.419  13.800  1.00  0.00     0.054 A 
HETATM   19  C   UNL     1     -41.107 -51.993  15.343  1.00  0.00     0.133 C 
HETATM   20  C   UNL     1     -42.870 -54.407  14.689  1.00  0.00     0.027 A 
HETATM   21  C   UNL     1     -43.187 -53.100  12.692  1.00  0.00     0.031 A 
HETATM   22  S   UNL     1     -41.925 -55.169  16.003  1.00  0.00    -0.123 SA
HETATM   23  C   UNL     1     -44.151 -54.962  14.508  1.00  0.00     0.021 A 
HETATM   24  C   UNL     1     -41.716 -53.758  17.122  1.00  0.00     0.050 C 
HETATM   25  C   UNL     1     -40.659 -52.814  16.547  1.00  0.00     0.035 C 
HETATM   26  C   UNL     1     -43.049 -53.100  17.494  1.00  0.00     0.021 C 
HETATM   27  C   UNL     1     -44.947 -54.585  13.438  1.00  0.00     0.002 A 
HETATM   28  C   UNL     1     -44.454 -53.674  12.514  1.00  0.00     0.002 A 
HETATM   29  O   UNL     1     -40.579 -52.508  11.793  1.00  0.00    -0.271 OA
ENDBRANCH   1  16
TORSDOF 3
ENDMDL
