MODEL 1
REMARK VINA RESULT:      -6.4      0.000      0.000
REMARK  2 active torsions:
REMARK  status: ('A' for Active; 'I' for Inactive)
REMARK    1  A    between atoms: C_2  and  N_8 
REMARK       I    between atoms: N_8  and  C_9 
REMARK       I    between atoms: C_9  and  N_11 
REMARK    2  A    between atoms: N_11  and  C_12 
ROOT
HETATM    1  N   UNL     1     -40.473 -49.349  10.632  1.00  0.00    -0.334 N 
HETATM    2  C   UNL     1     -41.583 -48.534  10.668  1.00  0.00     0.321 C 
HETATM    3  O   UNL     1     -42.095 -48.121  11.699  1.00  0.00    -0.247 OA
HETATM    4  N   UNL     1     -42.002 -48.192   9.398  1.00  0.00    -0.306 N 
HETATM    5  H   UNL     1     -40.437 -49.975   9.838  1.00  0.00     0.165 HD
HETATM    6  H   UNL     1     -41.235 -48.005   8.763  1.00  0.00     0.171 HD
ENDROOT
BRANCH   1   7
HETATM    7  C   UNL     1     -39.736 -49.746  11.854  1.00  0.00     0.035 C 
HETATM    8  C   UNL     1     -39.787 -48.608  12.896  1.00  0.00     0.039 C 
HETATM    9  C   UNL     1     -40.405 -51.008  12.449  1.00  0.00     0.057 C 
HETATM   10  C   UNL     1     -39.557 -51.649  13.543  1.00  0.00     0.170 C 
HETATM   11  O   UNL     1     -38.256 -51.959  13.056  1.00  0.00    -0.391 OA
HETATM   12  C   UNL     1     -37.545 -50.802  12.624  1.00  0.00     0.170 C 
HETATM   13  C   UNL     1     -38.279 -50.109  11.484  1.00  0.00     0.057 C 
ENDBRANCH   1   7
BRANCH   4  14
HETATM   14  C   UNL     1     -43.155 -47.389   9.215  1.00  0.00     0.077 A 
HETATM   15  C   UNL     1     -44.404 -47.950   8.952  1.00  0.00     0.050 A 
HETATM   16  C   UNL     1     -45.494 -47.102   8.822  1.00  0.00     0.090 A 
HETATM   17  N   UNL     1     -45.419 -45.755   8.945  1.00  0.00    -0.372 N 
HETATM   18  C   UNL     1     -44.192 -45.241   9.200  1.00  0.00     0.132 A 
ATOM     19  HN  UNL     1     -46.242 -45.160   8.852  1.00  0.00     0.164 HD
HETATM   20  C   UNL     1     -43.046 -46.007   9.315  1.00  0.00     0.158 A 
HETATM   21  F   UNL     1     -41.864 -45.432   9.582  1.00  0.00    -0.202 F 
ENDBRANCH   4  14
TORSDOF 2
ENDMDL
MODEL 2
REMARK VINA RESULT:      -6.2      4.763      5.999
REMARK  2 active torsions:
REMARK  status: ('A' for Active; 'I' for Inactive)
REMARK    1  A    between atoms: C_2  and  N_8 
REMARK       I    between atoms: N_8  and  C_9 
REMARK       I    between atoms: C_9  and  N_11 
REMARK    2  A    between atoms: N_11  and  C_12 
ROOT
HETATM    1  N   UNL     1     -42.047 -51.165  12.059  1.00  0.00    -0.334 N 
HETATM    2  C   UNL     1     -42.815 -51.917  12.921  1.00  0.00     0.321 C 
HETATM    3  O   UNL     1     -42.493 -52.181  14.070  1.00  0.00    -0.247 OA
HETATM    4  N   UNL     1     -44.017 -52.277  12.345  1.00  0.00    -0.306 N 
HETATM    5  H   UNL     1     -42.155 -51.404  11.082  1.00  0.00     0.165 HD
HETATM    6  H   UNL     1     -44.427 -51.538  11.786  1.00  0.00     0.171 HD
ENDROOT
BRANCH   1   7
HETATM    7  C   UNL     1     -40.773 -50.531  12.474  1.00  0.00     0.035 C 
HETATM    8  C   UNL     1     -41.031 -49.528  13.618  1.00  0.00     0.039 C 
HETATM    9  C   UNL     1     -39.809 -51.633  12.972  1.00  0.00     0.057 C 
HETATM   10  C   UNL     1     -38.387 -51.114  13.158  1.00  0.00     0.170 C 
HETATM   11  O   UNL     1     -37.900 -50.535  11.952  1.00  0.00    -0.391 OA
HETATM   12  C   UNL     1     -38.680 -49.422  11.526  1.00  0.00     0.170 C 
HETATM   13  C   UNL     1     -40.119 -49.841  11.254  1.00  0.00     0.057 C 
ENDBRANCH   1   7
BRANCH   4  14
HETATM   14  C   UNL     1     -44.937 -53.088  13.054  1.00  0.00     0.077 A 
HETATM   15  C   UNL     1     -44.784 -54.471  13.134  1.00  0.00     0.050 A 
HETATM   16  C   UNL     1     -45.705 -55.194  13.877  1.00  0.00     0.090 A 
HETATM   17  N   UNL     1     -46.744 -54.634  14.541  1.00  0.00    -0.372 N 
HETATM   18  C   UNL     1     -46.866 -53.288  14.443  1.00  0.00     0.132 A 
ATOM     19  HN  UNL     1     -47.399 -55.194  15.087  1.00  0.00     0.164 HD
HETATM   20  C   UNL     1     -46.014 -52.491  13.701  1.00  0.00     0.158 A 
HETATM   21  F   UNL     1     -46.185 -51.162  13.658  1.00  0.00    -0.202 F 
ENDBRANCH   4  14
TORSDOF 2
ENDMDL
MODEL 3
REMARK VINA RESULT:      -6.1      4.826      6.253
REMARK  2 active torsions:
REMARK  status: ('A' for Active; 'I' for Inactive)
REMARK    1  A    between atoms: C_2  and  N_8 
REMARK       I    between atoms: N_8  and  C_9 
REMARK       I    between atoms: C_9  and  N_11 
REMARK    2  A    between atoms: N_11  and  C_12 
ROOT
HETATM    1  N   UNL     1     -42.160 -51.056  12.070  1.00  0.00    -0.334 N 
HETATM    2  C   UNL     1     -42.889 -51.855  12.924  1.00  0.00     0.321 C 
HETATM    3  O   UNL     1     -42.522 -52.167  14.048  1.00  0.00    -0.247 OA
HETATM    4  N   UNL     1     -44.108 -52.202  12.377  1.00  0.00    -0.306 N 
HETATM    5  H   UNL     1     -42.303 -51.253  11.087  1.00  0.00     0.165 HD
HETATM    6  H   UNL     1     -44.546 -51.444  11.867  1.00  0.00     0.171 HD
ENDROOT
BRANCH   1   7
HETATM    7  C   UNL     1     -40.879 -50.428  12.466  1.00  0.00     0.035 C 
HETATM    8  C   UNL     1     -39.845 -51.516  12.826  1.00  0.00     0.039 C 
HETATM    9  C   UNL     1     -40.345 -49.596  11.276  1.00  0.00     0.057 C 
HETATM   10  C   UNL     1     -39.181 -48.695  11.678  1.00  0.00     0.170 C 
HETATM   11  O   UNL     1     -39.554 -47.841  12.754  1.00  0.00    -0.391 OA
HETATM   12  C   UNL     1     -39.922 -48.566  13.924  1.00  0.00     0.170 C 
HETATM   13  C   UNL     1     -41.121 -49.463  13.651  1.00  0.00     0.057 C 
ENDBRANCH   1   7
BRANCH   4  14
HETATM   14  C   UNL     1     -44.994 -53.054  13.082  1.00  0.00     0.077 A 
HETATM   15  C   UNL     1     -44.794 -54.433  13.139  1.00  0.00     0.050 A 
HETATM   16  C   UNL     1     -45.682 -55.198  13.880  1.00  0.00     0.090 A 
HETATM   17  N   UNL     1     -46.733 -54.682  14.562  1.00  0.00    -0.372 N 
HETATM   18  C   UNL     1     -46.901 -53.341  14.486  1.00  0.00     0.132 A 
ATOM     19  HN  UNL     1     -47.363 -55.273  15.105  1.00  0.00     0.164 HD
HETATM   20  C   UNL     1     -46.083 -52.504  13.748  1.00  0.00     0.158 A 
HETATM   21  F   UNL     1     -46.299 -51.181  13.728  1.00  0.00    -0.202 F 
ENDBRANCH   4  14
TORSDOF 2
ENDMDL
MODEL 4
REMARK VINA RESULT:      -5.9      1.459      1.962
REMARK  2 active torsions:
REMARK  status: ('A' for Active; 'I' for Inactive)
REMARK    1  A    between atoms: C_2  and  N_8 
REMARK       I    between atoms: N_8  and  C_9 
REMARK       I    between atoms: C_9  and  N_11 
REMARK    2  A    between atoms: N_11  and  C_12 
ROOT
HETATM    1  N   UNL     1     -39.381 -48.433  11.341  1.00  0.00    -0.334 N 
HETATM    2  C   UNL     1     -40.542 -47.693  11.400  1.00  0.00     0.321 C 
HETATM    3  O   UNL     1     -41.337 -47.740  12.328  1.00  0.00    -0.247 OA
HETATM    4  N   UNL     1     -40.659 -46.848  10.315  1.00  0.00    -0.306 N 
HETATM    5  H   UNL     1     -39.083 -48.673  10.405  1.00  0.00     0.165 HD
HETATM    6  H   UNL     1     -39.780 -46.423  10.044  1.00  0.00     0.171 HD
ENDROOT
BRANCH   1   7
HETATM    7  C   UNL     1     -38.941 -49.313  12.449  1.00  0.00     0.035 C 
HETATM    8  C   UNL     1     -38.749 -48.485  13.737  1.00  0.00     0.039 C 
HETATM    9  C   UNL     1     -40.028 -50.386  12.692  1.00  0.00     0.057 C 
HETATM   10  C   UNL     1     -39.544 -51.497  13.619  1.00  0.00     0.170 C 
HETATM   11  O   UNL     1     -38.358 -52.098  13.110  1.00  0.00    -0.391 OA
HETATM   12  C   UNL     1     -37.282 -51.172  12.998  1.00  0.00     0.170 C 
HETATM   13  C   UNL     1     -37.637 -50.040  12.044  1.00  0.00     0.057 C 
ENDBRANCH   1   7
BRANCH   4  14
HETATM   14  C   UNL     1     -41.804 -46.027  10.166  1.00  0.00     0.077 A 
HETATM   15  C   UNL     1     -41.896 -44.778  10.778  1.00  0.00     0.050 A 
HETATM   16  C   UNL     1     -43.033 -44.016  10.554  1.00  0.00     0.090 A 
HETATM   17  N   UNL     1     -44.061 -44.410   9.765  1.00  0.00    -0.372 N 
HETATM   18  C   UNL     1     -43.943 -45.628   9.186  1.00  0.00     0.132 A 
ATOM     19  HN  UNL     1     -44.880 -43.821   9.615  1.00  0.00     0.164 HD
HETATM   20  C   UNL     1     -42.861 -46.468   9.376  1.00  0.00     0.158 A 
HETATM   21  F   UNL     1     -42.802 -47.658   8.759  1.00  0.00    -0.202 F 
ENDBRANCH   4  14
TORSDOF 2
ENDMDL
MODEL 5
REMARK VINA RESULT:      -5.8      4.019      5.462
REMARK  2 active torsions:
REMARK  status: ('A' for Active; 'I' for Inactive)
REMARK    1  A    between atoms: C_2  and  N_8 
REMARK       I    between atoms: N_8  and  C_9 
REMARK       I    between atoms: C_9  and  N_11 
REMARK    2  A    between atoms: N_11  and  C_12 
ROOT
HETATM    1  N   UNL     1     -43.431 -51.950  12.472  1.00  0.00    -0.334 N 
HETATM    2  C   UNL     1     -42.879 -50.701  12.660  1.00  0.00     0.321 C 
HETATM    3  O   UNL     1     -43.189 -49.947  13.572  1.00  0.00    -0.247 OA
HETATM    4  N   UNL     1     -41.892 -50.439  11.732  1.00  0.00    -0.306 N 
HETATM    5  H   UNL     1     -43.469 -52.252  11.507  1.00  0.00     0.165 HD
HETATM    6  H   UNL     1     -41.311 -51.243  11.530  1.00  0.00     0.171 HD
ENDROOT
BRANCH   1   7
HETATM    7  C   UNL     1     -44.411 -52.538  13.415  1.00  0.00     0.035 C 
HETATM    8  C   UNL     1     -45.698 -51.687  13.438  1.00  0.00     0.039 C 
HETATM    9  C   UNL     1     -44.757 -53.969  12.943  1.00  0.00     0.057 C 
HETATM   10  C   UNL     1     -45.540 -54.750  13.994  1.00  0.00     0.170 C 
HETATM   11  O   UNL     1     -44.826 -54.792  15.226  1.00  0.00    -0.391 OA
HETATM   12  C   UNL     1     -44.604 -53.495  15.772  1.00  0.00     0.170 C 
HETATM   13  C   UNL     1     -43.776 -52.641  14.822  1.00  0.00     0.057 C 
ENDBRANCH   1   7
BRANCH   4  14
HETATM   14  C   UNL     1     -41.226 -49.188  11.728  1.00  0.00     0.077 A 
HETATM   15  C   UNL     1     -40.077 -48.968  12.486  1.00  0.00     0.050 A 
HETATM   16  C   UNL     1     -39.459 -47.729  12.401  1.00  0.00     0.090 A 
HETATM   17  N   UNL     1     -39.901 -46.719  11.615  1.00  0.00    -0.372 N 
HETATM   18  C   UNL     1     -41.020 -46.963  10.892  1.00  0.00     0.132 A 
ATOM     19  HN  UNL     1     -39.418 -45.822  11.569  1.00  0.00     0.164 HD
HETATM   20  C   UNL     1     -41.718 -48.156  10.936  1.00  0.00     0.158 A 
HETATM   21  F   UNL     1     -42.813 -48.336  10.183  1.00  0.00    -0.202 F 
ENDBRANCH   4  14
TORSDOF 2
ENDMDL
MODEL 6
REMARK VINA RESULT:      -5.5      1.626      2.023
REMARK  2 active torsions:
REMARK  status: ('A' for Active; 'I' for Inactive)
REMARK    1  A    between atoms: C_2  and  N_8 
REMARK       I    between atoms: N_8  and  C_9 
REMARK       I    between atoms: C_9  and  N_11 
REMARK    2  A    between atoms: N_11  and  C_12 
ROOT
HETATM    1  N   UNL     1     -40.308 -50.223  11.806  1.00  0.00    -0.334 N 
HETATM    2  C   UNL     1     -41.348 -49.355  11.553  1.00  0.00     0.321 C 
HETATM    3  O   UNL     1     -42.442 -49.424  12.095  1.00  0.00    -0.247 OA
HETATM    4  N   UNL     1     -40.978 -48.365  10.665  1.00  0.00    -0.306 N 
HETATM    5  H   UNL     1     -39.686 -50.372  11.022  1.00  0.00     0.165 HD
HETATM    6  H   UNL     1     -40.036 -48.024  10.819  1.00  0.00     0.171 HD
ENDROOT
BRANCH   1   7
HETATM    7  C   UNL     1     -40.393 -51.292  12.829  1.00  0.00     0.035 C 
HETATM    8  C   UNL     1     -41.327 -50.852  13.976  1.00  0.00     0.039 C 
HETATM    9  C   UNL     1     -40.967 -52.567  12.168  1.00  0.00     0.057 C 
HETATM   10  C   UNL     1     -40.832 -53.792  13.067  1.00  0.00     0.170 C 
HETATM   11  O   UNL     1     -39.474 -53.995  13.443  1.00  0.00    -0.391 OA
HETATM   12  C   UNL     1     -38.942 -52.898  14.179  1.00  0.00     0.170 C 
HETATM   13  C   UNL     1     -38.974 -51.622  13.349  1.00  0.00     0.057 C 
ENDBRANCH   1   7
BRANCH   4  14
HETATM   14  C   UNL     1     -41.917 -47.392  10.243  1.00  0.00     0.077 A 
HETATM   15  C   UNL     1     -42.950 -47.705   9.360  1.00  0.00     0.050 A 
HETATM   16  C   UNL     1     -43.853 -46.709   9.022  1.00  0.00     0.090 A 
HETATM   17  N   UNL     1     -43.797 -45.445   9.508  1.00  0.00    -0.372 N 
HETATM   18  C   UNL     1     -42.782 -45.172  10.362  1.00  0.00     0.132 A 
ATOM     19  HN  UNL     1     -44.483 -44.738   9.245  1.00  0.00     0.164 HD
HETATM   20  C   UNL     1     -41.820 -46.094  10.732  1.00  0.00     0.158 A 
HETATM   21  F   UNL     1     -40.849 -45.760  11.594  1.00  0.00    -0.202 F 
ENDBRANCH   4  14
TORSDOF 2
ENDMDL
MODEL 7
REMARK VINA RESULT:      -5.5      4.628      6.487
REMARK  2 active torsions:
REMARK  status: ('A' for Active; 'I' for Inactive)
REMARK    1  A    between atoms: C_2  and  N_8 
REMARK       I    between atoms: N_8  and  C_9 
REMARK       I    between atoms: C_9  and  N_11 
REMARK    2  A    between atoms: N_11  and  C_12 
ROOT
HETATM    1  N   UNL     1     -39.550 -51.382  12.153  1.00  0.00    -0.334 N 
HETATM    2  C   UNL     1     -40.711 -51.746  12.800  1.00  0.00     0.321 C 
HETATM    3  O   UNL     1     -41.374 -50.986  13.492  1.00  0.00    -0.247 OA
HETATM    4  N   UNL     1     -41.063 -53.050  12.517  1.00  0.00    -0.306 N 
HETATM    5  H   UNL     1     -38.883 -52.134  12.035  1.00  0.00     0.165 HD
HETATM    6  H   UNL     1     -40.900 -53.305  11.550  1.00  0.00     0.171 HD
ENDROOT
BRANCH   1   7
HETATM    7  C   UNL     1     -39.028 -49.996  12.172  1.00  0.00     0.035 C 
HETATM    8  C   UNL     1     -37.710 -49.917  11.372  1.00  0.00     0.039 C 
HETATM    9  C   UNL     1     -40.075 -49.062  11.520  1.00  0.00     0.057 C 
HETATM   10  C   UNL     1     -39.750 -47.588  11.742  1.00  0.00     0.170 C 
HETATM   11  O   UNL     1     -39.626 -47.303  13.131  1.00  0.00    -0.391 OA
HETATM   12  C   UNL     1     -38.577 -48.042  13.748  1.00  0.00     0.170 C 
HETATM   13  C   UNL     1     -38.829 -49.539  13.637  1.00  0.00     0.057 C 
ENDBRANCH   1   7
BRANCH   4  14
HETATM   14  C   UNL     1     -42.208 -53.631  13.116  1.00  0.00     0.077 A 
HETATM   15  C   UNL     1     -43.475 -53.507  12.548  1.00  0.00     0.050 A 
HETATM   16  C   UNL     1     -44.541 -54.135  13.173  1.00  0.00     0.090 A 
HETATM   17  N   UNL     1     -44.424 -54.874  14.303  1.00  0.00    -0.372 N 
HETATM   18  C   UNL     1     -43.181 -54.973  14.831  1.00  0.00     0.132 A 
ATOM     19  HN  UNL     1     -45.228 -55.330  14.733  1.00  0.00     0.164 HD
HETATM   20  C   UNL     1     -42.066 -54.357  14.293  1.00  0.00     0.158 A 
HETATM   21  F   UNL     1     -40.860 -54.510  14.861  1.00  0.00    -0.202 F 
ENDBRANCH   4  14
TORSDOF 2
ENDMDL
MODEL 8
REMARK VINA RESULT:      -5.4      3.091      4.097
REMARK  2 active torsions:
REMARK  status: ('A' for Active; 'I' for Inactive)
REMARK    1  A    between atoms: C_2  and  N_8 
REMARK       I    between atoms: N_8  and  C_9 
REMARK       I    between atoms: C_9  and  N_11 
REMARK    2  A    between atoms: N_11  and  C_12 
ROOT
HETATM    1  N   UNL     1     -42.324 -51.519  12.199  1.00  0.00    -0.334 N 
HETATM    2  C   UNL     1     -42.286 -50.144  12.122  1.00  0.00     0.321 C 
HETATM    3  O   UNL     1     -42.788 -49.398  12.951  1.00  0.00    -0.247 OA
HETATM    4  N   UNL     1     -41.556 -49.718  11.031  1.00  0.00    -0.306 N 
HETATM    5  H   UNL     1     -42.321 -51.990  11.304  1.00  0.00     0.165 HD
HETATM    6  H   UNL     1     -40.727 -50.275  10.864  1.00  0.00     0.171 HD
ENDROOT
BRANCH   1   7
HETATM    7  C   UNL     1     -42.920 -52.236  13.351  1.00  0.00     0.035 C 
HETATM    8  C   UNL     1     -44.430 -51.927  13.442  1.00  0.00     0.039 C 
HETATM    9  C   UNL     1     -42.724 -53.756  13.145  1.00  0.00     0.057 C 
HETATM   10  C   UNL     1     -43.055 -54.556  14.401  1.00  0.00     0.170 C 
HETATM   11  O   UNL     1     -42.282 -54.100  15.507  1.00  0.00    -0.391 OA
HETATM   12  C   UNL     1     -42.534 -52.734  15.823  1.00  0.00     0.170 C 
HETATM   13  C   UNL     1     -42.181 -51.831  14.649  1.00  0.00     0.057 C 
ENDBRANCH   1   7
BRANCH   4  14
HETATM   14  C   UNL     1     -41.428 -48.335  10.748  1.00  0.00     0.077 A 
HETATM   15  C   UNL     1     -42.415 -47.634  10.058  1.00  0.00     0.050 A 
HETATM   16  C   UNL     1     -42.237 -46.274   9.852  1.00  0.00     0.090 A 
HETATM   17  N   UNL     1     -41.159 -45.581  10.292  1.00  0.00    -0.372 N 
HETATM   18  C   UNL     1     -40.218 -46.290  10.958  1.00  0.00     0.132 A 
ATOM     19  HN  UNL     1     -41.062 -44.578  10.131  1.00  0.00     0.164 HD
HETATM   20  C   UNL     1     -40.298 -47.653  11.183  1.00  0.00     0.158 A 
HETATM   21  F   UNL     1     -39.334 -48.291  11.864  1.00  0.00    -0.202 F 
ENDBRANCH   4  14
TORSDOF 2
ENDMDL
MODEL 9
REMARK VINA RESULT:      -5.3      3.306      4.579
REMARK  2 active torsions:
REMARK  status: ('A' for Active; 'I' for Inactive)
REMARK    1  A    between atoms: C_2  and  N_8 
REMARK       I    between atoms: N_8  and  C_9 
REMARK       I    between atoms: C_9  and  N_11 
REMARK    2  A    between atoms: N_11  and  C_12 
ROOT
HETATM    1  N   UNL     1     -42.687 -51.246  12.141  1.00  0.00    -0.334 N 
HETATM    2  C   UNL     1     -42.517 -49.878  12.153  1.00  0.00     0.321 C 
HETATM    3  O   UNL     1     -42.965 -49.141  13.019  1.00  0.00    -0.247 OA
HETATM    4  N   UNL     1     -41.726 -49.457  11.103  1.00  0.00    -0.306 N 
HETATM    5  H   UNL     1     -42.709 -51.658  11.217  1.00  0.00     0.165 HD
HETATM    6  H   UNL     1     -40.949 -50.081  10.915  1.00  0.00     0.171 HD
ENDROOT
BRANCH   1   7
HETATM    7  C   UNL     1     -43.375 -51.972  13.234  1.00  0.00     0.035 C 
HETATM    8  C   UNL     1     -43.481 -53.472  12.887  1.00  0.00     0.039 C 
HETATM    9  C   UNL     1     -42.551 -51.809  14.533  1.00  0.00     0.057 C 
HETATM   10  C   UNL     1     -43.317 -52.284  15.765  1.00  0.00     0.170 C 
HETATM   11  O   UNL     1     -44.563 -51.606  15.877  1.00  0.00    -0.391 OA
HETATM   12  C   UNL     1     -45.415 -51.840  14.760  1.00  0.00     0.170 C 
HETATM   13  C   UNL     1     -44.770 -51.347  13.472  1.00  0.00     0.057 C 
ENDBRANCH   1   7
BRANCH   4  14
HETATM   14  C   UNL     1     -41.461 -48.079  10.913  1.00  0.00     0.077 A 
HETATM   15  C   UNL     1     -40.288 -47.486  11.379  1.00  0.00     0.050 A 
HETATM   16  C   UNL     1     -40.082 -46.139  11.121  1.00  0.00     0.090 A 
HETATM   17  N   UNL     1     -40.952 -45.363  10.432  1.00  0.00    -0.372 N 
HETATM   18  C   UNL     1     -42.082 -45.967   9.994  1.00  0.00     0.132 A 
ATOM     19  HN  UNL     1     -40.766 -44.376  10.253  1.00  0.00     0.164 HD
HETATM   20  C   UNL     1     -42.385 -47.295  10.229  1.00  0.00     0.158 A 
HETATM   21  F   UNL     1     -43.517 -47.834   9.753  1.00  0.00    -0.202 F 
ENDBRANCH   4  14
TORSDOF 2
ENDMDL
