MODEL 1
REMARK VINA RESULT:      -7.4      0.000      0.000
REMARK  5 active torsions:
REMARK  status: ('A' for Active; 'I' for Inactive)
REMARK    1  A    between atoms: C_5  and  C_6 
REMARK    2  A    between atoms: C_6  and  C_7 
REMARK    3  A    between atoms: C_7  and  N_8 
REMARK       I    between atoms: N_8  and  C_9 
REMARK       I    between atoms: C_9  and  N_11 
REMARK    4  A    between atoms: N_11  and  C_12 
REMARK    5  A    between atoms: C_16  and  C_18 
ROOT
HETATM    1  N   UNL     1     -42.169 -48.594  10.609  1.00  0.00    -0.343 N 
HETATM    2  C   UNL     1     -42.365 -48.974  11.921  1.00  0.00     0.316 C 
HETATM    3  O   UNL     1     -42.411 -48.184  12.850  1.00  0.00    -0.247 OA
HETATM    4  N   UNL     1     -42.529 -50.327  12.024  1.00  0.00    -0.339 N 
HETATM    5  H   UNL     1     -41.663 -49.260  10.046  1.00  0.00     0.164 HD
HETATM    6  H   UNL     1     -42.516 -50.834  11.154  1.00  0.00     0.164 HD
ENDROOT
BRANCH   1   7
HETATM    7  C   UNL     1     -41.958 -47.186  10.310  1.00  0.00     0.129 C 
BRANCH   7   8
HETATM    8  C   UNL     1     -43.250 -46.459   9.926  1.00  0.00     0.060 C 
BRANCH   8   9
HETATM    9  C   UNL     1     -44.152 -47.339   9.102  1.00  0.00    -0.041 A 
HETATM   10  C   UNL     1     -45.461 -47.615   9.498  1.00  0.00     0.010 A 
HETATM   11  C   UNL     1     -46.295 -48.359   8.668  1.00  0.00     0.025 A 
HETATM   12  C   UNL     1     -45.800 -48.817   7.452  1.00  0.00     0.005 A 
HETATM   13  C   UNL     1     -46.681 -49.553   6.487  1.00  0.00     0.068 C 
HETATM   14  N   UNL     1     -44.528 -48.582   7.055  1.00  0.00    -0.369 N 
HETATM   15  C   UNL     1     -43.740 -47.856   7.879  1.00  0.00     0.095 A 
ATOM     16  HN  UNL     1     -44.177 -48.940   6.167  1.00  0.00     0.165 HD
ENDBRANCH   8   9
ENDBRANCH   7   8
ENDBRANCH   1   7
BRANCH   4  17
HETATM   17  C   UNL     1     -42.690 -51.140  13.231  1.00  0.00     0.086 C 
HETATM   18  C   UNL     1     -42.177 -52.591  13.197  1.00  0.00     0.025 C 
HETATM   19  C   UNL     1     -43.196 -53.659  12.786  1.00  0.00     0.003 C 
HETATM   20  C   UNL     1     -44.585 -53.443  13.379  1.00  0.00     0.014 C 
HETATM   21  C   UNL     1     -45.083 -52.019  13.112  1.00  0.00     0.095 C 
HETATM   22  C   UNL     1     -44.119 -51.024  13.766  1.00  0.00     0.038 C 
BRANCH  21  23
HETATM   23  C   UNL     1     -46.517 -51.802  13.591  1.00  0.00     0.391 C 
HETATM   24  F   UNL     1     -47.311 -51.276  12.635  1.00  0.00    -0.171 F 
HETATM   25  F   UNL     1     -47.097 -52.950  14.008  1.00  0.00    -0.171 F 
HETATM   26  F   UNL     1     -46.535 -50.949  14.643  1.00  0.00    -0.171 F 
ENDBRANCH  21  23
ENDBRANCH   4  17
TORSDOF 5
ENDMDL
MODEL 2
REMARK VINA RESULT:      -7.1      2.187      5.959
REMARK  5 active torsions:
REMARK  status: ('A' for Active; 'I' for Inactive)
REMARK    1  A    between atoms: C_5  and  C_6 
REMARK    2  A    between atoms: C_6  and  C_7 
REMARK    3  A    between atoms: C_7  and  N_8 
REMARK       I    between atoms: N_8  and  C_9 
REMARK       I    between atoms: C_9  and  N_11 
REMARK    4  A    between atoms: N_11  and  C_12 
REMARK    5  A    between atoms: C_16  and  C_18 
ROOT
HETATM    1  N   UNL     1     -41.298 -49.084  10.879  1.00  0.00    -0.343 N 
HETATM    2  C   UNL     1     -42.138 -48.119  10.361  1.00  0.00     0.316 C 
HETATM    3  O   UNL     1     -42.646 -47.238  11.035  1.00  0.00    -0.247 OA
HETATM    4  N   UNL     1     -42.290 -48.269   9.011  1.00  0.00    -0.339 N 
HETATM    5  H   UNL     1     -41.349 -49.980  10.421  1.00  0.00     0.164 HD
HETATM    6  H   UNL     1     -41.759 -49.018   8.595  1.00  0.00     0.164 HD
ENDROOT
BRANCH   1   7
HETATM    7  C   UNL     1     -41.033 -49.089  12.309  1.00  0.00     0.129 C 
BRANCH   7   8
HETATM    8  C   UNL     1     -41.039 -50.498  12.911  1.00  0.00     0.060 C 
BRANCH   8   9
HETATM    9  C   UNL     1     -42.435 -51.057  12.988  1.00  0.00    -0.041 A 
HETATM   10  C   UNL     1     -43.461 -50.367  13.632  1.00  0.00     0.010 A 
HETATM   11  C   UNL     1     -44.759 -50.871  13.607  1.00  0.00     0.025 A 
HETATM   12  C   UNL     1     -45.005 -52.064  12.936  1.00  0.00     0.005 A 
HETATM   13  C   UNL     1     -46.397 -52.607  12.811  1.00  0.00     0.068 C 
HETATM   14  N   UNL     1     -44.022 -52.764  12.323  1.00  0.00    -0.369 N 
HETATM   15  C   UNL     1     -42.772 -52.251  12.361  1.00  0.00     0.095 A 
ATOM     16  HN  UNL     1     -44.218 -53.646  11.850  1.00  0.00     0.165 HD
ENDBRANCH   8   9
ENDBRANCH   7   8
ENDBRANCH   1   7
BRANCH   4  17
HETATM   17  C   UNL     1     -43.143 -47.509   8.095  1.00  0.00     0.086 C 
HETATM   18  C   UNL     1     -43.262 -45.990   8.314  1.00  0.00     0.025 C 
HETATM   19  C   UNL     1     -44.423 -45.523   9.197  1.00  0.00     0.003 C 
HETATM   20  C   UNL     1     -45.725 -46.278   8.950  1.00  0.00     0.014 C 
HETATM   21  C   UNL     1     -45.506 -47.792   9.017  1.00  0.00     0.095 C 
HETATM   22  C   UNL     1     -44.499 -48.198   7.935  1.00  0.00     0.038 C 
BRANCH  21  23
HETATM   23  C   UNL     1     -46.808 -48.578   8.888  1.00  0.00     0.391 C 
HETATM   24  F   UNL     1     -46.907 -49.574   9.794  1.00  0.00    -0.171 F 
HETATM   25  F   UNL     1     -47.898 -47.792   9.036  1.00  0.00    -0.171 F 
HETATM   26  F   UNL     1     -46.895 -49.143   7.660  1.00  0.00    -0.171 F 
ENDBRANCH  21  23
ENDBRANCH   4  17
TORSDOF 5
ENDMDL
MODEL 3
REMARK VINA RESULT:      -6.8      3.441      6.842
REMARK  5 active torsions:
REMARK  status: ('A' for Active; 'I' for Inactive)
REMARK    1  A    between atoms: C_5  and  C_6 
REMARK    2  A    between atoms: C_6  and  C_7 
REMARK    3  A    between atoms: C_7  and  N_8 
REMARK       I    between atoms: N_8  and  C_9 
REMARK       I    between atoms: C_9  and  N_11 
REMARK    4  A    between atoms: N_11  and  C_12 
REMARK    5  A    between atoms: C_16  and  C_18 
ROOT
HETATM    1  N   UNL     1     -42.682 -52.720  12.054  1.00  0.00    -0.343 N 
HETATM    2  C   UNL     1     -42.123 -51.576  12.586  1.00  0.00     0.316 C 
HETATM    3  O   UNL     1     -41.895 -51.431  13.776  1.00  0.00    -0.247 OA
HETATM    4  N   UNL     1     -41.841 -50.663  11.610  1.00  0.00    -0.339 N 
HETATM    5  H   UNL     1     -43.266 -52.570  11.247  1.00  0.00     0.164 HD
HETATM    6  H   UNL     1     -42.044 -50.958  10.668  1.00  0.00     0.164 HD
ENDROOT
BRANCH   1   7
HETATM    7  C   UNL     1     -43.064 -53.799  12.952  1.00  0.00     0.129 C 
BRANCH   7   8
HETATM    8  C   UNL     1     -44.558 -54.126  12.888  1.00  0.00     0.060 C 
BRANCH   8   9
HETATM    9  C   UNL     1     -45.348 -53.282  13.853  1.00  0.00    -0.041 A 
HETATM   10  C   UNL     1     -46.037 -52.145  13.432  1.00  0.00     0.010 A 
HETATM   11  C   UNL     1     -46.829 -51.439  14.333  1.00  0.00     0.025 A 
HETATM   12  C   UNL     1     -46.913 -51.885  15.648  1.00  0.00     0.005 A 
HETATM   13  C   UNL     1     -47.814 -51.207  16.637  1.00  0.00     0.068 C 
HETATM   14  N   UNL     1     -46.237 -52.971  16.088  1.00  0.00    -0.369 N 
HETATM   15  C   UNL     1     -45.476 -53.639  15.191  1.00  0.00     0.095 A 
ATOM     16  HN  UNL     1     -46.298 -53.274  17.059  1.00  0.00     0.165 HD
ENDBRANCH   8   9
ENDBRANCH   7   8
ENDBRANCH   1   7
BRANCH   4  17
HETATM   17  C   UNL     1     -41.314 -49.304  11.751  1.00  0.00     0.086 C 
HETATM   18  C   UNL     1     -41.565 -48.567  13.078  1.00  0.00     0.025 C 
HETATM   19  C   UNL     1     -42.820 -47.692  13.139  1.00  0.00     0.003 C 
HETATM   20  C   UNL     1     -43.077 -46.897  11.862  1.00  0.00     0.014 C 
HETATM   21  C   UNL     1     -43.054 -47.809  10.632  1.00  0.00     0.095 C 
HETATM   22  C   UNL     1     -41.672 -48.463  10.524  1.00  0.00     0.038 C 
BRANCH  21  23
HETATM   23  C   UNL     1     -43.420 -47.069   9.348  1.00  0.00     0.391 C 
HETATM   24  F   UNL     1     -44.741 -46.809   9.256  1.00  0.00    -0.171 F 
HETATM   25  F   UNL     1     -42.771 -45.887   9.235  1.00  0.00    -0.171 F 
HETATM   26  F   UNL     1     -43.079 -47.809   8.266  1.00  0.00    -0.171 F 
ENDBRANCH  21  23
ENDBRANCH   4  17
TORSDOF 5
ENDMDL
MODEL 4
REMARK VINA RESULT:      -6.7      2.992      6.134
REMARK  5 active torsions:
REMARK  status: ('A' for Active; 'I' for Inactive)
REMARK    1  A    between atoms: C_5  and  C_6 
REMARK    2  A    between atoms: C_6  and  C_7 
REMARK    3  A    between atoms: C_7  and  N_8 
REMARK       I    between atoms: N_8  and  C_9 
REMARK       I    between atoms: C_9  and  N_11 
REMARK    4  A    between atoms: N_11  and  C_12 
REMARK    5  A    between atoms: C_16  and  C_18 
ROOT
HETATM    1  N   UNL     1     -41.923 -50.337  14.025  1.00  0.00    -0.343 N 
HETATM    2  C   UNL     1     -41.543 -50.083  12.723  1.00  0.00     0.316 C 
HETATM    3  O   UNL     1     -41.234 -50.957  11.930  1.00  0.00    -0.247 OA
HETATM    4  N   UNL     1     -41.593 -48.746  12.446  1.00  0.00    -0.339 N 
HETATM    5  H   UNL     1     -41.668 -49.622  14.688  1.00  0.00     0.164 HD
HETATM    6  H   UNL     1     -41.919 -48.158  13.197  1.00  0.00     0.164 HD
ENDROOT
BRANCH   1   7
HETATM    7  C   UNL     1     -41.914 -51.711  14.503  1.00  0.00     0.129 C 
BRANCH   7   8
HETATM    8  C   UNL     1     -43.223 -52.112  15.189  1.00  0.00     0.060 C 
BRANCH   8   9
HETATM    9  C   UNL     1     -44.380 -52.081  14.226  1.00  0.00    -0.041 A 
HETATM   10  C   UNL     1     -45.586 -51.463  14.555  1.00  0.00     0.010 A 
HETATM   11  C   UNL     1     -46.603 -51.375  13.608  1.00  0.00     0.025 A 
HETATM   12  C   UNL     1     -46.392 -51.913  12.343  1.00  0.00     0.005 A 
HETATM   13  C   UNL     1     -47.423 -51.774  11.263  1.00  0.00     0.068 C 
HETATM   14  N   UNL     1     -45.240 -52.538  12.005  1.00  0.00    -0.369 N 
HETATM   15  C   UNL     1     -44.269 -52.608  12.944  1.00  0.00     0.095 A 
ATOM     16  HN  UNL     1     -45.110 -52.941  11.078  1.00  0.00     0.165 HD
ENDBRANCH   8   9
ENDBRANCH   7   8
ENDBRANCH   1   7
BRANCH   4  17
HETATM   17  C   UNL     1     -41.206 -48.050  11.217  1.00  0.00     0.086 C 
HETATM   18  C   UNL     1     -40.609 -46.637  11.346  1.00  0.00     0.025 C 
HETATM   19  C   UNL     1     -41.600 -45.473  11.256  1.00  0.00     0.003 C 
HETATM   20  C   UNL     1     -42.675 -45.662  10.190  1.00  0.00     0.014 C 
HETATM   21  C   UNL     1     -43.371 -47.018  10.343  1.00  0.00     0.095 C 
HETATM   22  C   UNL     1     -42.330 -48.132  10.182  1.00  0.00     0.038 C 
BRANCH  21  23
HETATM   23  C   UNL     1     -44.529 -47.194   9.364  1.00  0.00     0.391 C 
HETATM   24  F   UNL     1     -45.564 -47.875   9.900  1.00  0.00    -0.171 F 
HETATM   25  F   UNL     1     -45.014 -46.011   8.924  1.00  0.00    -0.171 F 
HETATM   26  F   UNL     1     -44.119 -47.881   8.271  1.00  0.00    -0.171 F 
ENDBRANCH  21  23
ENDBRANCH   4  17
TORSDOF 5
ENDMDL
MODEL 5
REMARK VINA RESULT:      -6.4      2.004      3.042
REMARK  5 active torsions:
REMARK  status: ('A' for Active; 'I' for Inactive)
REMARK    1  A    between atoms: C_5  and  C_6 
REMARK    2  A    between atoms: C_6  and  C_7 
REMARK    3  A    between atoms: C_7  and  N_8 
REMARK       I    between atoms: N_8  and  C_9 
REMARK       I    between atoms: C_9  and  N_11 
REMARK    4  A    between atoms: N_11  and  C_12 
REMARK    5  A    between atoms: C_16  and  C_18 
ROOT
HETATM    1  N   UNL     1     -40.851 -50.482  14.386  1.00  0.00    -0.343 N 
HETATM    2  C   UNL     1     -41.756 -51.445  13.988  1.00  0.00     0.316 C 
HETATM    3  O   UNL     1     -42.167 -51.549  12.843  1.00  0.00    -0.247 OA
HETATM    4  N   UNL     1     -42.094 -52.264  15.027  1.00  0.00    -0.339 N 
HETATM    5  H   UNL     1     -40.964 -50.160  15.334  1.00  0.00     0.164 HD
HETATM    6  H   UNL     1     -41.626 -52.076  15.899  1.00  0.00     0.164 HD
ENDROOT
BRANCH   1   7
HETATM    7  C   UNL     1     -40.389 -49.506  13.410  1.00  0.00     0.129 C 
BRANCH   7   8
HETATM    8  C   UNL     1     -41.267 -48.252  13.360  1.00  0.00     0.060 C 
BRANCH   8   9
HETATM    9  C   UNL     1     -41.943 -48.109  12.022  1.00  0.00    -0.041 A 
HETATM   10  C   UNL     1     -43.190 -47.497  11.898  1.00  0.00     0.010 A 
HETATM   11  C   UNL     1     -43.745 -47.301  10.636  1.00  0.00     0.025 A 
HETATM   12  C   UNL     1     -43.038 -47.726   9.517  1.00  0.00     0.005 A 
HETATM   13  C   UNL     1     -43.554 -47.467   8.132  1.00  0.00     0.068 C 
HETATM   14  N   UNL     1     -41.837 -48.343   9.611  1.00  0.00    -0.369 N 
HETATM   15  C   UNL     1     -41.321 -48.519  10.848  1.00  0.00     0.095 A 
ATOM     16  HN  UNL     1     -41.340 -48.663   8.780  1.00  0.00     0.165 HD
ENDBRANCH   8   9
ENDBRANCH   7   8
ENDBRANCH   1   7
BRANCH   4  17
HETATM   17  C   UNL     1     -43.068 -53.358  15.051  1.00  0.00     0.086 C 
HETATM   18  C   UNL     1     -43.099 -54.323  13.853  1.00  0.00     0.025 C 
HETATM   19  C   UNL     1     -44.073 -53.971  12.725  1.00  0.00     0.003 C 
HETATM   20  C   UNL     1     -45.423 -53.457  13.218  1.00  0.00     0.014 C 
HETATM   21  C   UNL     1     -45.244 -52.313  14.221  1.00  0.00     0.095 C 
HETATM   22  C   UNL     1     -44.454 -52.830  15.429  1.00  0.00     0.038 C 
BRANCH  21  23
HETATM   23  C   UNL     1     -46.574 -51.698  14.650  1.00  0.00     0.391 C 
HETATM   24  F   UNL     1     -47.180 -51.022  13.651  1.00  0.00    -0.171 F 
HETATM   25  F   UNL     1     -47.450 -52.628  15.093  1.00  0.00    -0.171 F 
HETATM   26  F   UNL     1     -46.381 -50.825  15.667  1.00  0.00    -0.171 F 
ENDBRANCH  21  23
ENDBRANCH   4  17
TORSDOF 5
ENDMDL
MODEL 6
REMARK VINA RESULT:      -6.4      4.163      7.498
REMARK  5 active torsions:
REMARK  status: ('A' for Active; 'I' for Inactive)
REMARK    1  A    between atoms: C_5  and  C_6 
REMARK    2  A    between atoms: C_6  and  C_7 
REMARK    3  A    between atoms: C_7  and  N_8 
REMARK       I    between atoms: N_8  and  C_9 
REMARK       I    between atoms: C_9  and  N_11 
REMARK    4  A    between atoms: N_11  and  C_12 
REMARK    5  A    between atoms: C_16  and  C_18 
ROOT
HETATM    1  N   UNL     1     -41.183 -51.362  11.822  1.00  0.00    -0.343 N 
HETATM    2  C   UNL     1     -41.696 -50.208  12.378  1.00  0.00     0.316 C 
HETATM    3  O   UNL     1     -41.674 -49.972  13.575  1.00  0.00    -0.247 OA
HETATM    4  N   UNL     1     -42.193 -49.375  11.417  1.00  0.00    -0.339 N 
HETATM    5  H   UNL     1     -41.667 -51.687  10.999  1.00  0.00     0.164 HD
HETATM    6  H   UNL     1     -42.089 -49.695  10.467  1.00  0.00     0.164 HD
ENDROOT
BRANCH   1   7
HETATM    7  C   UNL     1     -40.625 -52.378  12.701  1.00  0.00     0.129 C 
BRANCH   7   8
HETATM    8  C   UNL     1     -41.238 -53.763  12.477  1.00  0.00     0.060 C 
BRANCH   8   9
HETATM    9  C   UNL     1     -42.607 -53.865  13.096  1.00  0.00    -0.041 A 
HETATM   10  C   UNL     1     -43.747 -53.435  12.419  1.00  0.00     0.010 A 
HETATM   11  C   UNL     1     -45.005 -53.625  12.985  1.00  0.00     0.025 A 
HETATM   12  C   UNL     1     -45.097 -54.245  14.226  1.00  0.00     0.005 A 
HETATM   13  C   UNL     1     -46.431 -54.547  14.842  1.00  0.00     0.068 C 
HETATM   14  N   UNL     1     -44.005 -54.652  14.914  1.00  0.00    -0.369 N 
HETATM   15  C   UNL     1     -42.796 -54.455  14.341  1.00  0.00     0.095 A 
ATOM     16  HN  UNL     1     -44.091 -55.090  15.831  1.00  0.00     0.165 HD
ENDBRANCH   8   9
ENDBRANCH   7   8
ENDBRANCH   1   7
BRANCH   4  17
HETATM   17  C   UNL     1     -42.884 -48.094  11.583  1.00  0.00     0.086 C 
HETATM   18  C   UNL     1     -43.972 -47.723  10.560  1.00  0.00     0.025 C 
HETATM   19  C   UNL     1     -43.513 -46.900   9.352  1.00  0.00     0.003 C 
HETATM   20  C   UNL     1     -42.507 -45.807   9.701  1.00  0.00     0.014 C 
HETATM   21  C   UNL     1     -41.335 -46.373  10.509  1.00  0.00     0.095 C 
HETATM   22  C   UNL     1     -41.873 -46.969  11.814  1.00  0.00     0.038 C 
BRANCH  21  23
HETATM   23  C   UNL     1     -40.253 -45.330  10.778  1.00  0.00     0.391 C 
HETATM   24  F   UNL     1     -39.240 -45.391   9.888  1.00  0.00    -0.171 F 
HETATM   25  F   UNL     1     -40.738 -44.068  10.747  1.00  0.00    -0.171 F 
HETATM   26  F   UNL     1     -39.718 -45.516  12.008  1.00  0.00    -0.171 F 
ENDBRANCH  21  23
ENDBRANCH   4  17
TORSDOF 5
ENDMDL
MODEL 7
REMARK VINA RESULT:      -6.2      3.169      6.948
REMARK  5 active torsions:
REMARK  status: ('A' for Active; 'I' for Inactive)
REMARK    1  A    between atoms: C_5  and  C_6 
REMARK    2  A    between atoms: C_6  and  C_7 
REMARK    3  A    between atoms: C_7  and  N_8 
REMARK       I    between atoms: N_8  and  C_9 
REMARK       I    between atoms: C_9  and  N_11 
REMARK    4  A    between atoms: N_11  and  C_12 
REMARK    5  A    between atoms: C_16  and  C_18 
ROOT
HETATM    1  N   UNL     1     -41.042 -50.541  13.579  1.00  0.00    -0.343 N 
HETATM    2  C   UNL     1     -40.508 -49.940  12.456  1.00  0.00     0.316 C 
HETATM    3  O   UNL     1     -39.468 -50.301  11.931  1.00  0.00    -0.247 OA
HETATM    4  N   UNL     1     -41.309 -48.927  12.011  1.00  0.00    -0.339 N 
HETATM    5  H   UNL     1     -41.548 -49.921  14.191  1.00  0.00     0.164 HD
HETATM    6  H   UNL     1     -42.163 -48.788  12.528  1.00  0.00     0.164 HD
ENDROOT
BRANCH   1   7
HETATM    7  C   UNL     1     -40.313 -51.634  14.204  1.00  0.00     0.129 C 
BRANCH   7   8
HETATM    8  C   UNL     1     -40.363 -52.928  13.386  1.00  0.00     0.060 C 
BRANCH   8   9
HETATM    9  C   UNL     1     -41.704 -53.603  13.506  1.00  0.00    -0.041 A 
HETATM   10  C   UNL     1     -42.036 -54.370  14.622  1.00  0.00     0.010 A 
HETATM   11  C   UNL     1     -43.316 -54.905  14.740  1.00  0.00     0.025 A 
HETATM   12  C   UNL     1     -44.243 -54.663  13.732  1.00  0.00     0.005 A 
HETATM   13  C   UNL     1     -45.657 -55.148  13.850  1.00  0.00     0.068 C 
HETATM   14  N   UNL     1     -43.939 -53.941  12.629  1.00  0.00    -0.369 N 
HETATM   15  C   UNL     1     -42.689 -53.432  12.540  1.00  0.00     0.095 A 
ATOM     16  HN  UNL     1     -44.626 -53.787  11.891  1.00  0.00     0.165 HD
ENDBRANCH   8   9
ENDBRANCH   7   8
ENDBRANCH   1   7
BRANCH   4  17
HETATM   17  C   UNL     1     -41.079 -47.997  10.904  1.00  0.00     0.086 C 
HETATM   18  C   UNL     1     -40.643 -46.561  11.246  1.00  0.00     0.025 C 
HETATM   19  C   UNL     1     -41.766 -45.530  11.394  1.00  0.00     0.003 C 
HETATM   20  C   UNL     1     -42.873 -45.674  10.353  1.00  0.00     0.014 C 
HETATM   21  C   UNL     1     -43.396 -47.113  10.301  1.00  0.00     0.095 C 
HETATM   22  C   UNL     1     -42.245 -48.047   9.914  1.00  0.00     0.038 C 
BRANCH  21  23
HETATM   23  C   UNL     1     -44.582 -47.269   9.352  1.00  0.00     0.391 C 
HETATM   24  F   UNL     1     -45.603 -47.958   9.904  1.00  0.00    -0.171 F 
HETATM   25  F   UNL     1     -45.076 -46.077   8.947  1.00  0.00    -0.171 F 
HETATM   26  F   UNL     1     -44.205 -47.937   8.235  1.00  0.00    -0.171 F 
ENDBRANCH  21  23
ENDBRANCH   4  17
TORSDOF 5
ENDMDL
MODEL 8
REMARK VINA RESULT:      -6.2      5.069      7.398
REMARK  5 active torsions:
REMARK  status: ('A' for Active; 'I' for Inactive)
REMARK    1  A    between atoms: C_5  and  C_6 
REMARK    2  A    between atoms: C_6  and  C_7 
REMARK    3  A    between atoms: C_7  and  N_8 
REMARK       I    between atoms: N_8  and  C_9 
REMARK       I    between atoms: C_9  and  N_11 
REMARK    4  A    between atoms: N_11  and  C_12 
REMARK    5  A    between atoms: C_16  and  C_18 
ROOT
HETATM    1  N   UNL     1     -42.321 -52.646  13.247  1.00  0.00    -0.343 N 
HETATM    2  C   UNL     1     -41.103 -52.500  12.614  1.00  0.00     0.316 C 
HETATM    3  O   UNL     1     -40.539 -53.407  12.025  1.00  0.00    -0.247 OA
HETATM    4  N   UNL     1     -40.646 -51.216  12.713  1.00  0.00    -0.339 N 
HETATM    5  H   UNL     1     -42.443 -52.073  14.067  1.00  0.00     0.164 HD
HETATM    6  H   UNL     1     -41.257 -50.572  13.190  1.00  0.00     0.164 HD
ENDROOT
BRANCH   1   7
HETATM    7  C   UNL     1     -42.954 -53.956  13.259  1.00  0.00     0.129 C 
BRANCH   7   8
HETATM    8  C   UNL     1     -44.426 -53.910  12.839  1.00  0.00     0.060 C 
BRANCH   8   9
HETATM    9  C   UNL     1     -45.258 -53.143  13.834  1.00  0.00    -0.041 A 
HETATM   10  C   UNL     1     -45.942 -51.984  13.471  1.00  0.00     0.010 A 
HETATM   11  C   UNL     1     -46.772 -51.351  14.393  1.00  0.00     0.025 A 
HETATM   12  C   UNL     1     -46.900 -51.892  15.667  1.00  0.00     0.005 A 
HETATM   13  C   UNL     1     -47.842 -51.295  16.670  1.00  0.00     0.068 C 
HETATM   14  N   UNL     1     -46.229 -53.003  16.051  1.00  0.00    -0.369 N 
HETATM   15  C   UNL     1     -45.431 -53.599  15.136  1.00  0.00     0.095 A 
ATOM     16  HN  UNL     1     -46.321 -53.377  16.995  1.00  0.00     0.165 HD
ENDBRANCH   8   9
ENDBRANCH   7   8
ENDBRANCH   1   7
BRANCH   4  17
HETATM   17  C   UNL     1     -39.374 -50.659  12.247  1.00  0.00     0.086 C 
HETATM   18  C   UNL     1     -38.129 -50.869  13.126  1.00  0.00     0.025 C 
HETATM   19  C   UNL     1     -37.821 -49.763  14.139  1.00  0.00     0.003 C 
HETATM   20  C   UNL     1     -38.038 -48.354  13.595  1.00  0.00     0.014 C 
HETATM   21  C   UNL     1     -39.430 -48.212  12.972  1.00  0.00     0.095 C 
HETATM   22  C   UNL     1     -39.558 -49.204  11.811  1.00  0.00     0.038 C 
BRANCH  21  23
HETATM   23  C   UNL     1     -39.725 -46.784  12.519  1.00  0.00     0.391 C 
HETATM   24  F   UNL     1     -38.932 -45.873  13.121  1.00  0.00    -0.171 F 
HETATM   25  F   UNL     1     -39.572 -46.628  11.184  1.00  0.00    -0.171 F 
HETATM   26  F   UNL     1     -41.007 -46.456  12.808  1.00  0.00    -0.171 F 
ENDBRANCH  21  23
ENDBRANCH   4  17
TORSDOF 5
ENDMDL
MODEL 9
REMARK VINA RESULT:      -6.2      4.752      7.256
REMARK  5 active torsions:
REMARK  status: ('A' for Active; 'I' for Inactive)
REMARK    1  A    between atoms: C_5  and  C_6 
REMARK    2  A    between atoms: C_6  and  C_7 
REMARK    3  A    between atoms: C_7  and  N_8 
REMARK       I    between atoms: N_8  and  C_9 
REMARK       I    between atoms: C_9  and  N_11 
REMARK    4  A    between atoms: N_11  and  C_12 
REMARK    5  A    between atoms: C_16  and  C_18 
ROOT
HETATM    1  N   UNL     1     -40.206 -52.115  14.209  1.00  0.00    -0.343 N 
HETATM    2  C   UNL     1     -39.199 -51.422  13.567  1.00  0.00     0.316 C 
HETATM    3  O   UNL     1     -38.291 -51.965  12.961  1.00  0.00    -0.247 OA
HETATM    4  N   UNL     1     -39.380 -50.072  13.679  1.00  0.00    -0.339 N 
HETATM    5  H   UNL     1     -40.566 -51.668  15.038  1.00  0.00     0.164 HD
HETATM    6  H   UNL     1     -40.211 -49.784  14.170  1.00  0.00     0.164 HD
ENDROOT
BRANCH   1   7
HETATM    7  C   UNL     1     -40.168 -53.569  14.208  1.00  0.00     0.129 C 
BRANCH   7   8
HETATM    8  C   UNL     1     -41.004 -54.187  13.083  1.00  0.00     0.060 C 
BRANCH   8   9
HETATM    9  C   UNL     1     -42.447 -53.769  13.177  1.00  0.00    -0.041 A 
HETATM   10  C   UNL     1     -43.296 -54.294  14.150  1.00  0.00     0.010 A 
HETATM   11  C   UNL     1     -44.600 -53.820  14.264  1.00  0.00     0.025 A 
HETATM   12  C   UNL     1     -45.032 -52.824  13.395  1.00  0.00     0.005 A 
HETATM   13  C   UNL     1     -46.399 -52.222  13.528  1.00  0.00     0.068 C 
HETATM   14  N   UNL     1     -44.236 -52.313  12.427  1.00  0.00    -0.369 N 
HETATM   15  C   UNL     1     -42.974 -52.791  12.340  1.00  0.00     0.095 A 
ATOM     16  HN  UNL     1     -44.575 -51.595  11.788  1.00  0.00     0.165 HD
ENDBRANCH   8   9
ENDBRANCH   7   8
ENDBRANCH   1   7
BRANCH   4  17
HETATM   17  C   UNL     1     -38.512 -48.991  13.209  1.00  0.00     0.086 C 
HETATM   18  C   UNL     1     -38.024 -47.958  14.240  1.00  0.00     0.025 C 
HETATM   19  C   UNL     1     -38.885 -46.702  14.400  1.00  0.00     0.003 C 
HETATM   20  C   UNL     1     -39.412 -46.147  13.080  1.00  0.00     0.014 C 
HETATM   21  C   UNL     1     -40.108 -47.238  12.261  1.00  0.00     0.095 C 
HETATM   22  C   UNL     1     -39.096 -48.347  11.950  1.00  0.00     0.038 C 
BRANCH  21  23
HETATM   23  C   UNL     1     -40.748 -46.695  10.986  1.00  0.00     0.391 C 
HETATM   24  F   UNL     1     -41.244 -47.671  10.196  1.00  0.00    -0.171 F 
HETATM   25  F   UNL     1     -41.760 -45.837  11.246  1.00  0.00    -0.171 F 
HETATM   26  F   UNL     1     -39.833 -46.013  10.256  1.00  0.00    -0.171 F 
ENDBRANCH  21  23
ENDBRANCH   4  17
TORSDOF 5
ENDMDL
