MODEL 1
REMARK VINA RESULT:      -7.1      0.000      0.000
REMARK  3 active torsions:
REMARK  status: ('A' for Active; 'I' for Inactive)
REMARK    1  A    between atoms: N_1  and  C_8 
REMARK    2  A    between atoms: N_2  and  C_7 
REMARK    3  A    between atoms: C_8  and  C_15 
ROOT
HETATM    1  N   UNL     1     -39.413 -52.292  12.895  1.00  0.00    -0.191 NA
HETATM    2  C   UNL     1     -40.113 -53.008  13.483  1.00  0.00     0.099 C 
HETATM    3  C   UNL     1     -43.170 -54.861  14.631  1.00  0.00    -0.038 A 
HETATM    4  C   UNL     1     -40.969 -53.881  14.235  1.00  0.00     0.045 A 
HETATM    5  C   UNL     1     -42.313 -54.063  13.856  1.00  0.00     0.031 A 
HETATM    6  C   UNL     1     -41.315 -55.323  16.142  1.00  0.00     0.002 A 
HETATM    7  C   UNL     1     -42.656 -55.478  15.785  1.00  0.00     0.009 A 
HETATM    8  C   UNL     1     -40.473 -54.530  15.367  1.00  0.00     0.022 A 
ENDROOT
BRANCH   3   9
HETATM    9  C   UNL     1     -44.631 -55.056  14.249  1.00  0.00     0.175 C 
BRANCH   9  10
HETATM   10  N   UNL     1     -45.435 -53.853  14.449  1.00  0.00    -0.259 N 
HETATM   11  C   UNL     1     -45.971 -53.624  15.715  1.00  0.00     0.334 C 
HETATM   12  N   UNL     1     -46.600 -52.387  15.901  1.00  0.00    -0.279 N 
HETATM   13  O   UNL     1     -45.903 -54.458  16.619  1.00  0.00    -0.246 OA
HETATM   14  C   UNL     1     -46.880 -51.553  14.838  1.00  0.00     0.146 C 
HETATM   15  C   UNL     1     -46.527 -51.867  13.597  1.00  0.00     0.200 C 
HETATM   16  C   UNL     1     -45.778 -53.108  13.327  1.00  0.00     0.292 C 
HETATM   17  F   UNL     1     -46.834 -51.087  12.544  1.00  0.00    -0.199 F 
HETATM   18  O   UNL     1     -45.516 -53.431  12.171  1.00  0.00    -0.264 OA
BRANCH  12  19
HETATM   19  C   UNL     1     -47.042 -52.067  17.257  1.00  0.00     0.232 C 
HETATM   20  O   UNL     1     -48.311 -51.382  17.266  1.00  0.00    -0.366 OA
HETATM   21  C   UNL     1     -48.309 -50.433  18.347  1.00  0.00     0.170 C 
HETATM   22  C   UNL     1     -46.983 -50.558  19.064  1.00  0.00     0.031 C 
HETATM   23  C   UNL     1     -46.091 -51.135  17.999  1.00  0.00     0.056 C 
ENDBRANCH  12  19
ENDBRANCH   9  10
ENDBRANCH   3   9
TORSDOF 3
ENDMDL
MODEL 2
REMARK VINA RESULT:      -6.6      1.298      1.783
REMARK  3 active torsions:
REMARK  status: ('A' for Active; 'I' for Inactive)
REMARK    1  A    between atoms: N_1  and  C_8 
REMARK    2  A    between atoms: N_2  and  C_7 
REMARK    3  A    between atoms: C_8  and  C_15 
ROOT
HETATM    1  N   UNL     1     -39.556 -54.730  17.982  1.00  0.00    -0.191 NA
HETATM    2  C   UNL     1     -40.131 -54.582  16.984  1.00  0.00     0.099 C 
HETATM    3  C   UNL     1     -42.848 -54.618  14.394  1.00  0.00    -0.038 A 
HETATM    4  C   UNL     1     -40.820 -54.412  15.736  1.00  0.00     0.045 A 
HETATM    5  C   UNL     1     -42.191 -54.716  15.631  1.00  0.00     0.031 A 
HETATM    6  C   UNL     1     -40.760 -53.873  13.382  1.00  0.00     0.002 A 
HETATM    7  C   UNL     1     -42.113 -54.205  13.270  1.00  0.00     0.009 A 
HETATM    8  C   UNL     1     -40.117 -53.974  14.613  1.00  0.00     0.022 A 
ENDROOT
BRANCH   3   9
HETATM    9  C   UNL     1     -44.326 -54.959  14.254  1.00  0.00     0.175 C 
BRANCH   9  10
HETATM   10  N   UNL     1     -45.195 -53.799  14.428  1.00  0.00    -0.259 N 
HETATM   11  C   UNL     1     -45.706 -53.545  15.700  1.00  0.00     0.334 C 
HETATM   12  N   UNL     1     -46.403 -52.341  15.853  1.00  0.00    -0.279 N 
HETATM   13  O   UNL     1     -45.562 -54.333  16.636  1.00  0.00    -0.246 OA
HETATM   14  C   UNL     1     -46.764 -51.572  14.766  1.00  0.00     0.146 C 
HETATM   15  C   UNL     1     -46.429 -51.919  13.529  1.00  0.00     0.200 C 
HETATM   16  C   UNL     1     -45.615 -53.125  13.287  1.00  0.00     0.292 C 
HETATM   17  F   UNL     1     -46.813 -51.206  12.453  1.00  0.00    -0.199 F 
HETATM   18  O   UNL     1     -45.368 -53.483  12.138  1.00  0.00    -0.264 OA
BRANCH  12  19
HETATM   19  C   UNL     1     -46.824 -51.988  17.209  1.00  0.00     0.232 C 
HETATM   20  O   UNL     1     -48.207 -51.583  17.258  1.00  0.00    -0.366 OA
HETATM   21  C   UNL     1     -48.345 -50.554  18.252  1.00  0.00     0.170 C 
HETATM   22  C   UNL     1     -46.984 -50.330  18.873  1.00  0.00     0.031 C 
HETATM   23  C   UNL     1     -46.052 -50.812  17.794  1.00  0.00     0.056 C 
ENDBRANCH  12  19
ENDBRANCH   9  10
ENDBRANCH   3   9
TORSDOF 3
ENDMDL
MODEL 3
REMARK VINA RESULT:      -6.4      3.170      7.044
REMARK  3 active torsions:
REMARK  status: ('A' for Active; 'I' for Inactive)
REMARK    1  A    between atoms: N_1  and  C_8 
REMARK    2  A    between atoms: N_2  and  C_7 
REMARK    3  A    between atoms: C_8  and  C_15 
ROOT
HETATM    1  N   UNL     1     -46.085 -50.645  17.484  1.00  0.00    -0.191 NA
HETATM    2  C   UNL     1     -45.999 -51.122  16.429  1.00  0.00     0.099 C 
HETATM    3  C   UNL     1     -44.757 -53.139  13.516  1.00  0.00    -0.038 A 
HETATM    4  C   UNL     1     -45.896 -51.685  15.113  1.00  0.00     0.045 A 
HETATM    5  C   UNL     1     -44.904 -52.641  14.821  1.00  0.00     0.031 A 
HETATM    6  C   UNL     1     -46.627 -51.745  12.811  1.00  0.00     0.002 A 
HETATM    7  C   UNL     1     -45.624 -52.670  12.514  1.00  0.00     0.009 A 
HETATM    8  C   UNL     1     -46.765 -51.257  14.108  1.00  0.00     0.022 A 
ENDROOT
BRANCH   3   9
HETATM    9  C   UNL     1     -43.680 -54.160  13.176  1.00  0.00     0.175 C 
BRANCH   9  10
HETATM   10  N   UNL     1     -42.381 -53.830  13.756  1.00  0.00    -0.259 N 
HETATM   11  C   UNL     1     -41.545 -52.969  13.048  1.00  0.00     0.334 C 
HETATM   12  N   UNL     1     -40.383 -52.558  13.710  1.00  0.00    -0.279 N 
HETATM   13  O   UNL     1     -41.805 -52.593  11.904  1.00  0.00    -0.246 OA
HETATM   14  C   UNL     1     -39.975 -53.150  14.887  1.00  0.00     0.146 C 
HETATM   15  C   UNL     1     -40.690 -54.109  15.466  1.00  0.00     0.200 C 
HETATM   16  C   UNL     1     -41.975 -54.536  14.882  1.00  0.00     0.292 C 
HETATM   17  F   UNL     1     -40.283 -54.730  16.589  1.00  0.00    -0.199 F 
HETATM   18  O   UNL     1     -42.597 -55.471  15.378  1.00  0.00    -0.264 OA
BRANCH  12  19
HETATM   19  C   UNL     1     -39.564 -51.545  13.045  1.00  0.00     0.232 C 
HETATM   20  O   UNL     1     -38.181 -51.941  12.951  1.00  0.00    -0.366 OA
HETATM   21  C   UNL     1     -37.361 -50.769  13.087  1.00  0.00     0.170 C 
HETATM   22  C   UNL     1     -38.282 -49.580  13.242  1.00  0.00     0.031 C 
HETATM   23  C   UNL     1     -39.538 -50.210  13.780  1.00  0.00     0.056 C 
ENDBRANCH  12  19
ENDBRANCH   9  10
ENDBRANCH   3   9
TORSDOF 3
ENDMDL
MODEL 4
REMARK VINA RESULT:      -6.0      3.238      6.954
REMARK  3 active torsions:
REMARK  status: ('A' for Active; 'I' for Inactive)
REMARK    1  A    between atoms: N_1  and  C_8 
REMARK    2  A    between atoms: N_2  and  C_7 
REMARK    3  A    between atoms: C_8  and  C_15 
ROOT
HETATM    1  N   UNL     1     -44.033 -49.252  18.608  1.00  0.00    -0.191 NA
HETATM    2  C   UNL     1     -44.559 -49.790  17.724  1.00  0.00     0.099 C 
HETATM    3  C   UNL     1     -45.273 -51.174  14.308  1.00  0.00    -0.038 A 
HETATM    4  C   UNL     1     -45.233 -50.439  16.635  1.00  0.00     0.045 A 
HETATM    5  C   UNL     1     -44.590 -50.604  15.393  1.00  0.00     0.031 A 
HETATM    6  C   UNL     1     -47.232 -51.450  15.731  1.00  0.00     0.002 A 
HETATM    7  C   UNL     1     -46.605 -51.584  14.490  1.00  0.00     0.009 A 
HETATM    8  C   UNL     1     -46.546 -50.883  16.801  1.00  0.00     0.022 A 
ENDROOT
BRANCH   3   9
HETATM    9  C   UNL     1     -44.602 -51.344  12.951  1.00  0.00     0.175 C 
BRANCH   9  10
HETATM   10  N   UNL     1     -43.249 -51.883  13.051  1.00  0.00    -0.259 N 
HETATM   11  C   UNL     1     -42.183 -51.046  12.726  1.00  0.00     0.334 C 
HETATM   12  N   UNL     1     -40.904 -51.552  12.985  1.00  0.00    -0.279 N 
HETATM   13  O   UNL     1     -42.349 -49.929  12.234  1.00  0.00    -0.246 OA
HETATM   14  C   UNL     1     -40.704 -52.877  13.315  1.00  0.00     0.146 C 
HETATM   15  C   UNL     1     -41.722 -53.721  13.444  1.00  0.00     0.200 C 
HETATM   16  C   UNL     1     -43.108 -53.247  13.280  1.00  0.00     0.292 C 
HETATM   17  F   UNL     1     -41.542 -55.026  13.720  1.00  0.00    -0.199 F 
HETATM   18  O   UNL     1     -44.043 -54.043  13.327  1.00  0.00    -0.264 OA
BRANCH  12  19
HETATM   19  C   UNL     1     -39.778 -50.640  12.785  1.00  0.00     0.232 C 
HETATM   20  O   UNL     1     -38.621 -51.315  12.253  1.00  0.00    -0.366 OA
HETATM   21  C   UNL     1     -37.443 -50.709  12.810  1.00  0.00     0.170 C 
HETATM   22  C   UNL     1     -37.891 -49.579  13.711  1.00  0.00     0.031 C 
HETATM   23  C   UNL     1     -39.291 -49.990  14.075  1.00  0.00     0.056 C 
ENDBRANCH  12  19
ENDBRANCH   9  10
ENDBRANCH   3   9
TORSDOF 3
ENDMDL
MODEL 5
REMARK VINA RESULT:      -5.6      2.751      6.453
REMARK  3 active torsions:
REMARK  status: ('A' for Active; 'I' for Inactive)
REMARK    1  A    between atoms: N_1  and  C_8 
REMARK    2  A    between atoms: N_2  and  C_7 
REMARK    3  A    between atoms: C_8  and  C_15 
ROOT
HETATM    1  N   UNL     1     -46.821 -50.650  17.647  1.00  0.00    -0.191 NA
HETATM    2  C   UNL     1     -46.619 -51.203  16.646  1.00  0.00     0.099 C 
HETATM    3  C   UNL     1     -45.312 -53.671  14.136  1.00  0.00    -0.038 A 
HETATM    4  C   UNL     1     -46.362 -51.863  15.398  1.00  0.00     0.045 A 
HETATM    5  C   UNL     1     -45.626 -53.063  15.363  1.00  0.00     0.031 A 
HETATM    6  C   UNL     1     -46.513 -51.888  12.987  1.00  0.00     0.002 A 
HETATM    7  C   UNL     1     -45.755 -53.061  12.950  1.00  0.00     0.009 A 
HETATM    8  C   UNL     1     -46.818 -51.293  14.208  1.00  0.00     0.022 A 
ENDROOT
BRANCH   3   9
HETATM    9  C   UNL     1     -44.502 -54.959  14.075  1.00  0.00     0.175 C 
BRANCH   9  10
HETATM   10  N   UNL     1     -43.103 -54.767  14.446  1.00  0.00    -0.259 N 
HETATM   11  C   UNL     1     -42.705 -55.147  15.727  1.00  0.00     0.334 C 
HETATM   12  N   UNL     1     -41.331 -55.091  15.985  1.00  0.00    -0.279 N 
HETATM   13  O   UNL     1     -43.511 -55.506  16.587  1.00  0.00    -0.246 OA
HETATM   14  C   UNL     1     -40.456 -54.476  15.112  1.00  0.00     0.146 C 
HETATM   15  C   UNL     1     -40.875 -53.948  13.968  1.00  0.00     0.200 C 
HETATM   16  C   UNL     1     -42.293 -54.046  13.577  1.00  0.00     0.292 C 
HETATM   17  F   UNL     1     -40.044 -53.303  13.128  1.00  0.00    -0.199 F 
HETATM   18  O   UNL     1     -42.691 -53.494  12.553  1.00  0.00    -0.264 OA
BRANCH  12  19
HETATM   19  C   UNL     1     -40.876 -55.619  17.271  1.00  0.00     0.232 C 
HETATM   20  O   UNL     1     -39.729 -54.906  17.775  1.00  0.00    -0.366 OA
HETATM   21  C   UNL     1     -38.882 -55.837  18.469  1.00  0.00     0.170 C 
HETATM   22  C   UNL     1     -39.553 -57.192  18.419  1.00  0.00     0.031 C 
HETATM   23  C   UNL     1     -40.431 -57.075  17.203  1.00  0.00     0.056 C 
ENDBRANCH  12  19
ENDBRANCH   9  10
ENDBRANCH   3   9
TORSDOF 3
ENDMDL
MODEL 6
REMARK VINA RESULT:      -5.5      3.193      4.880
REMARK  3 active torsions:
REMARK  status: ('A' for Active; 'I' for Inactive)
REMARK    1  A    between atoms: N_1  and  C_8 
REMARK    2  A    between atoms: N_2  and  C_7 
REMARK    3  A    between atoms: C_8  and  C_15 
ROOT
HETATM    1  N   UNL     1     -37.447 -50.957  16.672  1.00  0.00    -0.191 NA
HETATM    2  C   UNL     1     -37.902 -50.738  15.627  1.00  0.00     0.099 C 
HETATM    3  C   UNL     1     -39.912 -51.065  12.473  1.00  0.00    -0.038 A 
HETATM    4  C   UNL     1     -38.439 -50.464  14.324  1.00  0.00     0.045 A 
HETATM    5  C   UNL     1     -39.438 -51.291  13.775  1.00  0.00     0.031 A 
HETATM    6  C   UNL     1     -38.408 -49.157  12.293  1.00  0.00     0.002 A 
HETATM    7  C   UNL     1     -39.375 -49.995  11.736  1.00  0.00     0.009 A 
HETATM    8  C   UNL     1     -37.944 -49.389  13.585  1.00  0.00     0.022 A 
ENDROOT
BRANCH   3   9
HETATM    9  C   UNL     1     -40.979 -51.959  11.853  1.00  0.00     0.175 C 
BRANCH   9  10
HETATM   10  N   UNL     1     -41.915 -52.492  12.839  1.00  0.00    -0.259 N 
HETATM   11  C   UNL     1     -42.903 -51.642  13.333  1.00  0.00     0.334 C 
HETATM   12  N   UNL     1     -43.869 -52.236  14.153  1.00  0.00    -0.279 N 
HETATM   13  O   UNL     1     -42.928 -50.439  13.071  1.00  0.00    -0.246 OA
HETATM   14  C   UNL     1     -43.719 -53.521  14.633  1.00  0.00     0.146 C 
HETATM   15  C   UNL     1     -42.671 -54.267  14.302  1.00  0.00     0.200 C 
HETATM   16  C   UNL     1     -41.654 -53.750  13.368  1.00  0.00     0.292 C 
HETATM   17  F   UNL     1     -42.484 -55.504  14.798  1.00  0.00    -0.199 F 
HETATM   18  O   UNL     1     -40.649 -54.413  13.121  1.00  0.00    -0.264 OA
BRANCH  12  19
HETATM   19  C   UNL     1     -44.994 -51.397  14.565  1.00  0.00     0.232 C 
HETATM   20  O   UNL     1     -44.877 -50.970  15.938  1.00  0.00    -0.366 OA
HETATM   21  C   UNL     1     -46.194 -50.908  16.510  1.00  0.00     0.170 C 
HETATM   22  C   UNL     1     -47.182 -51.287  15.429  1.00  0.00     0.031 C 
HETATM   23  C   UNL     1     -46.339 -52.109  14.493  1.00  0.00     0.056 C 
ENDBRANCH  12  19
ENDBRANCH   9  10
ENDBRANCH   3   9
TORSDOF 3
ENDMDL
MODEL 7
REMARK VINA RESULT:      -5.5      2.131      2.935
REMARK  3 active torsions:
REMARK  status: ('A' for Active; 'I' for Inactive)
REMARK    1  A    between atoms: N_1  and  C_8 
REMARK    2  A    between atoms: N_2  and  C_7 
REMARK    3  A    between atoms: C_8  and  C_15 
ROOT
HETATM    1  N   UNL     1     -38.460 -52.006  16.025  1.00  0.00    -0.191 NA
HETATM    2  C   UNL     1     -39.267 -52.054  15.192  1.00  0.00     0.099 C 
HETATM    3  C   UNL     1     -42.296 -53.060  13.214  1.00  0.00    -0.038 A 
HETATM    4  C   UNL     1     -40.245 -52.116  14.143  1.00  0.00     0.045 A 
HETATM    5  C   UNL     1     -41.377 -52.944  14.269  1.00  0.00     0.031 A 
HETATM    6  C   UNL     1     -40.960 -51.482  11.924  1.00  0.00     0.002 A 
HETATM    7  C   UNL     1     -42.066 -52.328  12.037  1.00  0.00     0.009 A 
HETATM    8  C   UNL     1     -40.054 -51.375  12.976  1.00  0.00     0.022 A 
ENDROOT
BRANCH   3   9
HETATM    9  C   UNL     1     -43.517 -53.964  13.324  1.00  0.00     0.175 C 
BRANCH   9  10
HETATM   10  N   UNL     1     -44.481 -53.497  14.315  1.00  0.00    -0.259 N 
HETATM   11  C   UNL     1     -44.502 -54.126  15.559  1.00  0.00     0.334 C 
HETATM   12  N   UNL     1     -45.331 -53.546  16.527  1.00  0.00    -0.279 N 
HETATM   13  O   UNL     1     -43.838 -55.136  15.797  1.00  0.00    -0.246 OA
HETATM   14  C   UNL     1     -46.243 -52.564  16.201  1.00  0.00     0.146 C 
HETATM   15  C   UNL     1     -46.346 -52.095  14.963  1.00  0.00     0.200 C 
HETATM   16  C   UNL     1     -45.446 -52.586  13.903  1.00  0.00     0.292 C 
HETATM   17  F   UNL     1     -47.263 -51.171  14.618  1.00  0.00    -0.199 F 
HETATM   18  O   UNL     1     -45.592 -52.204  12.744  1.00  0.00    -0.264 OA
BRANCH  12  19
HETATM   19  C   UNL     1     -45.260 -54.102  17.878  1.00  0.00     0.232 C 
HETATM   20  O   UNL     1     -46.263 -55.114  18.100  1.00  0.00    -0.366 OA
HETATM   21  C   UNL     1     -46.700 -55.029  19.467  1.00  0.00     0.170 C 
HETATM   22  C   UNL     1     -45.906 -53.929  20.135  1.00  0.00     0.031 C 
HETATM   23  C   UNL     1     -45.501 -53.067  18.971  1.00  0.00     0.056 C 
ENDBRANCH  12  19
ENDBRANCH   9  10
ENDBRANCH   3   9
TORSDOF 3
ENDMDL
MODEL 8
REMARK VINA RESULT:      -5.4      4.249      6.955
REMARK  3 active torsions:
REMARK  status: ('A' for Active; 'I' for Inactive)
REMARK    1  A    between atoms: N_1  and  C_8 
REMARK    2  A    between atoms: N_2  and  C_7 
REMARK    3  A    between atoms: C_8  and  C_15 
ROOT
HETATM    1  N   UNL     1     -42.085 -45.804  10.164  1.00  0.00    -0.191 NA
HETATM    2  C   UNL     1     -42.107 -46.721  10.875  1.00  0.00     0.099 C 
HETATM    3  C   UNL     1     -41.815 -50.229  12.181  1.00  0.00    -0.038 A 
HETATM    4  C   UNL     1     -42.162 -47.849  11.761  1.00  0.00     0.045 A 
HETATM    5  C   UNL     1     -41.696 -49.110  11.341  1.00  0.00     0.031 A 
HETATM    6  C   UNL     1     -42.831 -48.803  13.877  1.00  0.00     0.002 A 
HETATM    7  C   UNL     1     -42.399 -50.061  13.449  1.00  0.00     0.009 A 
HETATM    8  C   UNL     1     -42.709 -47.701  13.036  1.00  0.00     0.022 A 
ENDROOT
BRANCH   3   9
HETATM    9  C   UNL     1     -41.335 -51.605  11.739  1.00  0.00     0.175 C 
BRANCH   9  10
HETATM   10  N   UNL     1     -41.409 -52.601  12.804  1.00  0.00    -0.259 N 
HETATM   11  C   UNL     1     -40.230 -52.952  13.459  1.00  0.00     0.334 C 
HETATM   12  N   UNL     1     -40.371 -53.789  14.572  1.00  0.00    -0.279 N 
HETATM   13  O   UNL     1     -39.126 -52.556  13.083  1.00  0.00    -0.246 OA
HETATM   14  C   UNL     1     -41.566 -54.415  14.858  1.00  0.00     0.146 C 
HETATM   15  C   UNL     1     -42.648 -54.218  14.113  1.00  0.00     0.200 C 
HETATM   16  C   UNL     1     -42.610 -53.279  12.977  1.00  0.00     0.292 C 
HETATM   17  F   UNL     1     -43.809 -54.857  14.349  1.00  0.00    -0.199 F 
HETATM   18  O   UNL     1     -43.591 -53.154  12.247  1.00  0.00    -0.264 OA
BRANCH  12  19
HETATM   19  C   UNL     1     -39.166 -54.053  15.358  1.00  0.00     0.232 C 
HETATM   20  O   UNL     1     -38.706 -55.411  15.204  1.00  0.00    -0.366 OA
HETATM   21  C   UNL     1     -38.150 -55.849  16.455  1.00  0.00     0.170 C 
HETATM   22  C   UNL     1     -38.242 -54.694  17.427  1.00  0.00     0.031 C 
HETATM   23  C   UNL     1     -39.372 -53.880  16.858  1.00  0.00     0.056 C 
ENDBRANCH  12  19
ENDBRANCH   9  10
ENDBRANCH   3   9
TORSDOF 3
ENDMDL
MODEL 9
REMARK VINA RESULT:      -5.4      3.244      4.971
REMARK  3 active torsions:
REMARK  status: ('A' for Active; 'I' for Inactive)
REMARK    1  A    between atoms: N_1  and  C_8 
REMARK    2  A    between atoms: N_2  and  C_7 
REMARK    3  A    between atoms: C_8  and  C_15 
ROOT
HETATM    1  N   UNL     1     -35.928 -52.228  18.333  1.00  0.00    -0.191 NA
HETATM    2  C   UNL     1     -36.999 -52.645  18.167  1.00  0.00     0.099 C 
HETATM    3  C   UNL     1     -40.022 -54.162  16.539  1.00  0.00    -0.038 A 
HETATM    4  C   UNL     1     -38.333 -53.136  17.972  1.00  0.00     0.045 A 
HETATM    5  C   UNL     1     -38.699 -53.746  16.756  1.00  0.00     0.031 A 
HETATM    6  C   UNL     1     -40.597 -53.389  18.777  1.00  0.00     0.002 A 
HETATM    7  C   UNL     1     -40.968 -53.965  17.560  1.00  0.00     0.009 A 
HETATM    8  C   UNL     1     -39.282 -52.979  18.983  1.00  0.00     0.022 A 
ENDROOT
BRANCH   3   9
HETATM    9  C   UNL     1     -40.442 -54.808  15.224  1.00  0.00     0.175 C 
BRANCH   9  10
HETATM   10  N   UNL     1     -41.127 -53.879  14.330  1.00  0.00    -0.259 N 
HETATM   11  C   UNL     1     -42.520 -53.904  14.297  1.00  0.00     0.334 C 
HETATM   12  N   UNL     1     -43.135 -52.895  13.546  1.00  0.00    -0.279 N 
HETATM   13  O   UNL     1     -43.177 -54.764  14.887  1.00  0.00    -0.246 OA
HETATM   14  C   UNL     1     -42.410 -52.078  12.704  1.00  0.00     0.146 C 
HETATM   15  C   UNL     1     -41.090 -52.183  12.601  1.00  0.00     0.200 C 
HETATM   16  C   UNL     1     -40.354 -53.158  13.427  1.00  0.00     0.292 C 
HETATM   17  F   UNL     1     -40.373 -51.426  11.750  1.00  0.00    -0.199 F 
HETATM   18  O   UNL     1     -39.143 -53.304  13.277  1.00  0.00    -0.264 OA
BRANCH  12  19
HETATM   19  C   UNL     1     -44.594 -52.817  13.614  1.00  0.00     0.232 C 
HETATM   20  O   UNL     1     -45.214 -53.176  12.363  1.00  0.00    -0.366 OA
HETATM   21  C   UNL     1     -46.391 -52.369  12.189  1.00  0.00     0.170 C 
HETATM   22  C   UNL     1     -46.525 -51.485  13.409  1.00  0.00     0.031 C 
HETATM   23  C   UNL     1     -45.111 -51.415  13.916  1.00  0.00     0.056 C 
ENDBRANCH  12  19
ENDBRANCH   9  10
ENDBRANCH   3   9
TORSDOF 3
ENDMDL
