MODEL 1
REMARK VINA RESULT:      -6.5      0.000      0.000
REMARK  3 active torsions:
REMARK  status: ('A' for Active; 'I' for Inactive)
REMARK       I    between atoms: N_1  and  C_2 
REMARK    1  A    between atoms: C_2  and  C_4 
REMARK    2  A    between atoms: C_4  and  N_5 
REMARK    3  A    between atoms: C_7  and  N_8 
REMARK       I    between atoms: N_8  and  C_9 
REMARK       I    between atoms: C_9  and  N_11 
ROOT
HETATM    1  N   UNL     1     -39.599 -49.362  12.041  1.00  0.00    -0.293 N 
HETATM    2  C   UNL     1     -40.462 -50.179  12.713  1.00  0.00     0.141 A 
HETATM    3  C   UNL     1     -41.698 -50.001  12.142  1.00  0.00     0.070 A 
HETATM    4  C   UNL     1     -41.472 -49.028  11.139  1.00  0.00     0.138 A 
HETATM    5  N   UNL     1     -40.199 -48.621  11.083  1.00  0.00    -0.307 N 
ATOM      6  HN  UNL     1     -39.783 -47.922  10.469  1.00  0.00     0.186 HD
ENDROOT
BRANCH   3   7
HETATM    7  N   UNL     1     -42.900 -50.615  12.444  1.00  0.00    -0.306 N 
HETATM    8  C   UNL     1     -43.095 -51.974  12.569  1.00  0.00     0.323 C 
HETATM    9  O   UNL     1     -42.195 -52.801  12.424  1.00  0.00    -0.247 OA
HETATM   10  N   UNL     1     -44.402 -52.377  12.869  1.00  0.00    -0.334 N 
HETATM   11  C   UNL     1     -44.659 -53.823  12.889  1.00  0.00     0.127 C 
HETATM   12  C   UNL     1     -45.531 -51.513  13.225  1.00  0.00     0.127 C 
HETATM   13  C   UNL     1     -44.685 -54.378  14.312  1.00  0.00     0.020 C 
HETATM   14  C   UNL     1     -46.057 -54.310  14.984  1.00  0.00     0.002 C 
HETATM   15  C   UNL     1     -46.892 -53.059  14.718  1.00  0.00     0.002 C 
HETATM   16  C   UNL     1     -46.090 -51.765  14.628  1.00  0.00     0.020 C 
HETATM   17  H   UNL     1     -43.685 -49.996  12.493  1.00  0.00     0.171 HD
ENDBRANCH   3   7
BRANCH   1  18
HETATM   18  C   UNL     1     -38.172 -49.251  12.254  1.00  0.00     0.250 C 
BRANCH  18  19
HETATM   19  C   UNL     1     -37.427 -50.342  11.528  1.00  0.00     0.235 C 
HETATM   20  N   UNL     1     -37.175 -50.118  10.202  1.00  0.00    -0.369 N 
HETATM   21  H   UNL     1     -36.591 -50.793   9.727  1.00  0.00     0.159 HD
HETATM   22  H   UNL     1     -37.195 -49.168   9.840  1.00  0.00     0.159 HD
HETATM   23  O   UNL     1     -37.104 -51.403  12.054  1.00  0.00    -0.272 OA
ENDBRANCH  18  19
ENDBRANCH   1  18
TORSDOF 3
ENDMDL
MODEL 2
REMARK VINA RESULT:      -6.4      3.104      3.780
REMARK  3 active torsions:
REMARK  status: ('A' for Active; 'I' for Inactive)
REMARK       I    between atoms: N_1  and  C_2 
REMARK    1  A    between atoms: C_2  and  C_4 
REMARK    2  A    between atoms: C_4  and  N_5 
REMARK    3  A    between atoms: C_7  and  N_8 
REMARK       I    between atoms: N_8  and  C_9 
REMARK       I    between atoms: C_9  and  N_11 
ROOT
HETATM    1  N   UNL     1     -40.578 -46.994  11.133  1.00  0.00    -0.293 N 
HETATM    2  C   UNL     1     -40.668 -48.108  11.916  1.00  0.00     0.141 A 
HETATM    3  C   UNL     1     -41.591 -48.934  11.321  1.00  0.00     0.070 A 
HETATM    4  C   UNL     1     -42.017 -48.204  10.186  1.00  0.00     0.138 A 
HETATM    5  N   UNL     1     -41.418 -47.014  10.074  1.00  0.00    -0.307 N 
ATOM      6  HN  UNL     1     -41.561 -46.296   9.364  1.00  0.00     0.186 HD
ENDROOT
BRANCH   3   7
HETATM    7  N   UNL     1     -42.020 -50.191  11.708  1.00  0.00    -0.306 N 
HETATM    8  C   UNL     1     -41.203 -51.235  12.083  1.00  0.00     0.323 C 
HETATM    9  O   UNL     1     -39.976 -51.153  12.116  1.00  0.00    -0.247 OA
HETATM   10  N   UNL     1     -41.854 -52.426  12.425  1.00  0.00    -0.334 N 
HETATM   11  C   UNL     1     -41.001 -53.587  12.713  1.00  0.00     0.127 C 
HETATM   12  C   UNL     1     -43.298 -52.626  12.588  1.00  0.00     0.127 C 
HETATM   13  C   UNL     1     -40.840 -53.819  14.214  1.00  0.00     0.020 C 
HETATM   14  C   UNL     1     -41.929 -54.697  14.831  1.00  0.00     0.002 C 
HETATM   15  C   UNL     1     -43.352 -54.493  14.316  1.00  0.00     0.002 C 
HETATM   16  C   UNL     1     -43.713 -53.045  14.001  1.00  0.00     0.020 C 
HETATM   17  H   UNL     1     -43.007 -50.339  11.623  1.00  0.00     0.171 HD
ENDBRANCH   3   7
BRANCH   1  18
HETATM   18  C   UNL     1     -39.690 -45.868  11.331  1.00  0.00     0.250 C 
BRANCH  18  19
HETATM   19  C   UNL     1     -39.854 -44.848  10.234  1.00  0.00     0.235 C 
HETATM   20  N   UNL     1     -38.926 -44.890   9.230  1.00  0.00    -0.369 N 
HETATM   21  H   UNL     1     -39.080 -44.279   8.438  1.00  0.00     0.159 HD
HETATM   22  H   UNL     1     -38.388 -45.739   9.078  1.00  0.00     0.159 HD
HETATM   23  O   UNL     1     -40.724 -43.981  10.243  1.00  0.00    -0.272 OA
ENDBRANCH  18  19
ENDBRANCH   1  18
TORSDOF 3
ENDMDL
MODEL 3
REMARK VINA RESULT:      -6.2      2.723      3.504
REMARK  3 active torsions:
REMARK  status: ('A' for Active; 'I' for Inactive)
REMARK       I    between atoms: N_1  and  C_2 
REMARK    1  A    between atoms: C_2  and  C_4 
REMARK    2  A    between atoms: C_4  and  N_5 
REMARK    3  A    between atoms: C_7  and  N_8 
REMARK       I    between atoms: N_8  and  C_9 
REMARK       I    between atoms: C_9  and  N_11 
ROOT
HETATM    1  N   UNL     1     -41.533 -47.111  10.823  1.00  0.00    -0.293 N 
HETATM    2  C   UNL     1     -42.694 -47.610  11.338  1.00  0.00     0.141 A 
HETATM    3  C   UNL     1     -42.411 -48.873  11.797  1.00  0.00     0.070 A 
HETATM    4  C   UNL     1     -41.041 -49.048  11.485  1.00  0.00     0.138 A 
HETATM    5  N   UNL     1     -40.504 -47.986  10.875  1.00  0.00    -0.307 N 
ATOM      6  HN  UNL     1     -39.551 -47.865  10.533  1.00  0.00     0.186 HD
ENDROOT
BRANCH   3   7
HETATM    7  N   UNL     1     -43.240 -49.784  12.426  1.00  0.00    -0.306 N 
HETATM    8  C   UNL     1     -43.344 -49.961  13.789  1.00  0.00     0.323 C 
HETATM    9  O   UNL     1     -42.696 -49.309  14.606  1.00  0.00    -0.247 OA
HETATM   10  N   UNL     1     -44.242 -50.951  14.207  1.00  0.00    -0.334 N 
HETATM   11  C   UNL     1     -44.282 -51.241  15.647  1.00  0.00     0.127 C 
HETATM   12  C   UNL     1     -45.191 -51.691  13.371  1.00  0.00     0.127 C 
HETATM   13  C   UNL     1     -45.469 -50.567  16.331  1.00  0.00     0.020 C 
HETATM   14  C   UNL     1     -46.754 -51.397  16.315  1.00  0.00     0.002 C 
HETATM   15  C   UNL     1     -47.050 -52.181  15.038  1.00  0.00     0.002 C 
HETATM   16  C   UNL     1     -46.659 -51.468  13.747  1.00  0.00     0.020 C 
HETATM   17  H   UNL     1     -43.733 -50.397  11.807  1.00  0.00     0.171 HD
ENDBRANCH   3   7
BRANCH   1  18
HETATM   18  C   UNL     1     -41.329 -45.787  10.273  1.00  0.00     0.250 C 
BRANCH  18  19
HETATM   19  C   UNL     1     -39.920 -45.310  10.513  1.00  0.00     0.235 C 
HETATM   20  N   UNL     1     -39.157 -45.105   9.396  1.00  0.00    -0.369 N 
HETATM   21  H   UNL     1     -38.245 -44.691   9.534  1.00  0.00     0.159 HD
HETATM   22  H   UNL     1     -39.610 -44.968   8.496  1.00  0.00     0.159 HD
HETATM   23  O   UNL     1     -39.439 -45.162  11.632  1.00  0.00    -0.272 OA
ENDBRANCH  18  19
ENDBRANCH   1  18
TORSDOF 3
ENDMDL
MODEL 4
REMARK VINA RESULT:      -5.8      4.387      7.345
REMARK  3 active torsions:
REMARK  status: ('A' for Active; 'I' for Inactive)
REMARK       I    between atoms: N_1  and  C_2 
REMARK    1  A    between atoms: C_2  and  C_4 
REMARK    2  A    between atoms: C_4  and  N_5 
REMARK    3  A    between atoms: C_7  and  N_8 
REMARK       I    between atoms: N_8  and  C_9 
REMARK       I    between atoms: C_9  and  N_11 
ROOT
HETATM    1  N   UNL     1     -43.012 -47.867  10.009  1.00  0.00    -0.293 N 
HETATM    2  C   UNL     1     -41.671 -47.978  10.235  1.00  0.00     0.141 A 
HETATM    3  C   UNL     1     -41.526 -48.450  11.516  1.00  0.00     0.070 A 
HETATM    4  C   UNL     1     -42.855 -48.569  11.987  1.00  0.00     0.138 A 
HETATM    5  N   UNL     1     -43.766 -48.199  11.081  1.00  0.00    -0.307 N 
ATOM      6  HN  UNL     1     -44.781 -48.172  11.175  1.00  0.00     0.186 HD
ENDROOT
BRANCH   3   7
HETATM    7  N   UNL     1     -40.370 -48.756  12.213  1.00  0.00    -0.306 N 
HETATM    8  C   UNL     1     -39.643 -47.873  12.982  1.00  0.00     0.323 C 
HETATM    9  O   UNL     1     -39.957 -46.693  13.135  1.00  0.00    -0.247 OA
HETATM   10  N   UNL     1     -38.496 -48.397  13.591  1.00  0.00    -0.334 N 
HETATM   11  C   UNL     1     -37.641 -47.448  14.317  1.00  0.00     0.127 C 
HETATM   12  C   UNL     1     -38.084 -49.803  13.633  1.00  0.00     0.127 C 
HETATM   13  C   UNL     1     -37.873 -47.511  15.825  1.00  0.00     0.020 C 
HETATM   14  C   UNL     1     -37.016 -48.552  16.546  1.00  0.00     0.002 C 
HETATM   15  C   UNL     1     -36.800 -49.882  15.828  1.00  0.00     0.002 C 
HETATM   16  C   UNL     1     -38.008 -50.388  15.046  1.00  0.00     0.020 C 
HETATM   17  H   UNL     1     -40.023 -49.682  12.060  1.00  0.00     0.171 HD
ENDBRANCH   3   7
BRANCH   1  18
HETATM   18  C   UNL     1     -43.650 -47.461   8.774  1.00  0.00     0.250 C 
BRANCH  18  19
HETATM   19  C   UNL     1     -44.264 -46.091   8.905  1.00  0.00     0.235 C 
HETATM   20  N   UNL     1     -45.631 -46.039   8.863  1.00  0.00    -0.369 N 
HETATM   21  H   UNL     1     -46.061 -45.142   9.049  1.00  0.00     0.159 HD
HETATM   22  H   UNL     1     -46.172 -46.876   9.061  1.00  0.00     0.159 HD
HETATM   23  O   UNL     1     -43.603 -45.060   8.988  1.00  0.00    -0.272 OA
ENDBRANCH  18  19
ENDBRANCH   1  18
TORSDOF 3
ENDMDL
MODEL 5
REMARK VINA RESULT:      -5.6      2.601      7.205
REMARK  3 active torsions:
REMARK  status: ('A' for Active; 'I' for Inactive)
REMARK       I    between atoms: N_1  and  C_2 
REMARK    1  A    between atoms: C_2  and  C_4 
REMARK    2  A    between atoms: C_4  and  N_5 
REMARK    3  A    between atoms: C_7  and  N_8 
REMARK       I    between atoms: N_8  and  C_9 
REMARK       I    between atoms: C_9  and  N_11 
ROOT
HETATM    1  N   UNL     1     -42.447 -53.458  13.546  1.00  0.00    -0.293 N 
HETATM    2  C   UNL     1     -42.051 -52.231  13.994  1.00  0.00     0.141 A 
HETATM    3  C   UNL     1     -41.102 -51.778  13.112  1.00  0.00     0.070 A 
HETATM    4  C   UNL     1     -40.983 -52.829  12.171  1.00  0.00     0.138 A 
HETATM    5  N   UNL     1     -41.787 -53.864  12.440  1.00  0.00    -0.307 N 
ATOM      6  HN  UNL     1     -41.879 -54.744  11.933  1.00  0.00     0.186 HD
ENDROOT
BRANCH   3   7
HETATM    7  N   UNL     1     -40.410 -50.580  13.106  1.00  0.00    -0.306 N 
HETATM    8  C   UNL     1     -40.726 -49.478  12.342  1.00  0.00     0.323 C 
HETATM    9  O   UNL     1     -41.682 -49.444  11.568  1.00  0.00    -0.247 OA
HETATM   10  N   UNL     1     -39.879 -48.372  12.487  1.00  0.00    -0.334 N 
HETATM   11  C   UNL     1     -40.124 -47.230  11.597  1.00  0.00     0.127 C 
HETATM   12  C   UNL     1     -38.808 -48.206  13.475  1.00  0.00     0.127 C 
HETATM   13  C   UNL     1     -40.893 -46.113  12.300  1.00  0.00     0.020 C 
HETATM   14  C   UNL     1     -40.005 -45.112  13.039  1.00  0.00     0.002 C 
HETATM   15  C   UNL     1     -38.791 -45.679  13.773  1.00  0.00     0.002 C 
HETATM   16  C   UNL     1     -39.024 -47.033  14.436  1.00  0.00     0.020 C 
HETATM   17  H   UNL     1     -39.574 -50.577  13.658  1.00  0.00     0.171 HD
ENDBRANCH   3   7
BRANCH   1  18
HETATM   18  C   UNL     1     -43.475 -54.299  14.125  1.00  0.00     0.250 C 
BRANCH  18  19
HETATM   19  C   UNL     1     -44.726 -54.282  13.286  1.00  0.00     0.235 C 
HETATM   20  N   UNL     1     -45.762 -55.056  13.735  1.00  0.00    -0.369 N 
HETATM   21  H   UNL     1     -46.640 -54.977  13.240  1.00  0.00     0.159 HD
HETATM   22  H   UNL     1     -45.789 -55.341  14.710  1.00  0.00     0.159 HD
HETATM   23  O   UNL     1     -44.821 -53.666  12.228  1.00  0.00    -0.272 OA
ENDBRANCH  18  19
ENDBRANCH   1  18
TORSDOF 3
ENDMDL
MODEL 6
REMARK VINA RESULT:      -5.5      2.929      7.787
REMARK  3 active torsions:
REMARK  status: ('A' for Active; 'I' for Inactive)
REMARK       I    between atoms: N_1  and  C_2 
REMARK    1  A    between atoms: C_2  and  C_4 
REMARK    2  A    between atoms: C_4  and  N_5 
REMARK    3  A    between atoms: C_7  and  N_8 
REMARK       I    between atoms: N_8  and  C_9 
REMARK       I    between atoms: C_9  and  N_11 
ROOT
HETATM    1  N   UNL     1     -43.737 -54.525  14.408  1.00  0.00    -0.293 N 
HETATM    2  C   UNL     1     -43.021 -53.374  14.252  1.00  0.00     0.141 A 
HETATM    3  C   UNL     1     -41.817 -53.570  14.883  1.00  0.00     0.070 A 
HETATM    4  C   UNL     1     -41.921 -54.879  15.412  1.00  0.00     0.138 A 
HETATM    5  N   UNL     1     -43.094 -55.461  15.142  1.00  0.00    -0.307 N 
ATOM      6  HN  UNL     1     -43.424 -56.384  15.422  1.00  0.00     0.186 HD
ENDROOT
BRANCH   3   7
HETATM    7  N   UNL     1     -40.734 -52.716  14.991  1.00  0.00    -0.306 N 
HETATM    8  C   UNL     1     -39.895 -52.356  13.959  1.00  0.00     0.323 C 
HETATM    9  O   UNL     1     -40.029 -52.764  12.806  1.00  0.00    -0.247 OA
HETATM   10  N   UNL     1     -38.851 -51.485  14.298  1.00  0.00    -0.334 N 
HETATM   11  C   UNL     1     -37.875 -51.181  13.243  1.00  0.00     0.127 C 
HETATM   12  C   UNL     1     -38.660 -50.795  15.577  1.00  0.00     0.127 C 
HETATM   13  C   UNL     1     -38.140 -49.824  12.594  1.00  0.00     0.020 C 
HETATM   14  C   UNL     1     -37.465 -48.650  13.303  1.00  0.00     0.002 C 
HETATM   15  C   UNL     1     -37.441 -48.690  14.830  1.00  0.00     0.002 C 
HETATM   16  C   UNL     1     -38.698 -49.268  15.472  1.00  0.00     0.020 C 
HETATM   17  H   UNL     1     -40.529 -52.416  15.924  1.00  0.00     0.171 HD
ENDBRANCH   3   7
BRANCH   1  18
HETATM   18  C   UNL     1     -45.048 -54.808  13.864  1.00  0.00     0.250 C 
BRANCH  18  19
HETATM   19  C   UNL     1     -46.134 -54.413  14.830  1.00  0.00     0.235 C 
HETATM   20  N   UNL     1     -47.204 -53.749  14.295  1.00  0.00    -0.369 N 
HETATM   21  H   UNL     1     -47.985 -53.567  14.911  1.00  0.00     0.159 HD
HETATM   22  H   UNL     1     -47.391 -53.820  13.298  1.00  0.00     0.159 HD
HETATM   23  O   UNL     1     -46.065 -54.610  16.041  1.00  0.00    -0.272 OA
ENDBRANCH  18  19
ENDBRANCH   1  18
TORSDOF 3
ENDMDL
MODEL 7
REMARK VINA RESULT:      -5.4     14.237     16.818
REMARK  3 active torsions:
REMARK  status: ('A' for Active; 'I' for Inactive)
REMARK       I    between atoms: N_1  and  C_2 
REMARK    1  A    between atoms: C_2  and  C_4 
REMARK    2  A    between atoms: C_4  and  N_5 
REMARK    3  A    between atoms: C_7  and  N_8 
REMARK       I    between atoms: N_8  and  C_9 
REMARK       I    between atoms: C_9  and  N_11 
ROOT
HETATM    1  N   UNL     1     -29.897 -56.188  19.641  1.00  0.00    -0.293 N 
HETATM    2  C   UNL     1     -29.678 -57.099  18.649  1.00  0.00     0.141 A 
HETATM    3  C   UNL     1     -28.945 -58.118  19.206  1.00  0.00     0.070 A 
HETATM    4  C   UNL     1     -28.754 -57.706  20.547  1.00  0.00     0.138 A 
HETATM    5  N   UNL     1     -29.316 -56.523  20.815  1.00  0.00    -0.307 N 
ATOM      6  HN  UNL     1     -29.308 -56.000  21.690  1.00  0.00     0.186 HD
ENDROOT
BRANCH   3   7
HETATM    7  N   UNL     1     -28.489 -59.289  18.627  1.00  0.00    -0.306 N 
HETATM    8  C   UNL     1     -29.246 -60.419  18.407  1.00  0.00     0.323 C 
HETATM    9  O   UNL     1     -30.436 -60.504  18.707  1.00  0.00    -0.247 OA
HETATM   10  N   UNL     1     -28.574 -61.496  17.815  1.00  0.00    -0.334 N 
HETATM   11  C   UNL     1     -29.327 -62.751  17.680  1.00  0.00     0.127 C 
HETATM   12  C   UNL     1     -27.217 -61.492  17.260  1.00  0.00     0.127 C 
HETATM   13  C   UNL     1     -29.864 -62.944  16.263  1.00  0.00     0.020 C 
HETATM   14  C   UNL     1     -28.889 -63.640  15.314  1.00  0.00     0.002 C 
HETATM   15  C   UNL     1     -27.414 -63.265  15.445  1.00  0.00     0.002 C 
HETATM   16  C   UNL     1     -27.157 -61.794  15.760  1.00  0.00     0.020 C 
HETATM   17  H   UNL     1     -27.506 -59.305  18.434  1.00  0.00     0.171 HD
ENDBRANCH   3   7
BRANCH   1  18
HETATM   18  C   UNL     1     -30.673 -54.970  19.540  1.00  0.00     0.250 C 
BRANCH  18  19
HETATM   19  C   UNL     1     -30.156 -54.086  18.434  1.00  0.00     0.235 C 
HETATM   20  N   UNL     1     -30.998 -53.897  17.372  1.00  0.00    -0.369 N 
HETATM   21  H   UNL     1     -30.708 -53.228  16.671  1.00  0.00     0.159 HD
HETATM   22  H   UNL     1     -31.995 -54.065  17.485  1.00  0.00     0.159 HD
HETATM   23  O   UNL     1     -29.029 -53.600  18.430  1.00  0.00    -0.272 OA
ENDBRANCH  18  19
ENDBRANCH   1  18
TORSDOF 3
ENDMDL
MODEL 8
REMARK VINA RESULT:      -5.4      2.869      3.828
REMARK  3 active torsions:
REMARK  status: ('A' for Active; 'I' for Inactive)
REMARK       I    between atoms: N_1  and  C_2 
REMARK    1  A    between atoms: C_2  and  C_4 
REMARK    2  A    between atoms: C_4  and  N_5 
REMARK    3  A    between atoms: C_7  and  N_8 
REMARK       I    between atoms: N_8  and  C_9 
REMARK       I    between atoms: C_9  and  N_11 
ROOT
HETATM    1  N   UNL     1     -40.901 -47.254  12.067  1.00  0.00    -0.293 N 
HETATM    2  C   UNL     1     -41.425 -47.998  13.084  1.00  0.00     0.141 A 
HETATM    3  C   UNL     1     -41.410 -49.304  12.664  1.00  0.00     0.070 A 
HETATM    4  C   UNL     1     -40.874 -49.235  11.356  1.00  0.00     0.138 A 
HETATM    5  N   UNL     1     -40.578 -47.987  10.978  1.00  0.00    -0.307 N 
ATOM      6  HN  UNL     1     -40.201 -47.666  10.087  1.00  0.00     0.186 HD
ENDROOT
BRANCH   3   7
HETATM    7  N   UNL     1     -41.811 -50.446  13.336  1.00  0.00    -0.306 N 
HETATM    8  C   UNL     1     -43.115 -50.856  13.508  1.00  0.00     0.323 C 
HETATM    9  O   UNL     1     -44.082 -50.235  13.067  1.00  0.00    -0.247 OA
HETATM   10  N   UNL     1     -43.290 -52.041  14.233  1.00  0.00    -0.334 N 
HETATM   11  C   UNL     1     -44.674 -52.435  14.531  1.00  0.00     0.127 C 
HETATM   12  C   UNL     1     -42.243 -52.966  14.677  1.00  0.00     0.127 C 
HETATM   13  C   UNL     1     -45.176 -53.520  13.581  1.00  0.00     0.020 C 
HETATM   14  C   UNL     1     -44.865 -54.945  14.040  1.00  0.00     0.002 C 
HETATM   15  C   UNL     1     -43.502 -55.177  14.691  1.00  0.00     0.002 C 
HETATM   16  C   UNL     1     -42.360 -54.372  14.080  1.00  0.00     0.020 C 
HETATM   17  H   UNL     1     -41.070 -50.949  13.784  1.00  0.00     0.171 HD
ENDBRANCH   3   7
BRANCH   1  18
HETATM   18  C   UNL     1     -40.664 -45.825  12.073  1.00  0.00     0.250 C 
BRANCH  18  19
HETATM   19  C   UNL     1     -41.497 -45.132  11.026  1.00  0.00     0.235 C 
HETATM   20  N   UNL     1     -42.696 -44.627  11.449  1.00  0.00    -0.369 N 
HETATM   21  H   UNL     1     -43.219 -44.073  10.784  1.00  0.00     0.159 HD
HETATM   22  H   UNL     1     -42.845 -44.448  12.439  1.00  0.00     0.159 HD
HETATM   23  O   UNL     1     -41.172 -45.060   9.844  1.00  0.00    -0.272 OA
ENDBRANCH  18  19
ENDBRANCH   1  18
TORSDOF 3
ENDMDL
MODEL 9
REMARK VINA RESULT:      -5.3      5.065      6.963
REMARK  3 active torsions:
REMARK  status: ('A' for Active; 'I' for Inactive)
REMARK       I    between atoms: N_1  and  C_2 
REMARK    1  A    between atoms: C_2  and  C_4 
REMARK    2  A    between atoms: C_4  and  N_5 
REMARK    3  A    between atoms: C_7  and  N_8 
REMARK       I    between atoms: N_8  and  C_9 
REMARK       I    between atoms: C_9  and  N_11 
ROOT
HETATM    1  N   UNL     1     -42.543 -46.355  10.238  1.00  0.00    -0.293 N 
HETATM    2  C   UNL     1     -42.414 -46.924  11.471  1.00  0.00     0.141 A 
HETATM    3  C   UNL     1     -41.083 -46.852  11.801  1.00  0.00     0.070 A 
HETATM    4  C   UNL     1     -40.487 -46.235  10.674  1.00  0.00     0.138 A 
HETATM    5  N   UNL     1     -41.368 -45.945   9.711  1.00  0.00    -0.307 N 
ATOM      6  HN  UNL     1     -41.195 -45.520   8.800  1.00  0.00     0.186 HD
ENDROOT
BRANCH   3   7
HETATM    7  N   UNL     1     -40.441 -47.267  12.954  1.00  0.00    -0.306 N 
HETATM    8  C   UNL     1     -39.934 -48.529  13.177  1.00  0.00     0.323 C 
HETATM    9  O   UNL     1     -40.000 -49.439  12.351  1.00  0.00    -0.247 OA
HETATM   10  N   UNL     1     -39.333 -48.732  14.425  1.00  0.00    -0.334 N 
HETATM   11  C   UNL     1     -38.892 -50.100  14.732  1.00  0.00     0.127 C 
HETATM   12  C   UNL     1     -39.039 -47.714  15.438  1.00  0.00     0.127 C 
HETATM   13  C   UNL     1     -37.389 -50.275  14.527  1.00  0.00     0.020 C 
HETATM   14  C   UNL     1     -36.546 -49.924  15.754  1.00  0.00     0.002 C 
HETATM   15  C   UNL     1     -36.993 -48.715  16.573  1.00  0.00     0.002 C 
HETATM   16  C   UNL     1     -37.548 -47.557  15.749  1.00  0.00     0.020 C 
HETATM   17  H   UNL     1     -40.430 -46.591  13.692  1.00  0.00     0.171 HD
ENDBRANCH   3   7
BRANCH   1  18
HETATM   18  C   UNL     1     -43.775 -46.153   9.504  1.00  0.00     0.250 C 
BRANCH  18  19
HETATM   19  C   UNL     1     -44.104 -47.353   8.655  1.00  0.00     0.235 C 
HETATM   20  N   UNL     1     -45.242 -48.034   8.990  1.00  0.00    -0.369 N 
HETATM   21  H   UNL     1     -45.530 -48.779   8.370  1.00  0.00     0.159 HD
HETATM   22  H   UNL     1     -45.960 -47.571   9.542  1.00  0.00     0.159 HD
HETATM   23  O   UNL     1     -43.382 -47.756   7.746  1.00  0.00    -0.272 OA
ENDBRANCH  18  19
ENDBRANCH   1  18
TORSDOF 3
ENDMDL
