MODEL 1
REMARK VINA RESULT:      -6.2      0.000      0.000
REMARK  3 active torsions:
REMARK  status: ('A' for Active; 'I' for Inactive)
REMARK    1  A    between atoms: O_2  and  C_3 
REMARK    2  A    between atoms: C_9  and  N_10 
REMARK       I    between atoms: N_10  and  C_11 
REMARK       I    between atoms: C_11  and  N_13 
REMARK    3  A    between atoms: N_13  and  C_14 
ROOT
HETATM    1  N   UNL     1     -43.033 -52.290  12.225  1.00  0.00    -0.305 N 
HETATM    2  C   UNL     1     -42.830 -51.050  12.801  1.00  0.00     0.321 C 
HETATM    3  O   UNL     1     -43.082 -50.783  13.973  1.00  0.00    -0.247 OA
HETATM    4  N   UNL     1     -42.389 -50.102  11.925  1.00  0.00    -0.330 N 
HETATM    5  H   UNL     1     -42.287 -52.629  11.630  1.00  0.00     0.171 HD
HETATM    6  H   UNL     1     -42.036 -50.415  11.030  1.00  0.00     0.165 HD
ENDROOT
BRANCH   1   7
HETATM    7  C   UNL     1     -43.745 -53.286  12.945  1.00  0.00     0.087 A 
HETATM    8  C   UNL     1     -45.129 -53.439  12.851  1.00  0.00     0.169 A 
HETATM    9  N   UNL     1     -45.844 -54.344  13.569  1.00  0.00    -0.345 N 
HETATM   10  C   UNL     1     -45.147 -55.160  14.389  1.00  0.00     0.090 A 
ATOM     11  HN  UNL     1     -46.859 -54.404  13.493  1.00  0.00     0.167 HD
HETATM   12  C   UNL     1     -43.774 -55.118  14.532  1.00  0.00     0.019 A 
HETATM   13  C   UNL     1     -43.068 -54.162  13.803  1.00  0.00     0.035 A 
BRANCH   8  14
HETATM   14  O   UNL     1     -45.810 -52.681  11.913  1.00  0.00    -0.339 OA
HETATM   15  C   UNL     1     -46.576 -51.657  12.560  1.00  0.00     0.211 C 
ENDBRANCH   8  14
ENDBRANCH   1   7
BRANCH   4  16
HETATM   16  C   UNL     1     -41.905 -48.787  12.397  1.00  0.00     0.178 C 
HETATM   17  C   UNL     1     -42.961 -47.669  12.423  1.00  0.00     0.036 C 
HETATM   18  C   UNL     1     -43.355 -47.174  11.042  1.00  0.00     0.022 C 
HETATM   19  C   UNL     1     -42.126 -46.794  10.241  1.00  0.00     0.122 C 
HETATM   20  N   UNL     1     -41.127 -47.836  10.281  1.00  0.00    -0.359 N 
HETATM   21  C   UNL     1     -40.752 -48.462  11.446  1.00  0.00     0.240 C 
HETATM   22  H   UNL     1     -40.513 -47.980   9.491  1.00  0.00     0.162 HD
HETATM   23  O   UNL     1     -39.647 -48.997  11.539  1.00  0.00    -0.271 OA
ENDBRANCH   4  16
TORSDOF 3
ENDMDL
MODEL 2
REMARK VINA RESULT:      -6.1      1.438      2.134
REMARK  3 active torsions:
REMARK  status: ('A' for Active; 'I' for Inactive)
REMARK    1  A    between atoms: O_2  and  C_3 
REMARK    2  A    between atoms: C_9  and  N_10 
REMARK       I    between atoms: N_10  and  C_11 
REMARK       I    between atoms: C_11  and  N_13 
REMARK    3  A    between atoms: N_13  and  C_14 
ROOT
HETATM    1  N   UNL     1     -44.844 -50.901  12.600  1.00  0.00    -0.305 N 
HETATM    2  C   UNL     1     -43.701 -50.301  13.095  1.00  0.00     0.321 C 
HETATM    3  O   UNL     1     -43.147 -50.627  14.141  1.00  0.00    -0.247 OA
HETATM    4  N   UNL     1     -43.270 -49.243  12.351  1.00  0.00    -0.330 N 
HETATM    5  H   UNL     1     -44.846 -51.098  11.607  1.00  0.00     0.171 HD
HETATM    6  H   UNL     1     -43.653 -49.132  11.421  1.00  0.00     0.165 HD
ENDROOT
BRANCH   1   7
HETATM    7  C   UNL     1     -45.555 -51.826  13.411  1.00  0.00     0.087 A 
HETATM    8  C   UNL     1     -45.464 -53.207  13.236  1.00  0.00     0.169 A 
HETATM    9  N   UNL     1     -46.172 -54.113  13.957  1.00  0.00    -0.345 N 
HETATM   10  C   UNL     1     -46.979 -53.626  14.924  1.00  0.00     0.090 A 
ATOM     11  HN  UNL     1     -46.098 -55.114  13.778  1.00  0.00     0.167 HD
HETATM   12  C   UNL     1     -47.119 -52.281  15.205  1.00  0.00     0.019 A 
HETATM   13  C   UNL     1     -46.400 -51.371  14.432  1.00  0.00     0.035 A 
BRANCH   8  14
HETATM   14  O   UNL     1     -44.537 -53.692  12.327  1.00  0.00    -0.339 OA
HETATM   15  C   UNL     1     -43.319 -54.041  12.995  1.00  0.00     0.211 C 
ENDBRANCH   8  14
ENDBRANCH   1   7
BRANCH   4  16
HETATM   16  C   UNL     1     -41.949 -48.622  12.593  1.00  0.00     0.178 C 
HETATM   17  C   UNL     1     -41.980 -47.122  12.930  1.00  0.00     0.036 C 
HETATM   18  C   UNL     1     -42.322 -46.240  11.742  1.00  0.00     0.022 C 
HETATM   19  C   UNL     1     -41.416 -46.553  10.568  1.00  0.00     0.122 C 
HETATM   20  N   UNL     1     -41.359 -47.973  10.309  1.00  0.00    -0.359 N 
HETATM   21  C   UNL     1     -41.175 -48.903  11.304  1.00  0.00     0.240 C 
HETATM   22  H   UNL     1     -41.228 -48.311   9.366  1.00  0.00     0.162 HD
HETATM   23  O   UNL     1     -40.702 -50.009  11.045  1.00  0.00    -0.271 OA
ENDBRANCH   4  16
TORSDOF 3
ENDMDL
MODEL 3
REMARK VINA RESULT:      -6.1      3.090      4.234
REMARK  3 active torsions:
REMARK  status: ('A' for Active; 'I' for Inactive)
REMARK    1  A    between atoms: O_2  and  C_3 
REMARK    2  A    between atoms: C_9  and  N_10 
REMARK       I    between atoms: N_10  and  C_11 
REMARK       I    between atoms: C_11  and  N_13 
REMARK    3  A    between atoms: N_13  and  C_14 
ROOT
HETATM    1  N   UNL     1     -40.849 -50.741  11.416  1.00  0.00    -0.305 N 
HETATM    2  C   UNL     1     -41.735 -49.761  11.822  1.00  0.00     0.321 C 
HETATM    3  O   UNL     1     -42.168 -49.651  12.966  1.00  0.00    -0.247 OA
HETATM    4  N   UNL     1     -42.161 -48.952  10.810  1.00  0.00    -0.330 N 
HETATM    5  H   UNL     1     -40.091 -50.432  10.821  1.00  0.00     0.171 HD
HETATM    6  H   UNL     1     -41.647 -48.974   9.939  1.00  0.00     0.165 HD
ENDROOT
BRANCH   1   7
HETATM    7  C   UNL     1     -40.541 -51.812  12.297  1.00  0.00     0.087 A 
HETATM    8  C   UNL     1     -39.450 -51.783  13.167  1.00  0.00     0.169 A 
HETATM    9  N   UNL     1     -39.099 -52.813  13.979  1.00  0.00    -0.345 N 
HETATM   10  C   UNL     1     -39.889 -53.907  13.954  1.00  0.00     0.090 A 
ATOM     11  HN  UNL     1     -38.276 -52.762  14.580  1.00  0.00     0.167 HD
HETATM   12  C   UNL     1     -41.011 -54.028  13.158  1.00  0.00     0.019 A 
HETATM   13  C   UNL     1     -41.334 -52.966  12.314  1.00  0.00     0.035 A 
BRANCH   8  14
HETATM   14  O   UNL     1     -38.727 -50.606  13.271  1.00  0.00    -0.339 OA
HETATM   15  C   UNL     1     -37.420 -50.772  12.708  1.00  0.00     0.211 C 
ENDBRANCH   8  14
ENDBRANCH   1   7
BRANCH   4  16
HETATM   16  C   UNL     1     -42.928 -47.718  11.086  1.00  0.00     0.178 C 
HETATM   17  C   UNL     1     -44.316 -47.645  10.426  1.00  0.00     0.036 C 
HETATM   18  C   UNL     1     -44.263 -47.433   8.923  1.00  0.00     0.022 C 
HETATM   19  C   UNL     1     -43.396 -46.236   8.585  1.00  0.00     0.122 C 
HETATM   20  N   UNL     1     -42.122 -46.299   9.262  1.00  0.00    -0.359 N 
HETATM   21  C   UNL     1     -42.004 -46.600  10.599  1.00  0.00     0.240 C 
HETATM   22  H   UNL     1     -41.298 -45.905   8.830  1.00  0.00     0.162 HD
HETATM   23  O   UNL     1     -41.019 -46.231  11.237  1.00  0.00    -0.271 OA
ENDBRANCH   4  16
TORSDOF 3
ENDMDL
MODEL 4
REMARK VINA RESULT:      -5.9      2.579      3.768
REMARK  3 active torsions:
REMARK  status: ('A' for Active; 'I' for Inactive)
REMARK    1  A    between atoms: O_2  and  C_3 
REMARK    2  A    between atoms: C_9  and  N_10 
REMARK       I    between atoms: N_10  and  C_11 
REMARK       I    between atoms: C_11  and  N_13 
REMARK    3  A    between atoms: N_13  and  C_14 
ROOT
HETATM    1  N   UNL     1     -40.677 -50.410  11.349  1.00  0.00    -0.305 N 
HETATM    2  C   UNL     1     -41.602 -49.469  11.759  1.00  0.00     0.321 C 
HETATM    3  O   UNL     1     -41.907 -49.264  12.931  1.00  0.00    -0.247 OA
HETATM    4  N   UNL     1     -42.221 -48.822  10.730  1.00  0.00    -0.330 N 
HETATM    5  H   UNL     1     -40.027 -50.110  10.633  1.00  0.00     0.171 HD
HETATM    6  H   UNL     1     -41.812 -48.902   9.808  1.00  0.00     0.165 HD
ENDROOT
BRANCH   1   7
HETATM    7  C   UNL     1     -40.165 -51.342  12.291  1.00  0.00     0.087 A 
HETATM    8  C   UNL     1     -40.833 -52.522  12.624  1.00  0.00     0.169 A 
HETATM    9  N   UNL     1     -40.397 -53.403  13.560  1.00  0.00    -0.345 N 
HETATM   10  C   UNL     1     -39.225 -53.119  14.167  1.00  0.00     0.090 A 
ATOM     11  HN  UNL     1     -40.931 -54.241  13.794  1.00  0.00     0.167 HD
HETATM   12  C   UNL     1     -38.466 -51.999  13.890  1.00  0.00     0.019 A 
HETATM   13  C   UNL     1     -38.949 -51.097  12.943  1.00  0.00     0.035 A 
BRANCH   8  14
HETATM   14  O   UNL     1     -41.966 -52.858  11.902  1.00  0.00    -0.339 OA
HETATM   15  C   UNL     1     -43.129 -52.783  12.735  1.00  0.00     0.211 C 
ENDBRANCH   8  14
ENDBRANCH   1   7
BRANCH   4  16
HETATM   16  C   UNL     1     -43.069 -47.634  10.971  1.00  0.00     0.178 C 
HETATM   17  C   UNL     1     -44.441 -47.654  10.276  1.00  0.00     0.036 C 
HETATM   18  C   UNL     1     -44.362 -47.457   8.772  1.00  0.00     0.022 C 
HETATM   19  C   UNL     1     -43.562 -46.214   8.439  1.00  0.00     0.122 C 
HETATM   20  N   UNL     1     -42.304 -46.191   9.149  1.00  0.00    -0.359 N 
HETATM   21  C   UNL     1     -42.202 -46.468  10.491  1.00  0.00     0.240 C 
HETATM   22  H   UNL     1     -41.495 -45.752   8.731  1.00  0.00     0.162 HD
HETATM   23  O   UNL     1     -41.258 -46.032  11.149  1.00  0.00    -0.271 OA
ENDBRANCH   4  16
TORSDOF 3
ENDMDL
MODEL 5
REMARK VINA RESULT:      -5.8      1.818      6.735
REMARK  3 active torsions:
REMARK  status: ('A' for Active; 'I' for Inactive)
REMARK    1  A    between atoms: O_2  and  C_3 
REMARK    2  A    between atoms: C_9  and  N_10 
REMARK       I    between atoms: N_10  and  C_11 
REMARK       I    between atoms: C_11  and  N_13 
REMARK    3  A    between atoms: N_13  and  C_14 
ROOT
HETATM    1  N   UNL     1     -42.069 -49.523  11.234  1.00  0.00    -0.305 N 
HETATM    2  C   UNL     1     -42.675 -49.806  12.445  1.00  0.00     0.321 C 
HETATM    3  O   UNL     1     -42.988 -48.957  13.276  1.00  0.00    -0.247 OA
HETATM    4  N   UNL     1     -42.833 -51.139  12.682  1.00  0.00    -0.330 N 
HETATM    5  H   UNL     1     -42.433 -50.019  10.431  1.00  0.00     0.171 HD
HETATM    6  H   UNL     1     -42.722 -51.774  11.901  1.00  0.00     0.165 HD
ENDROOT
BRANCH   1   7
HETATM    7  C   UNL     1     -41.596 -48.207  10.982  1.00  0.00     0.087 A 
HETATM    8  C   UNL     1     -42.279 -47.305  10.166  1.00  0.00     0.169 A 
HETATM    9  N   UNL     1     -41.825 -46.062   9.860  1.00  0.00    -0.345 N 
HETATM   10  C   UNL     1     -40.657 -45.685  10.422  1.00  0.00     0.090 A 
ATOM     11  HN  UNL     1     -42.342 -45.443   9.236  1.00  0.00     0.167 HD
HETATM   12  C   UNL     1     -39.916 -46.484  11.270  1.00  0.00     0.019 A 
HETATM   13  C   UNL     1     -40.393 -47.766  11.546  1.00  0.00     0.035 A 
BRANCH   8  14
HETATM   14  O   UNL     1     -43.535 -47.662   9.702  1.00  0.00    -0.339 OA
HETATM   15  C   UNL     1     -43.579 -47.586   8.272  1.00  0.00     0.211 C 
ENDBRANCH   8  14
ENDBRANCH   1   7
BRANCH   4  16
HETATM   16  C   UNL     1     -43.657 -51.626  13.810  1.00  0.00     0.178 C 
HETATM   17  C   UNL     1     -43.071 -52.817  14.586  1.00  0.00     0.036 C 
HETATM   18  C   UNL     1     -43.118 -54.126  13.816  1.00  0.00     0.022 C 
HETATM   19  C   UNL     1     -44.521 -54.396  13.311  1.00  0.00     0.122 C 
HETATM   20  N   UNL     1     -45.071 -53.242  12.637  1.00  0.00    -0.359 N 
HETATM   21  C   UNL     1     -44.997 -51.972  13.157  1.00  0.00     0.240 C 
HETATM   22  H   UNL     1     -45.722 -53.364  11.874  1.00  0.00     0.162 HD
HETATM   23  O   UNL     1     -45.811 -51.112  12.823  1.00  0.00    -0.271 OA
ENDBRANCH   4  16
TORSDOF 3
ENDMDL
MODEL 6
REMARK VINA RESULT:      -5.8      2.425      6.366
REMARK  3 active torsions:
REMARK  status: ('A' for Active; 'I' for Inactive)
REMARK    1  A    between atoms: O_2  and  C_3 
REMARK    2  A    between atoms: C_9  and  N_10 
REMARK       I    between atoms: N_10  and  C_11 
REMARK       I    between atoms: C_11  and  N_13 
REMARK    3  A    between atoms: N_13  and  C_14 
ROOT
HETATM    1  N   UNL     1     -41.240 -50.850  13.201  1.00  0.00    -0.305 N 
HETATM    2  C   UNL     1     -42.062 -51.817  12.653  1.00  0.00     0.321 C 
HETATM    3  O   UNL     1     -41.709 -52.616  11.789  1.00  0.00    -0.247 OA
HETATM    4  N   UNL     1     -43.348 -51.764  13.102  1.00  0.00    -0.330 N 
HETATM    5  H   UNL     1     -41.296 -50.739  14.205  1.00  0.00     0.171 HD
HETATM    6  H   UNL     1     -43.537 -51.212  13.929  1.00  0.00     0.165 HD
ENDROOT
BRANCH   1   7
HETATM    7  C   UNL     1     -39.963 -50.612  12.626  1.00  0.00     0.087 A 
HETATM    8  C   UNL     1     -39.788 -49.862  11.462  1.00  0.00     0.169 A 
HETATM    9  N   UNL     1     -38.588 -49.665  10.858  1.00  0.00    -0.345 N 
HETATM   10  C   UNL     1     -37.506 -50.205  11.460  1.00  0.00     0.090 A 
ATOM     11  HN  UNL     1     -38.507 -49.134   9.991  1.00  0.00     0.167 HD
HETATM   12  C   UNL     1     -37.561 -50.934  12.631  1.00  0.00     0.019 A 
HETATM   13  C   UNL     1     -38.809 -51.144  13.216  1.00  0.00     0.035 A 
BRANCH   8  14
HETATM   14  O   UNL     1     -40.889 -49.212  10.930  1.00  0.00    -0.339 OA
HETATM   15  C   UNL     1     -40.828 -47.810  11.218  1.00  0.00     0.211 C 
ENDBRANCH   8  14
ENDBRANCH   1   7
BRANCH   4  16
HETATM   16  C   UNL     1     -44.310 -52.848  12.804  1.00  0.00     0.178 C 
HETATM   17  C   UNL     1     -45.738 -52.385  12.467  1.00  0.00     0.036 C 
HETATM   18  C   UNL     1     -46.504 -51.857  13.667  1.00  0.00     0.022 C 
HETATM   19  C   UNL     1     -46.472 -52.860  14.803  1.00  0.00     0.122 C 
HETATM   20  N   UNL     1     -45.128 -53.323  15.061  1.00  0.00    -0.359 N 
HETATM   21  C   UNL     1     -44.273 -53.720  14.061  1.00  0.00     0.240 C 
HETATM   22  H   UNL     1     -44.852 -53.580  15.999  1.00  0.00     0.162 HD
HETATM   23  O   UNL     1     -43.347 -54.494  14.302  1.00  0.00    -0.271 OA
ENDBRANCH   4  16
TORSDOF 3
ENDMDL
MODEL 7
REMARK VINA RESULT:      -5.5      1.459      2.375
REMARK  3 active torsions:
REMARK  status: ('A' for Active; 'I' for Inactive)
REMARK    1  A    between atoms: O_2  and  C_3 
REMARK    2  A    between atoms: C_9  and  N_10 
REMARK       I    between atoms: N_10  and  C_11 
REMARK       I    between atoms: C_11  and  N_13 
REMARK    3  A    between atoms: N_13  and  C_14 
ROOT
HETATM    1  N   UNL     1     -42.522 -51.995  12.199  1.00  0.00    -0.305 N 
HETATM    2  C   UNL     1     -42.595 -50.706  12.694  1.00  0.00     0.321 C 
HETATM    3  O   UNL     1     -42.989 -50.420  13.822  1.00  0.00    -0.247 OA
HETATM    4  N   UNL     1     -42.259 -49.748  11.783  1.00  0.00    -0.330 N 
HETATM    5  H   UNL     1     -41.680 -52.225  11.687  1.00  0.00     0.171 HD
HETATM    6  H   UNL     1     -41.782 -50.044  10.941  1.00  0.00     0.165 HD
ENDROOT
BRANCH   1   7
HETATM    7  C   UNL     1     -43.102 -53.061  12.940  1.00  0.00     0.087 A 
HETATM    8  C   UNL     1     -42.394 -53.780  13.904  1.00  0.00     0.169 A 
HETATM    9  N   UNL     1     -42.902 -54.838  14.587  1.00  0.00    -0.345 N 
HETATM   10  C   UNL     1     -44.184 -55.173  14.328  1.00  0.00     0.090 A 
ATOM     11  HN  UNL     1     -42.342 -55.355  15.264  1.00  0.00     0.167 HD
HETATM   12  C   UNL     1     -44.985 -54.509  13.419  1.00  0.00     0.019 A 
HETATM   13  C   UNL     1     -44.430 -53.442  12.712  1.00  0.00     0.035 A 
BRANCH   8  14
HETATM   14  O   UNL     1     -41.126 -53.342  14.247  1.00  0.00    -0.339 OA
HETATM   15  C   UNL     1     -40.131 -54.216  13.699  1.00  0.00     0.211 C 
ENDBRANCH   8  14
ENDBRANCH   1   7
BRANCH   4  16
HETATM   16  C   UNL     1     -42.061 -48.340  12.189  1.00  0.00     0.178 C 
HETATM   17  C   UNL     1     -43.290 -47.430  12.025  1.00  0.00     0.036 C 
HETATM   18  C   UNL     1     -43.615 -47.104  10.578  1.00  0.00     0.022 C 
HETATM   19  C   UNL     1     -42.392 -46.561   9.866  1.00  0.00     0.122 C 
HETATM   20  N   UNL     1     -41.238 -47.403  10.084  1.00  0.00    -0.359 N 
HETATM   21  C   UNL     1     -40.886 -47.876  11.326  1.00  0.00     0.240 C 
HETATM   22  H   UNL     1     -40.529 -47.485   9.369  1.00  0.00     0.162 HD
HETATM   23  O   UNL     1     -39.723 -48.197  11.564  1.00  0.00    -0.271 OA
ENDBRANCH   4  16
TORSDOF 3
ENDMDL
MODEL 8
REMARK VINA RESULT:      -5.3      1.456      6.935
REMARK  3 active torsions:
REMARK  status: ('A' for Active; 'I' for Inactive)
REMARK    1  A    between atoms: O_2  and  C_3 
REMARK    2  A    between atoms: C_9  and  N_10 
REMARK       I    between atoms: N_10  and  C_11 
REMARK       I    between atoms: C_11  and  N_13 
REMARK    3  A    between atoms: N_13  and  C_14 
ROOT
HETATM    1  N   UNL     1     -42.460 -49.840  11.542  1.00  0.00    -0.305 N 
HETATM    2  C   UNL     1     -42.925 -50.173  12.801  1.00  0.00     0.321 C 
HETATM    3  O   UNL     1     -42.837 -49.444  13.785  1.00  0.00    -0.247 OA
HETATM    4  N   UNL     1     -43.435 -51.435  12.882  1.00  0.00    -0.330 N 
HETATM    5  H   UNL     1     -43.076 -50.061  10.770  1.00  0.00     0.171 HD
HETATM    6  H   UNL     1     -43.641 -51.918  12.017  1.00  0.00     0.165 HD
ENDROOT
BRANCH   1   7
HETATM    7  C   UNL     1     -41.661 -48.677  11.378  1.00  0.00     0.087 A 
HETATM    8  C   UNL     1     -40.269 -48.698  11.477  1.00  0.00     0.169 A 
HETATM    9  N   UNL     1     -39.483 -47.595  11.381  1.00  0.00    -0.345 N 
HETATM   10  C   UNL     1     -40.106 -46.422  11.138  1.00  0.00     0.090 A 
ATOM     11  HN  UNL     1     -38.471 -47.649  11.488  1.00  0.00     0.167 HD
HETATM   12  C   UNL     1     -41.473 -46.292  10.990  1.00  0.00     0.019 A 
HETATM   13  C   UNL     1     -42.259 -47.437  11.119  1.00  0.00     0.035 A 
BRANCH   8  14
HETATM   14  O   UNL     1     -39.640 -49.926  11.599  1.00  0.00    -0.339 OA
HETATM   15  C   UNL     1     -38.217 -49.762  11.589  1.00  0.00     0.211 C 
ENDBRANCH   8  14
ENDBRANCH   1   7
BRANCH   4  16
HETATM   16  C   UNL     1     -44.179 -51.886  14.078  1.00  0.00     0.178 C 
HETATM   17  C   UNL     1     -43.587 -53.110  14.798  1.00  0.00     0.036 C 
HETATM   18  C   UNL     1     -43.768 -54.410  14.034  1.00  0.00     0.022 C 
HETATM   19  C   UNL     1     -45.222 -54.607  13.655  1.00  0.00     0.122 C 
HETATM   20  N   UNL     1     -45.771 -53.423  13.034  1.00  0.00    -0.359 N 
HETATM   21  C   UNL     1     -45.587 -52.161  13.546  1.00  0.00     0.240 C 
HETATM   22  H   UNL     1     -46.492 -53.508  12.331  1.00  0.00     0.162 HD
HETATM   23  O   UNL     1     -46.383 -51.260  13.286  1.00  0.00    -0.271 OA
ENDBRANCH   4  16
TORSDOF 3
ENDMDL
MODEL 9
REMARK VINA RESULT:      -5.3      2.817      6.455
REMARK  3 active torsions:
REMARK  status: ('A' for Active; 'I' for Inactive)
REMARK    1  A    between atoms: O_2  and  C_3 
REMARK    2  A    between atoms: C_9  and  N_10 
REMARK       I    between atoms: N_10  and  C_11 
REMARK       I    between atoms: C_11  and  N_13 
REMARK    3  A    between atoms: N_13  and  C_14 
ROOT
HETATM    1  N   UNL     1     -41.412 -50.972  13.687  1.00  0.00    -0.305 N 
HETATM    2  C   UNL     1     -42.348 -51.727  13.004  1.00  0.00     0.321 C 
HETATM    3  O   UNL     1     -42.092 -52.432  12.032  1.00  0.00    -0.247 OA
HETATM    4  N   UNL     1     -43.624 -51.563  13.460  1.00  0.00    -0.330 N 
HETATM    5  H   UNL     1     -41.471 -51.002  14.697  1.00  0.00     0.171 HD
HETATM    6  H   UNL     1     -43.750 -51.116  14.359  1.00  0.00     0.165 HD
ENDROOT
BRANCH   1   7
HETATM    7  C   UNL     1     -40.104 -50.831  13.150  1.00  0.00     0.087 A 
HETATM    8  C   UNL     1     -39.004 -51.526  13.655  1.00  0.00     0.169 A 
HETATM    9  N   UNL     1     -37.734 -51.370  13.201  1.00  0.00    -0.345 N 
HETATM   10  C   UNL     1     -37.554 -50.514  12.173  1.00  0.00     0.090 A 
ATOM     11  HN  UNL     1     -36.952 -51.877  13.617  1.00  0.00     0.167 HD
HETATM   12  C   UNL     1     -38.576 -49.801  11.577  1.00  0.00     0.019 A 
HETATM   13  C   UNL     1     -39.867 -49.960  12.079  1.00  0.00     0.035 A 
BRANCH   8  14
HETATM   14  O   UNL     1     -39.228 -52.492  14.622  1.00  0.00    -0.339 OA
HETATM   15  C   UNL     1     -39.149 -53.802  14.046  1.00  0.00     0.211 C 
ENDBRANCH   8  14
ENDBRANCH   1   7
BRANCH   4  16
HETATM   16  C   UNL     1     -44.718 -52.449  13.008  1.00  0.00     0.178 C 
HETATM   17  C   UNL     1     -46.092 -51.773  12.859  1.00  0.00     0.036 C 
HETATM   18  C   UNL     1     -46.744 -51.425  14.185  1.00  0.00     0.022 C 
HETATM   19  C   UNL     1     -46.791 -52.639  15.091  1.00  0.00     0.122 C 
HETATM   20  N   UNL     1     -45.503 -53.289  15.168  1.00  0.00    -0.359 N 
HETATM   21  C   UNL     1     -44.740 -53.562  14.058  1.00  0.00     0.240 C 
HETATM   22  H   UNL     1     -45.226 -53.765  16.016  1.00  0.00     0.162 HD
HETATM   23  O   UNL     1     -43.905 -54.465  14.081  1.00  0.00    -0.271 OA
ENDBRANCH   4  16
TORSDOF 3
ENDMDL
