MODEL 1
REMARK VINA RESULT:      -6.9      0.000      0.000
REMARK  3 active torsions:
REMARK  status: ('A' for Active; 'I' for Inactive)
REMARK    1  A    between atoms: C_2  and  C_3 
REMARK    2  A    between atoms: C_9  and  N_10 
REMARK       I    between atoms: N_10  and  C_11 
REMARK       I    between atoms: C_11  and  N_13 
REMARK    3  A    between atoms: N_13  and  C_14 
ROOT
HETATM    1  N   UNL     1     -42.498 -48.563  10.290  1.00  0.00    -0.305 N 
HETATM    2  C   UNL     1     -42.472 -48.956  11.612  1.00  0.00     0.321 C 
HETATM    3  O   UNL     1     -42.873 -48.274  12.545  1.00  0.00    -0.247 OA
HETATM    4  N   UNL     1     -41.945 -50.221  11.763  1.00  0.00    -0.335 N 
HETATM    5  H   UNL     1     -41.706 -48.866   9.748  1.00  0.00     0.171 HD
HETATM    6  H   UNL     1     -41.372 -50.555  11.003  1.00  0.00     0.164 HD
ENDROOT
BRANCH   1   7
HETATM    7  C   UNL     1     -43.055 -47.348   9.902  1.00  0.00     0.092 A 
HETATM    8  C   UNL     1     -44.329 -46.989   9.369  1.00  0.00     0.061 A 
HETATM    9  N   UNL     1     -44.389 -45.669   9.128  1.00  0.00    -0.263 N 
HETATM   10  O   UNL     1     -43.176 -45.151   9.515  1.00  0.00    -0.240 OA
ATOM     11  HN  UNL     1     -45.176 -45.154   8.736  1.00  0.00     0.194 HD
HETATM   12  C   UNL     1     -42.377 -46.148   9.968  1.00  0.00     0.101 A 
HETATM   13  C   UNL     1     -41.071 -45.728  10.501  1.00  0.00     0.081 C 
BRANCH   8  14
HETATM   14  C   UNL     1     -45.506 -47.819   8.969  1.00  0.00     0.057 C 
HETATM   15  C   UNL     1     -46.829 -47.083   9.138  1.00  0.00     0.011 C 
ENDBRANCH   8  14
ENDBRANCH   1   7
BRANCH   4  16
HETATM   16  C   UNL     1     -41.735 -50.863  13.071  1.00  0.00     0.122 C 
HETATM   17  C   UNL     1     -40.500 -51.769  13.027  1.00  0.00     0.065 C 
HETATM   18  C   UNL     1     -40.857 -53.036  13.806  1.00  0.00     0.057 C 
HETATM   19  C   UNL     1     -40.824 -54.289  12.924  1.00  0.00     0.045 C 
HETATM   20  C   UNL     1     -39.938 -53.267  15.008  1.00  0.00     0.045 C 
HETATM   21  O   UNL     1     -42.189 -52.868  14.299  1.00  0.00    -0.369 OA
HETATM   22  C   UNL     1     -42.855 -51.785  13.608  1.00  0.00     0.075 C 
HETATM   23  C   UNL     1     -43.731 -51.113  14.667  1.00  0.00     0.048 C 
HETATM   24  C   UNL     1     -43.727 -52.420  12.513  1.00  0.00     0.048 C 
ENDBRANCH   4  16
TORSDOF 3
ENDMDL
MODEL 2
REMARK VINA RESULT:      -6.7      2.175      2.700
REMARK  3 active torsions:
REMARK  status: ('A' for Active; 'I' for Inactive)
REMARK    1  A    between atoms: C_2  and  C_3 
REMARK    2  A    between atoms: C_9  and  N_10 
REMARK       I    between atoms: N_10  and  C_11 
REMARK       I    between atoms: C_11  and  N_13 
REMARK    3  A    between atoms: N_13  and  C_14 
ROOT
HETATM    1  N   UNL     1     -42.166 -49.566  11.405  1.00  0.00    -0.305 N 
HETATM    2  C   UNL     1     -42.872 -49.719  12.580  1.00  0.00     0.321 C 
HETATM    3  O   UNL     1     -43.186 -48.800  13.322  1.00  0.00    -0.247 OA
HETATM    4  N   UNL     1     -43.193 -51.038  12.820  1.00  0.00    -0.335 N 
HETATM    5  H   UNL     1     -41.511 -50.307  11.212  1.00  0.00     0.171 HD
HETATM    6  H   UNL     1     -42.634 -51.724  12.337  1.00  0.00     0.164 HD
ENDROOT
BRANCH   1   7
HETATM    7  C   UNL     1     -41.800 -48.309  10.932  1.00  0.00     0.092 A 
HETATM    8  C   UNL     1     -42.442 -47.371  10.071  1.00  0.00     0.061 A 
HETATM    9  N   UNL     1     -41.669 -46.287   9.888  1.00  0.00    -0.263 N 
HETATM   10  O   UNL     1     -40.535 -46.492  10.636  1.00  0.00    -0.240 OA
ATOM     11  HN  UNL     1     -41.882 -45.475   9.310  1.00  0.00     0.194 HD
HETATM   12  C   UNL     1     -40.605 -47.698  11.252  1.00  0.00     0.101 A 
HETATM   13  C   UNL     1     -39.492 -48.017  12.160  1.00  0.00     0.081 C 
BRANCH   8  14
HETATM   14  C   UNL     1     -43.724 -47.443   9.307  1.00  0.00     0.057 C 
HETATM   15  C   UNL     1     -43.515 -47.788   7.838  1.00  0.00     0.011 C 
ENDBRANCH   8  14
ENDBRANCH   1   7
BRANCH   4  16
HETATM   16  C   UNL     1     -43.883 -51.497  14.037  1.00  0.00     0.122 C 
HETATM   17  C   UNL     1     -42.989 -52.460  14.825  1.00  0.00     0.065 C 
HETATM   18  C   UNL     1     -43.895 -53.585  15.331  1.00  0.00     0.057 C 
HETATM   19  C   UNL     1     -43.500 -54.950  14.757  1.00  0.00     0.045 C 
HETATM   20  C   UNL     1     -43.908 -53.688  16.858  1.00  0.00     0.045 C 
HETATM   21  O   UNL     1     -45.224 -53.284  14.901  1.00  0.00    -0.369 OA
HETATM   22  C   UNL     1     -45.208 -52.278  13.860  1.00  0.00     0.075 C 
HETATM   23  C   UNL     1     -46.449 -51.421  14.112  1.00  0.00     0.048 C 
HETATM   24  C   UNL     1     -45.328 -53.018  12.518  1.00  0.00     0.048 C 
ENDBRANCH   4  16
TORSDOF 3
ENDMDL
MODEL 3
REMARK VINA RESULT:      -6.5      3.366      6.477
REMARK  3 active torsions:
REMARK  status: ('A' for Active; 'I' for Inactive)
REMARK    1  A    between atoms: C_2  and  C_3 
REMARK    2  A    between atoms: C_9  and  N_10 
REMARK       I    between atoms: N_10  and  C_11 
REMARK       I    between atoms: C_11  and  N_13 
REMARK    3  A    between atoms: N_13  and  C_14 
ROOT
HETATM    1  N   UNL     1     -43.377 -52.124  14.268  1.00  0.00    -0.305 N 
HETATM    2  C   UNL     1     -42.654 -51.875  13.120  1.00  0.00     0.321 C 
HETATM    3  O   UNL     1     -42.781 -52.495  12.074  1.00  0.00    -0.247 OA
HETATM    4  N   UNL     1     -41.768 -50.832  13.287  1.00  0.00    -0.335 N 
HETATM    5  H   UNL     1     -42.857 -52.013  15.123  1.00  0.00     0.171 HD
HETATM    6  H   UNL     1     -41.520 -50.609  14.238  1.00  0.00     0.164 HD
ENDROOT
BRANCH   1   7
HETATM    7  C   UNL     1     -44.379 -53.090  14.303  1.00  0.00     0.092 A 
HETATM    8  C   UNL     1     -45.773 -53.055  14.000  1.00  0.00     0.061 A 
HETATM    9  N   UNL     1     -46.336 -54.256  14.212  1.00  0.00    -0.263 N 
HETATM   10  O   UNL     1     -45.324 -55.087  14.630  1.00  0.00    -0.240 OA
ATOM     11  HN  UNL     1     -47.317 -54.503  14.088  1.00  0.00     0.194 HD
HETATM   12  C   UNL     1     -44.161 -54.395  14.693  1.00  0.00     0.101 A 
HETATM   13  C   UNL     1     -42.967 -55.181  15.046  1.00  0.00     0.081 C 
BRANCH   8  14
HETATM   14  C   UNL     1     -46.673 -51.931  13.601  1.00  0.00     0.057 C 
HETATM   15  C   UNL     1     -46.697 -51.702  12.095  1.00  0.00     0.011 C 
ENDBRANCH   8  14
ENDBRANCH   1   7
BRANCH   4  16
HETATM   16  C   UNL     1     -40.821 -50.398  12.247  1.00  0.00     0.122 C 
HETATM   17  C   UNL     1     -39.393 -50.807  12.622  1.00  0.00     0.065 C 
HETATM   18  C   UNL     1     -38.487 -49.633  12.249  1.00  0.00     0.057 C 
HETATM   19  C   UNL     1     -37.784 -49.030  13.470  1.00  0.00     0.045 C 
HETATM   20  C   UNL     1     -37.421 -50.015  11.219  1.00  0.00     0.045 C 
HETATM   21  O   UNL     1     -39.318 -48.626  11.666  1.00  0.00    -0.369 OA
HETATM   22  C   UNL     1     -40.711 -48.880  11.963  1.00  0.00     0.075 C 
HETATM   23  C   UNL     1     -41.473 -48.446  10.710  1.00  0.00     0.048 C 
HETATM   24  C   UNL     1     -41.086 -47.988  13.157  1.00  0.00     0.048 C 
ENDBRANCH   4  16
TORSDOF 3
ENDMDL
MODEL 4
REMARK VINA RESULT:      -5.9      0.735      2.374
REMARK  3 active torsions:
REMARK  status: ('A' for Active; 'I' for Inactive)
REMARK    1  A    between atoms: C_2  and  C_3 
REMARK    2  A    between atoms: C_9  and  N_10 
REMARK       I    between atoms: N_10  and  C_11 
REMARK       I    between atoms: C_11  and  N_13 
REMARK    3  A    between atoms: N_13  and  C_14 
ROOT
HETATM    1  N   UNL     1     -42.689 -48.521  10.537  1.00  0.00    -0.305 N 
HETATM    2  C   UNL     1     -42.724 -48.937  11.852  1.00  0.00     0.321 C 
HETATM    3  O   UNL     1     -43.053 -48.228  12.792  1.00  0.00    -0.247 OA
HETATM    4  N   UNL     1     -42.350 -50.257  11.985  1.00  0.00    -0.335 N 
HETATM    5  H   UNL     1     -41.930 -48.906   9.997  1.00  0.00     0.171 HD
HETATM    6  H   UNL     1     -41.811 -50.643  11.225  1.00  0.00     0.164 HD
ENDROOT
BRANCH   1   7
HETATM    7  C   UNL     1     -43.095 -47.243  10.165  1.00  0.00     0.092 A 
HETATM    8  C   UNL     1     -42.558 -45.944  10.409  1.00  0.00     0.061 A 
HETATM    9  N   UNL     1     -43.332 -44.997   9.852  1.00  0.00    -0.263 N 
HETATM   10  O   UNL     1     -44.359 -45.660   9.225  1.00  0.00    -0.240 OA
ATOM     11  HN  UNL     1     -43.186 -43.989   9.886  1.00  0.00     0.194 HD
HETATM   12  C   UNL     1     -44.226 -46.995   9.416  1.00  0.00     0.101 A 
HETATM   13  C   UNL     1     -45.214 -47.841   8.725  1.00  0.00     0.081 C 
BRANCH   8  14
HETATM   14  C   UNL     1     -41.391 -45.490  11.224  1.00  0.00     0.057 C 
HETATM   15  C   UNL     1     -40.190 -45.107  10.370  1.00  0.00     0.011 C 
ENDBRANCH   8  14
ENDBRANCH   1   7
BRANCH   4  16
HETATM   16  C   UNL     1     -42.231 -50.940  13.283  1.00  0.00     0.122 C 
HETATM   17  C   UNL     1     -40.855 -51.603  13.412  1.00  0.00     0.065 C 
HETATM   18  C   UNL     1     -41.084 -52.965  14.070  1.00  0.00     0.057 C 
HETATM   19  C   UNL     1     -40.674 -54.126  13.157  1.00  0.00     0.045 C 
HETATM   20  C   UNL     1     -40.339 -53.110  15.399  1.00  0.00     0.045 C 
HETATM   21  O   UNL     1     -42.484 -53.076  14.337  1.00  0.00    -0.369 OA
HETATM   22  C   UNL     1     -43.226 -52.086  13.587  1.00  0.00     0.075 C 
HETATM   23  C   UNL     1     -44.370 -51.659  14.509  1.00  0.00     0.048 C 
HETATM   24  C   UNL     1     -43.777 -52.788  12.336  1.00  0.00     0.048 C 
ENDBRANCH   4  16
TORSDOF 3
ENDMDL
MODEL 5
REMARK VINA RESULT:      -5.9      3.153      6.376
REMARK  3 active torsions:
REMARK  status: ('A' for Active; 'I' for Inactive)
REMARK    1  A    between atoms: C_2  and  C_3 
REMARK    2  A    between atoms: C_9  and  N_10 
REMARK       I    between atoms: N_10  and  C_11 
REMARK       I    between atoms: C_11  and  N_13 
REMARK    3  A    between atoms: N_13  and  C_14 
ROOT
HETATM    1  N   UNL     1     -43.301 -51.653  12.408  1.00  0.00    -0.305 N 
HETATM    2  C   UNL     1     -42.796 -50.653  13.214  1.00  0.00     0.321 C 
HETATM    3  O   UNL     1     -43.151 -50.448  14.365  1.00  0.00    -0.247 OA
HETATM    4  N   UNL     1     -41.831 -49.910  12.568  1.00  0.00    -0.335 N 
HETATM    5  H   UNL     1     -43.400 -51.399  11.439  1.00  0.00     0.171 HD
HETATM    6  H   UNL     1     -41.841 -49.951  11.560  1.00  0.00     0.164 HD
ENDROOT
BRANCH   1   7
HETATM    7  C   UNL     1     -44.237 -52.568  12.882  1.00  0.00     0.092 A 
HETATM    8  C   UNL     1     -45.663 -52.570  12.911  1.00  0.00     0.061 A 
HETATM    9  N   UNL     1     -46.125 -53.686  13.501  1.00  0.00    -0.263 N 
HETATM   10  O   UNL     1     -45.019 -54.427  13.841  1.00  0.00    -0.240 OA
ATOM     11  HN  UNL     1     -47.100 -53.933  13.664  1.00  0.00     0.194 HD
HETATM   12  C   UNL     1     -43.894 -53.762  13.482  1.00  0.00     0.101 A 
HETATM   13  C   UNL     1     -42.628 -54.478  13.708  1.00  0.00     0.081 C 
BRANCH   8  14
HETATM   14  C   UNL     1     -46.665 -51.541  12.500  1.00  0.00     0.057 C 
HETATM   15  C   UNL     1     -47.279 -51.829  11.136  1.00  0.00     0.011 C 
ENDBRANCH   8  14
ENDBRANCH   1   7
BRANCH   4  16
HETATM   16  C   UNL     1     -41.174 -48.737  13.166  1.00  0.00     0.122 C 
HETATM   17  C   UNL     1     -41.691 -47.448  12.518  1.00  0.00     0.065 C 
HETATM   18  C   UNL     1     -40.479 -46.534  12.331  1.00  0.00     0.057 C 
HETATM   19  C   UNL     1     -40.208 -46.225  10.854  1.00  0.00     0.045 C 
HETATM   20  C   UNL     1     -40.619 -45.209  13.084  1.00  0.00     0.045 C 
HETATM   21  O   UNL     1     -39.344 -47.222  12.861  1.00  0.00    -0.369 OA
HETATM   22  C   UNL     1     -39.635 -48.629  13.034  1.00  0.00     0.075 C 
HETATM   23  C   UNL     1     -38.893 -49.039  14.307  1.00  0.00     0.048 C 
HETATM   24  C   UNL     1     -39.056 -49.362  11.814  1.00  0.00     0.048 C 
ENDBRANCH   4  16
TORSDOF 3
ENDMDL
MODEL 6
REMARK VINA RESULT:      -5.9      4.260      6.180
REMARK  3 active torsions:
REMARK  status: ('A' for Active; 'I' for Inactive)
REMARK    1  A    between atoms: C_2  and  C_3 
REMARK    2  A    between atoms: C_9  and  N_10 
REMARK       I    between atoms: N_10  and  C_11 
REMARK       I    between atoms: C_11  and  N_13 
REMARK    3  A    between atoms: N_13  and  C_14 
ROOT
HETATM    1  N   UNL     1     -43.506 -52.667  13.047  1.00  0.00    -0.305 N 
HETATM    2  C   UNL     1     -42.668 -51.989  13.907  1.00  0.00     0.321 C 
HETATM    3  O   UNL     1     -42.929 -51.744  15.077  1.00  0.00    -0.247 OA
HETATM    4  N   UNL     1     -41.488 -51.622  13.295  1.00  0.00    -0.335 N 
HETATM    5  H   UNL     1     -43.494 -52.329  12.098  1.00  0.00     0.171 HD
HETATM    6  H   UNL     1     -41.505 -51.588  12.288  1.00  0.00     0.164 HD
ENDROOT
BRANCH   1   7
HETATM    7  C   UNL     1     -44.723 -53.191  13.475  1.00  0.00     0.092 A 
HETATM    8  C   UNL     1     -46.073 -52.758  13.323  1.00  0.00     0.061 A 
HETATM    9  N   UNL     1     -46.915 -53.601  13.944  1.00  0.00    -0.263 N 
HETATM   10  O   UNL     1     -46.135 -54.595  14.485  1.00  0.00    -0.240 OA
ATOM     11  HN  UNL     1     -47.930 -53.520  14.003  1.00  0.00     0.194 HD
HETATM   12  C   UNL     1     -44.830 -54.350  14.214  1.00  0.00     0.101 A 
HETATM   13  C   UNL     1     -43.880 -55.383  14.660  1.00  0.00     0.081 C 
BRANCH   8  14
HETATM   14  C   UNL     1     -46.658 -51.532  12.701  1.00  0.00     0.057 C 
HETATM   15  C   UNL     1     -47.193 -51.782  11.297  1.00  0.00     0.011 C 
ENDBRANCH   8  14
ENDBRANCH   1   7
BRANCH   4  16
HETATM   16  C   UNL     1     -40.442 -50.827  13.959  1.00  0.00     0.122 C 
HETATM   17  C   UNL     1     -39.690 -49.974  12.932  1.00  0.00     0.065 C 
HETATM   18  C   UNL     1     -38.210 -50.031  13.314  1.00  0.00     0.057 C 
HETATM   19  C   UNL     1     -37.353 -50.677  12.220  1.00  0.00     0.045 C 
HETATM   20  C   UNL     1     -37.630 -48.650  13.629  1.00  0.00     0.045 C 
HETATM   21  O   UNL     1     -38.108 -50.829  14.495  1.00  0.00    -0.369 OA
HETATM   22  C   UNL     1     -39.320 -51.593  14.701  1.00  0.00     0.075 C 
HETATM   23  C   UNL     1     -39.518 -51.630  16.217  1.00  0.00     0.048 C 
HETATM   24  C   UNL     1     -39.058 -53.007  14.158  1.00  0.00     0.048 C 
ENDBRANCH   4  16
TORSDOF 3
ENDMDL
MODEL 7
REMARK VINA RESULT:      -5.8      1.783      2.818
REMARK  3 active torsions:
REMARK  status: ('A' for Active; 'I' for Inactive)
REMARK    1  A    between atoms: C_2  and  C_3 
REMARK    2  A    between atoms: C_9  and  N_10 
REMARK       I    between atoms: N_10  and  C_11 
REMARK       I    between atoms: C_11  and  N_13 
REMARK    3  A    between atoms: N_13  and  C_14 
ROOT
HETATM    1  N   UNL     1     -41.854 -48.023   9.611  1.00  0.00    -0.305 N 
HETATM    2  C   UNL     1     -41.620 -48.673  10.806  1.00  0.00     0.321 C 
HETATM    3  O   UNL     1     -42.122 -48.357  11.875  1.00  0.00    -0.247 OA
HETATM    4  N   UNL     1     -40.754 -49.735  10.653  1.00  0.00    -0.335 N 
HETATM    5  H   UNL     1     -41.051 -47.959   9.006  1.00  0.00     0.171 HD
HETATM    6  H   UNL     1     -40.170 -49.715   9.832  1.00  0.00     0.164 HD
ENDROOT
BRANCH   1   7
HETATM    7  C   UNL     1     -42.752 -46.964   9.521  1.00  0.00     0.092 A 
HETATM    8  C   UNL     1     -44.099 -46.870   9.060  1.00  0.00     0.061 A 
HETATM    9  N   UNL     1     -44.546 -45.606   9.151  1.00  0.00    -0.263 N 
HETATM   10  O   UNL     1     -43.516 -44.872   9.687  1.00  0.00    -0.240 OA
ATOM     11  HN  UNL     1     -45.465 -45.261   8.878  1.00  0.00     0.194 HD
HETATM   12  C   UNL     1     -42.444 -45.674   9.901  1.00  0.00     0.101 A 
HETATM   13  C   UNL     1     -41.289 -45.038  10.555  1.00  0.00     0.081 C 
BRANCH   8  14
HETATM   14  C   UNL     1     -45.006 -47.880   8.436  1.00  0.00     0.057 C 
HETATM   15  C   UNL     1     -46.424 -47.821   8.991  1.00  0.00     0.011 C 
ENDBRANCH   8  14
ENDBRANCH   1   7
BRANCH   4  16
HETATM   16  C   UNL     1     -40.276 -50.560  11.774  1.00  0.00     0.122 C 
HETATM   17  C   UNL     1     -41.373 -50.705  12.834  1.00  0.00     0.065 C 
HETATM   18  C   UNL     1     -40.687 -50.586  14.196  1.00  0.00     0.057 C 
HETATM   19  C   UNL     1     -41.185 -49.375  14.993  1.00  0.00     0.045 C 
HETATM   20  C   UNL     1     -40.866 -51.838  15.057  1.00  0.00     0.045 C 
HETATM   21  O   UNL     1     -39.288 -50.418  13.952  1.00  0.00    -0.369 OA
HETATM   22  C   UNL     1     -39.052 -50.049  12.573  1.00  0.00     0.075 C 
HETATM   23  C   UNL     1     -37.748 -50.749  12.188  1.00  0.00     0.048 C 
HETATM   24  C   UNL     1     -38.873 -48.523  12.540  1.00  0.00     0.048 C 
ENDBRANCH   4  16
TORSDOF 3
ENDMDL
MODEL 8
REMARK VINA RESULT:      -5.8      3.293      6.854
REMARK  3 active torsions:
REMARK  status: ('A' for Active; 'I' for Inactive)
REMARK    1  A    between atoms: C_2  and  C_3 
REMARK    2  A    between atoms: C_9  and  N_10 
REMARK       I    between atoms: N_10  and  C_11 
REMARK       I    between atoms: C_11  and  N_13 
REMARK    3  A    between atoms: N_13  and  C_14 
ROOT
HETATM    1  N   UNL     1     -43.476 -51.774  14.226  1.00  0.00    -0.305 N 
HETATM    2  C   UNL     1     -42.683 -51.619  13.107  1.00  0.00     0.321 C 
HETATM    3  O   UNL     1     -42.682 -52.379  12.149  1.00  0.00    -0.247 OA
HETATM    4  N   UNL     1     -41.889 -50.495  13.191  1.00  0.00    -0.335 N 
HETATM    5  H   UNL     1     -43.034 -51.510  15.091  1.00  0.00     0.171 HD
HETATM    6  H   UNL     1     -41.734 -50.131  14.118  1.00  0.00     0.164 HD
ENDROOT
BRANCH   1   7
HETATM    7  C   UNL     1     -44.406 -52.805  14.323  1.00  0.00     0.092 A 
HETATM    8  C   UNL     1     -44.285 -54.199  14.598  1.00  0.00     0.061 A 
HETATM    9  N   UNL     1     -45.488 -54.797  14.562  1.00  0.00    -0.263 N 
HETATM   10  O   UNL     1     -46.401 -53.808  14.287  1.00  0.00    -0.240 OA
ATOM     11  HN  UNL     1     -45.684 -55.787  14.709  1.00  0.00     0.194 HD
HETATM   12  C   UNL     1     -45.761 -52.623  14.136  1.00  0.00     0.101 A 
HETATM   13  C   UNL     1     -46.626 -51.452  13.922  1.00  0.00     0.081 C 
BRANCH   8  14
HETATM   14  C   UNL     1     -43.088 -55.067  14.812  1.00  0.00     0.057 C 
HETATM   15  C   UNL     1     -42.557 -54.997  16.238  1.00  0.00     0.011 C 
ENDBRANCH   8  14
ENDBRANCH   1   7
BRANCH   4  16
HETATM   16  C   UNL     1     -40.895 -50.126  12.169  1.00  0.00     0.122 C 
HETATM   17  C   UNL     1     -39.499 -50.594  12.591  1.00  0.00     0.065 C 
HETATM   18  C   UNL     1     -38.529 -49.470  12.221  1.00  0.00     0.057 C 
HETATM   19  C   UNL     1     -37.831 -48.878  13.450  1.00  0.00     0.045 C 
HETATM   20  C   UNL     1     -37.456 -49.922  11.228  1.00  0.00     0.045 C 
HETATM   21  O   UNL     1     -39.296 -48.437  11.598  1.00  0.00    -0.369 OA
HETATM   22  C   UNL     1     -40.707 -48.621  11.861  1.00  0.00     0.075 C 
HETATM   23  C   UNL     1     -41.414 -48.176  10.580  1.00  0.00     0.048 C 
HETATM   24  C   UNL     1     -41.071 -47.689  13.028  1.00  0.00     0.048 C 
ENDBRANCH   4  16
TORSDOF 3
ENDMDL
MODEL 9
REMARK VINA RESULT:      -5.8      1.688      2.872
REMARK  3 active torsions:
REMARK  status: ('A' for Active; 'I' for Inactive)
REMARK    1  A    between atoms: C_2  and  C_3 
REMARK    2  A    between atoms: C_9  and  N_10 
REMARK       I    between atoms: N_10  and  C_11 
REMARK       I    between atoms: C_11  and  N_13 
REMARK    3  A    between atoms: N_13  and  C_14 
ROOT
HETATM    1  N   UNL     1     -43.165 -48.248  11.255  1.00  0.00    -0.305 N 
HETATM    2  C   UNL     1     -42.017 -48.995  11.421  1.00  0.00     0.321 C 
HETATM    3  O   UNL     1     -40.896 -48.617  11.111  1.00  0.00    -0.247 OA
HETATM    4  N   UNL     1     -42.279 -50.224  11.987  1.00  0.00    -0.335 N 
HETATM    5  H   UNL     1     -43.977 -48.783  10.991  1.00  0.00     0.171 HD
HETATM    6  H   UNL     1     -43.229 -50.553  11.910  1.00  0.00     0.164 HD
ENDROOT
BRANCH   1   7
HETATM    7  C   UNL     1     -43.124 -46.947  10.764  1.00  0.00     0.092 A 
HETATM    8  C   UNL     1     -42.754 -45.700  11.350  1.00  0.00     0.061 A 
HETATM    9  N   UNL     1     -42.905 -44.697  10.468  1.00  0.00    -0.263 N 
HETATM   10  O   UNL     1     -43.349 -45.273   9.302  1.00  0.00    -0.240 OA
ATOM     11  HN  UNL     1     -42.725 -43.707  10.630  1.00  0.00     0.194 HD
HETATM   12  C   UNL     1     -43.489 -46.610   9.477  1.00  0.00     0.101 A 
HETATM   13  C   UNL     1     -43.878 -47.374   8.281  1.00  0.00     0.081 C 
BRANCH   8  14
HETATM   14  C   UNL     1     -42.342 -45.340  12.740  1.00  0.00     0.057 C 
HETATM   15  C   UNL     1     -43.289 -45.895  13.797  1.00  0.00     0.011 C 
ENDBRANCH   8  14
ENDBRANCH   1   7
BRANCH   4  16
HETATM   16  C   UNL     1     -41.248 -51.251  12.213  1.00  0.00     0.122 C 
HETATM   17  C   UNL     1     -41.895 -52.632  12.358  1.00  0.00     0.065 C 
HETATM   18  C   UNL     1     -41.151 -53.349  13.486  1.00  0.00     0.057 C 
HETATM   19  C   UNL     1     -42.068 -53.675  14.671  1.00  0.00     0.045 C 
HETATM   20  C   UNL     1     -40.484 -54.645  13.021  1.00  0.00     0.045 C 
HETATM   21  O   UNL     1     -40.124 -52.466  13.943  1.00  0.00    -0.369 OA
HETATM   22  C   UNL     1     -40.365 -51.117  13.477  1.00  0.00     0.075 C 
HETATM   23  C   UNL     1     -38.980 -50.540  13.185  1.00  0.00     0.048 C 
HETATM   24  C   UNL     1     -41.033 -50.355  14.633  1.00  0.00     0.048 C 
ENDBRANCH   4  16
TORSDOF 3
ENDMDL
