MODEL 1
REMARK VINA RESULT:      -6.5      0.000      0.000
REMARK  7 active torsions:
REMARK  status: ('A' for Active; 'I' for Inactive)
REMARK    1  A    between atoms: N_5  and  C_6 
REMARK    2  A    between atoms: C_6  and  C_7 
REMARK    3  A    between atoms: C_7  and  O_8 
REMARK    4  A    between atoms: C_7  and  C_9 
REMARK    5  A    between atoms: C_9  and  O_10 
REMARK    6  A    between atoms: O_10  and  C_11 
REMARK    7  A    between atoms: C_11  and  C_12 
ROOT
HETATM    1  C   UNL     1     -41.205 -52.123  11.720  1.00  0.00     0.168 C 
ENDROOT
BRANCH   1   2
HETATM    2  N   UNL     1     -40.965 -52.828  12.957  1.00  0.00    -0.295 N 
HETATM    3  C   UNL     1     -39.735 -52.854  13.647  1.00  0.00     0.329 A 
HETATM    4  N   UNL     1     -39.925 -53.703  14.758  1.00  0.00    -0.302 N 
HETATM    5  O   UNL     1     -38.715 -52.264  13.323  1.00  0.00    -0.246 OA
HETATM    6  C   UNL     1     -38.924 -54.062  15.720  1.00  0.00     0.161 C 
HETATM    7  C   UNL     1     -41.247 -54.163  14.757  1.00  0.00     0.065 A 
HETATM    8  C   UNL     1     -41.895 -53.617  13.648  1.00  0.00     0.066 A 
HETATM    9  C   UNL     1     -41.897 -55.009  15.637  1.00  0.00     0.032 A 
HETATM   10  C   UNL     1     -43.218 -53.887  13.372  1.00  0.00     0.032 A 
HETATM   11  C   UNL     1     -43.894 -54.738  14.254  1.00  0.00     0.002 A 
HETATM   12  C   UNL     1     -43.241 -55.293  15.374  1.00  0.00     0.002 A 
ENDBRANCH   1   2
BRANCH   1  13
HETATM   13  C   UNL     1     -40.726 -50.659  11.750  1.00  0.00     0.160 C 
BRANCH  13  14
HETATM   14  O   UNL     1     -40.162 -50.245  10.500  1.00  0.00    -0.392 OA
HETATM   15  H   UNL     1     -40.403 -50.898   9.817  1.00  0.00     0.210 HD
ENDBRANCH  13  14
BRANCH  13  16
HETATM   16  C   UNL     1     -41.890 -49.719  12.087  1.00  0.00     0.201 C 
BRANCH  16  17
HETATM   17  O   UNL     1     -42.943 -50.467  12.682  1.00  0.00    -0.384 OA
BRANCH  17  18
HETATM   18  C   UNL     1     -43.178 -50.090  14.036  1.00  0.00     0.206 C 
BRANCH  18  19
HETATM   19  C   UNL     1     -44.507 -50.668  14.442  1.00  0.00    -0.035 A 
HETATM   20  C   UNL     1     -45.412 -51.134  13.480  1.00  0.00     0.009 A 
HETATM   21  C   UNL     1     -46.655 -51.643  13.865  1.00  0.00     0.001 A 
HETATM   22  C   UNL     1     -47.002 -51.693  15.215  1.00  0.00     0.000 A 
HETATM   23  C   UNL     1     -46.106 -51.244  16.181  1.00  0.00     0.001 A 
HETATM   24  C   UNL     1     -44.863 -50.738  15.798  1.00  0.00     0.009 A 
ENDBRANCH  18  19
ENDBRANCH  17  18
ENDBRANCH  16  17
ENDBRANCH  13  16
ENDBRANCH   1  13
TORSDOF 7
ENDMDL
MODEL 2
REMARK VINA RESULT:      -6.4      1.302      1.744
REMARK  7 active torsions:
REMARK  status: ('A' for Active; 'I' for Inactive)
REMARK    1  A    between atoms: N_5  and  C_6 
REMARK    2  A    between atoms: C_6  and  C_7 
REMARK    3  A    between atoms: C_7  and  O_8 
REMARK    4  A    between atoms: C_7  and  C_9 
REMARK    5  A    between atoms: C_9  and  O_10 
REMARK    6  A    between atoms: O_10  and  C_11 
REMARK    7  A    between atoms: C_11  and  C_12 
ROOT
HETATM    1  C   UNL     1     -40.645 -53.184  12.488  1.00  0.00     0.168 C 
ENDROOT
BRANCH   1   2
HETATM    2  N   UNL     1     -41.411 -53.781  13.555  1.00  0.00    -0.295 N 
HETATM    3  C   UNL     1     -40.888 -54.176  14.804  1.00  0.00     0.329 A 
HETATM    4  N   UNL     1     -41.958 -54.763  15.513  1.00  0.00    -0.302 N 
HETATM    5  O   UNL     1     -39.731 -54.043  15.174  1.00  0.00    -0.246 OA
HETATM    6  C   UNL     1     -41.878 -55.350  16.818  1.00  0.00     0.161 C 
HETATM    7  C   UNL     1     -43.112 -54.703  14.722  1.00  0.00     0.065 A 
HETATM    8  C   UNL     1     -42.778 -54.089  13.514  1.00  0.00     0.066 A 
HETATM    9  C   UNL     1     -44.395 -55.144  14.985  1.00  0.00     0.032 A 
HETATM   10  C   UNL     1     -43.711 -53.885  12.519  1.00  0.00     0.032 A 
HETATM   11  C   UNL     1     -45.017 -54.321  12.769  1.00  0.00     0.002 A 
HETATM   12  C   UNL     1     -45.356 -54.944  13.988  1.00  0.00     0.002 A 
ENDBRANCH   1   2
BRANCH   1  13
HETATM   13  C   UNL     1     -40.338 -51.692  12.716  1.00  0.00     0.160 C 
BRANCH  13  14
HETATM   14  O   UNL     1     -39.198 -51.249  11.971  1.00  0.00    -0.392 OA
HETATM   15  H   UNL     1     -39.447 -51.184  11.030  1.00  0.00     0.210 HD
ENDBRANCH  13  14
BRANCH  13  16
HETATM   16  C   UNL     1     -41.540 -50.828  12.314  1.00  0.00     0.201 C 
BRANCH  16  17
HETATM   17  O   UNL     1     -42.341 -50.570  13.462  1.00  0.00    -0.384 OA
BRANCH  17  18
HETATM   18  C   UNL     1     -43.667 -50.176  13.120  1.00  0.00     0.206 C 
BRANCH  18  19
HETATM   19  C   UNL     1     -44.598 -50.812  14.119  1.00  0.00    -0.035 A 
HETATM   20  C   UNL     1     -45.932 -51.081  13.788  1.00  0.00     0.009 A 
HETATM   21  C   UNL     1     -46.794 -51.644  14.732  1.00  0.00     0.001 A 
HETATM   22  C   UNL     1     -46.330 -51.946  16.012  1.00  0.00     0.000 A 
HETATM   23  C   UNL     1     -45.003 -51.694  16.348  1.00  0.00     0.001 A 
HETATM   24  C   UNL     1     -44.140 -51.133  15.406  1.00  0.00     0.009 A 
ENDBRANCH  18  19
ENDBRANCH  17  18
ENDBRANCH  16  17
ENDBRANCH  13  16
ENDBRANCH   1  13
TORSDOF 7
ENDMDL
MODEL 3
REMARK VINA RESULT:      -6.1      3.276      6.466
REMARK  7 active torsions:
REMARK  status: ('A' for Active; 'I' for Inactive)
REMARK    1  A    between atoms: N_5  and  C_6 
REMARK    2  A    between atoms: C_6  and  C_7 
REMARK    3  A    between atoms: C_7  and  O_8 
REMARK    4  A    between atoms: C_7  and  C_9 
REMARK    5  A    between atoms: C_9  and  O_10 
REMARK    6  A    between atoms: O_10  and  C_11 
REMARK    7  A    between atoms: C_11  and  C_12 
ROOT
HETATM    1  C   UNL     1     -41.816 -49.269  12.191  1.00  0.00     0.168 C 
ENDROOT
BRANCH   1   2
HETATM    2  N   UNL     1     -41.722 -48.049  11.426  1.00  0.00    -0.295 N 
HETATM    3  C   UNL     1     -40.595 -47.201  11.391  1.00  0.00     0.329 A 
HETATM    4  N   UNL     1     -40.952 -46.104  10.579  1.00  0.00    -0.302 N 
HETATM    5  O   UNL     1     -39.535 -47.389  11.970  1.00  0.00    -0.246 OA
HETATM    6  C   UNL     1     -40.128 -44.965  10.297  1.00  0.00     0.161 C 
HETATM    7  C   UNL     1     -42.258 -46.293  10.110  1.00  0.00     0.065 A 
HETATM    8  C   UNL     1     -42.734 -47.499  10.627  1.00  0.00     0.066 A 
HETATM    9  C   UNL     1     -43.034 -45.496   9.290  1.00  0.00     0.032 A 
HETATM   10  C   UNL     1     -44.000 -47.964  10.343  1.00  0.00     0.032 A 
HETATM   11  C   UNL     1     -44.799 -47.172   9.509  1.00  0.00     0.002 A 
HETATM   12  C   UNL     1     -44.322 -45.952   8.990  1.00  0.00     0.002 A 
ENDBRANCH   1   2
BRANCH   1  13
HETATM   13  C   UNL     1     -41.014 -50.436  11.582  1.00  0.00     0.160 C 
BRANCH  13  14
HETATM   14  O   UNL     1     -40.364 -50.070  10.359  1.00  0.00    -0.392 OA
HETATM   15  H   UNL     1     -40.770 -50.574   9.629  1.00  0.00     0.210 HD
ENDBRANCH  13  14
BRANCH  13  16
HETATM   16  C   UNL     1     -39.944 -50.924  12.567  1.00  0.00     0.201 C 
BRANCH  16  17
HETATM   17  O   UNL     1     -40.335 -52.182  13.103  1.00  0.00    -0.384 OA
BRANCH  17  18
HETATM   18  C   UNL     1     -41.144 -52.930  12.197  1.00  0.00     0.206 C 
BRANCH  18  19
HETATM   19  C   UNL     1     -42.216 -53.611  13.006  1.00  0.00    -0.035 A 
HETATM   20  C   UNL     1     -41.900 -54.289  14.191  1.00  0.00     0.009 A 
HETATM   21  C   UNL     1     -42.898 -54.942  14.918  1.00  0.00     0.001 A 
HETATM   22  C   UNL     1     -44.219 -54.920  14.471  1.00  0.00     0.000 A 
HETATM   23  C   UNL     1     -44.545 -54.239  13.301  1.00  0.00     0.001 A 
HETATM   24  C   UNL     1     -43.550 -53.584  12.574  1.00  0.00     0.009 A 
ENDBRANCH  18  19
ENDBRANCH  17  18
ENDBRANCH  16  17
ENDBRANCH  13  16
ENDBRANCH   1  13
TORSDOF 7
ENDMDL
MODEL 4
REMARK VINA RESULT:      -6.1      1.737      3.856
REMARK  7 active torsions:
REMARK  status: ('A' for Active; 'I' for Inactive)
REMARK    1  A    between atoms: N_5  and  C_6 
REMARK    2  A    between atoms: C_6  and  C_7 
REMARK    3  A    between atoms: C_7  and  O_8 
REMARK    4  A    between atoms: C_7  and  C_9 
REMARK    5  A    between atoms: C_9  and  O_10 
REMARK    6  A    between atoms: O_10  and  C_11 
REMARK    7  A    between atoms: C_11  and  C_12 
ROOT
HETATM    1  C   UNL     1     -41.588 -49.779  13.078  1.00  0.00     0.168 C 
ENDROOT
BRANCH   1   2
HETATM    2  N   UNL     1     -42.304 -50.320  14.209  1.00  0.00    -0.295 N 
HETATM    3  C   UNL     1     -41.750 -50.538  15.488  1.00  0.00     0.329 A 
HETATM    4  N   UNL     1     -42.768 -51.132  16.263  1.00  0.00    -0.302 N 
HETATM    5  O   UNL     1     -40.607 -50.273  15.831  1.00  0.00    -0.246 OA
HETATM    6  C   UNL     1     -42.641 -51.570  17.623  1.00  0.00     0.161 C 
HETATM    7  C   UNL     1     -43.924 -51.249  15.481  1.00  0.00     0.065 A 
HETATM    8  C   UNL     1     -43.641 -50.741  14.212  1.00  0.00     0.066 A 
HETATM    9  C   UNL     1     -45.166 -51.763  15.800  1.00  0.00     0.032 A 
HETATM   10  C   UNL     1     -44.587 -50.719  13.209  1.00  0.00     0.032 A 
HETATM   11  C   UNL     1     -45.854 -51.231  13.515  1.00  0.00     0.002 A 
HETATM   12  C   UNL     1     -46.140 -51.748  14.795  1.00  0.00     0.002 A 
ENDBRANCH   1   2
BRANCH   1  13
HETATM   13  C   UNL     1     -41.126 -50.855  12.077  1.00  0.00     0.160 C 
BRANCH  13  14
HETATM   14  O   UNL     1     -40.785 -50.301  10.801  1.00  0.00    -0.392 OA
HETATM   15  H   UNL     1     -39.852 -50.018  10.823  1.00  0.00     0.210 HD
ENDBRANCH  13  14
BRANCH  13  16
HETATM   16  C   UNL     1     -39.902 -51.603  12.619  1.00  0.00     0.201 C 
BRANCH  16  17
HETATM   17  O   UNL     1     -40.146 -53.004  12.574  1.00  0.00    -0.384 OA
BRANCH  17  18
HETATM   18  C   UNL     1     -40.252 -53.578  13.874  1.00  0.00     0.206 C 
BRANCH  18  19
HETATM   19  C   UNL     1     -41.669 -54.061  14.040  1.00  0.00    -0.035 A 
HETATM   20  C   UNL     1     -42.592 -53.954  12.991  1.00  0.00     0.009 A 
HETATM   21  C   UNL     1     -43.911 -54.380  13.165  1.00  0.00     0.001 A 
HETATM   22  C   UNL     1     -44.318 -54.918  14.386  1.00  0.00     0.000 A 
HETATM   23  C   UNL     1     -43.406 -55.040  15.430  1.00  0.00     0.001 A 
HETATM   24  C   UNL     1     -42.087 -54.618  15.258  1.00  0.00     0.009 A 
ENDBRANCH  18  19
ENDBRANCH  17  18
ENDBRANCH  16  17
ENDBRANCH  13  16
ENDBRANCH   1  13
TORSDOF 7
ENDMDL
MODEL 5
REMARK VINA RESULT:      -6.1      2.077      4.442
REMARK  7 active torsions:
REMARK  status: ('A' for Active; 'I' for Inactive)
REMARK    1  A    between atoms: N_5  and  C_6 
REMARK    2  A    between atoms: C_6  and  C_7 
REMARK    3  A    between atoms: C_7  and  O_8 
REMARK    4  A    between atoms: C_7  and  C_9 
REMARK    5  A    between atoms: C_9  and  O_10 
REMARK    6  A    between atoms: O_10  and  C_11 
REMARK    7  A    between atoms: C_11  and  C_12 
ROOT
HETATM    1  C   UNL     1     -41.546 -52.257  13.743  1.00  0.00     0.168 C 
ENDROOT
BRANCH   1   2
HETATM    2  N   UNL     1     -40.864 -51.222  13.005  1.00  0.00    -0.295 N 
HETATM    3  C   UNL     1     -39.487 -51.220  12.699  1.00  0.00     0.329 A 
HETATM    4  N   UNL     1     -39.233 -50.004  12.030  1.00  0.00    -0.302 N 
HETATM    5  O   UNL     1     -38.686 -52.100  12.980  1.00  0.00    -0.246 OA
HETATM    6  C   UNL     1     -37.953 -49.551  11.569  1.00  0.00     0.161 C 
HETATM    7  C   UNL     1     -40.433 -49.293  11.910  1.00  0.00     0.065 A 
HETATM    8  C   UNL     1     -41.445 -50.048  12.506  1.00  0.00     0.066 A 
HETATM    9  C   UNL     1     -40.685 -48.062  11.334  1.00  0.00     0.032 A 
HETATM   10  C   UNL     1     -42.751 -49.609  12.549  1.00  0.00     0.032 A 
HETATM   11  C   UNL     1     -43.027 -48.366  11.966  1.00  0.00     0.002 A 
HETATM   12  C   UNL     1     -42.005 -47.601  11.367  1.00  0.00     0.002 A 
ENDBRANCH   1   2
BRANCH   1  13
HETATM   13  C   UNL     1     -42.032 -53.420  12.855  1.00  0.00     0.160 C 
BRANCH  13  14
HETATM   14  O   UNL     1     -40.954 -54.247  12.402  1.00  0.00    -0.392 OA
HETATM   15  H   UNL     1     -40.120 -53.903  12.773  1.00  0.00     0.210 HD
ENDBRANCH  13  14
BRANCH  13  16
HETATM   16  C   UNL     1     -43.025 -54.303  13.622  1.00  0.00     0.201 C 
BRANCH  16  17
HETATM   17  O   UNL     1     -44.226 -54.425  12.869  1.00  0.00    -0.384 OA
BRANCH  17  18
HETATM   18  C   UNL     1     -45.326 -54.850  13.669  1.00  0.00     0.206 C 
BRANCH  18  19
HETATM   19  C   UNL     1     -45.925 -53.622  14.301  1.00  0.00    -0.035 A 
HETATM   20  C   UNL     1     -46.249 -52.500  13.526  1.00  0.00     0.009 A 
HETATM   21  C   UNL     1     -46.778 -51.355  14.127  1.00  0.00     0.001 A 
HETATM   22  C   UNL     1     -46.991 -51.322  15.504  1.00  0.00     0.000 A 
HETATM   23  C   UNL     1     -46.684 -52.435  16.283  1.00  0.00     0.001 A 
HETATM   24  C   UNL     1     -46.158 -53.580  15.684  1.00  0.00     0.009 A 
ENDBRANCH  18  19
ENDBRANCH  17  18
ENDBRANCH  16  17
ENDBRANCH  13  16
ENDBRANCH   1  13
TORSDOF 7
ENDMDL
MODEL 6
REMARK VINA RESULT:      -6.1      2.724      4.038
REMARK  7 active torsions:
REMARK  status: ('A' for Active; 'I' for Inactive)
REMARK    1  A    between atoms: N_5  and  C_6 
REMARK    2  A    between atoms: C_6  and  C_7 
REMARK    3  A    between atoms: C_7  and  O_8 
REMARK    4  A    between atoms: C_7  and  C_9 
REMARK    5  A    between atoms: C_9  and  O_10 
REMARK    6  A    between atoms: O_10  and  C_11 
REMARK    7  A    between atoms: C_11  and  C_12 
ROOT
HETATM    1  C   UNL     1     -43.967 -54.328  15.242  1.00  0.00     0.168 C 
ENDROOT
BRANCH   1   2
HETATM    2  N   UNL     1     -42.586 -54.691  15.453  1.00  0.00    -0.295 N 
HETATM    3  C   UNL     1     -42.145 -55.752  16.271  1.00  0.00     0.329 A 
HETATM    4  N   UNL     1     -40.735 -55.711  16.244  1.00  0.00    -0.302 N 
HETATM    5  O   UNL     1     -42.859 -56.530  16.887  1.00  0.00    -0.246 OA
HETATM    6  C   UNL     1     -39.856 -56.580  16.971  1.00  0.00     0.161 C 
HETATM    7  C   UNL     1     -40.328 -54.665  15.407  1.00  0.00     0.065 A 
HETATM    8  C   UNL     1     -41.471 -54.036  14.911  1.00  0.00     0.066 A 
HETATM    9  C   UNL     1     -39.057 -54.238  15.069  1.00  0.00     0.032 A 
HETATM   10  C   UNL     1     -41.396 -52.960  14.053  1.00  0.00     0.032 A 
HETATM   11  C   UNL     1     -40.118 -52.516  13.695  1.00  0.00     0.002 A 
HETATM   12  C   UNL     1     -38.961 -53.147  14.198  1.00  0.00     0.002 A 
ENDBRANCH   1   2
BRANCH   1  13
HETATM   13  C   UNL     1     -44.572 -54.945  13.966  1.00  0.00     0.160 C 
BRANCH  13  14
HETATM   14  O   UNL     1     -45.911 -55.413  14.168  1.00  0.00    -0.392 OA
HETATM   15  H   UNL     1     -45.904 -56.077  14.883  1.00  0.00     0.210 HD
ENDBRANCH  13  14
BRANCH  13  16
HETATM   16  C   UNL     1     -44.589 -53.917  12.828  1.00  0.00     0.201 C 
BRANCH  16  17
HETATM   17  O   UNL     1     -45.889 -53.347  12.727  1.00  0.00    -0.384 OA
BRANCH  17  18
HETATM   18  C   UNL     1     -45.855 -51.923  12.698  1.00  0.00     0.206 C 
BRANCH  18  19
HETATM   19  C   UNL     1     -45.822 -51.443  14.125  1.00  0.00    -0.035 A 
HETATM   20  C   UNL     1     -44.687 -50.805  14.642  1.00  0.00     0.009 A 
HETATM   21  C   UNL     1     -44.655 -50.390  15.976  1.00  0.00     0.001 A 
HETATM   22  C   UNL     1     -45.758 -50.606  16.802  1.00  0.00     0.000 A 
HETATM   23  C   UNL     1     -46.895 -51.228  16.296  1.00  0.00     0.001 A 
HETATM   24  C   UNL     1     -46.929 -51.641  14.963  1.00  0.00     0.009 A 
ENDBRANCH  18  19
ENDBRANCH  17  18
ENDBRANCH  16  17
ENDBRANCH  13  16
ENDBRANCH   1  13
TORSDOF 7
ENDMDL
MODEL 7
REMARK VINA RESULT:      -6.0      2.108      4.394
REMARK  7 active torsions:
REMARK  status: ('A' for Active; 'I' for Inactive)
REMARK    1  A    between atoms: N_5  and  C_6 
REMARK    2  A    between atoms: C_6  and  C_7 
REMARK    3  A    between atoms: C_7  and  O_8 
REMARK    4  A    between atoms: C_7  and  C_9 
REMARK    5  A    between atoms: C_9  and  O_10 
REMARK    6  A    between atoms: O_10  and  C_11 
REMARK    7  A    between atoms: C_11  and  C_12 
ROOT
HETATM    1  C   UNL     1     -39.989 -51.953  13.272  1.00  0.00     0.168 C 
ENDROOT
BRANCH   1   2
HETATM    2  N   UNL     1     -40.316 -50.563  13.059  1.00  0.00    -0.295 N 
HETATM    3  C   UNL     1     -39.630 -49.697  12.183  1.00  0.00     0.329 A 
HETATM    4  N   UNL     1     -40.232 -48.429  12.331  1.00  0.00    -0.302 N 
HETATM    5  O   UNL     1     -38.693 -49.999  11.458  1.00  0.00    -0.246 OA
HETATM    6  C   UNL     1     -39.829 -47.225  11.663  1.00  0.00     0.161 C 
HETATM    7  C   UNL     1     -41.276 -48.528  13.258  1.00  0.00     0.065 A 
HETATM    8  C   UNL     1     -41.335 -49.849  13.705  1.00  0.00     0.066 A 
HETATM    9  C   UNL     1     -42.148 -47.562  13.725  1.00  0.00     0.032 A 
HETATM   10  C   UNL     1     -42.267 -50.264  14.632  1.00  0.00     0.032 A 
HETATM   11  C   UNL     1     -43.162 -49.300  15.113  1.00  0.00     0.002 A 
HETATM   12  C   UNL     1     -43.102 -47.964  14.665  1.00  0.00     0.002 A 
ENDBRANCH   1   2
BRANCH   1  13
HETATM   13  C   UNL     1     -40.979 -52.923  12.598  1.00  0.00     0.160 C 
BRANCH  13  14
HETATM   14  O   UNL     1     -40.510 -53.384  11.326  1.00  0.00    -0.392 OA
HETATM   15  H   UNL     1     -39.741 -53.967  11.470  1.00  0.00     0.210 HD
ENDBRANCH  13  14
BRANCH  13  16
HETATM   16  C   UNL     1     -41.226 -54.145  13.491  1.00  0.00     0.201 C 
BRANCH  16  17
HETATM   17  O   UNL     1     -42.513 -54.041  14.088  1.00  0.00    -0.384 OA
BRANCH  17  18
HETATM   18  C   UNL     1     -43.559 -54.006  13.120  1.00  0.00     0.206 C 
BRANCH  18  19
HETATM   19  C   UNL     1     -44.620 -53.071  13.635  1.00  0.00    -0.035 A 
HETATM   20  C   UNL     1     -44.787 -52.861  15.010  1.00  0.00     0.009 A 
HETATM   21  C   UNL     1     -45.794 -52.013  15.479  1.00  0.00     0.001 A 
HETATM   22  C   UNL     1     -46.639 -51.366  14.578  1.00  0.00     0.000 A 
HETATM   23  C   UNL     1     -46.475 -51.557  13.209  1.00  0.00     0.001 A 
HETATM   24  C   UNL     1     -45.468 -52.402  12.739  1.00  0.00     0.009 A 
ENDBRANCH  18  19
ENDBRANCH  17  18
ENDBRANCH  16  17
ENDBRANCH  13  16
ENDBRANCH   1  13
TORSDOF 7
ENDMDL
MODEL 8
REMARK VINA RESULT:      -5.7      3.210      6.437
REMARK  7 active torsions:
REMARK  status: ('A' for Active; 'I' for Inactive)
REMARK    1  A    between atoms: N_5  and  C_6 
REMARK    2  A    between atoms: C_6  and  C_7 
REMARK    3  A    between atoms: C_7  and  O_8 
REMARK    4  A    between atoms: C_7  and  C_9 
REMARK    5  A    between atoms: C_9  and  O_10 
REMARK    6  A    between atoms: O_10  and  C_11 
REMARK    7  A    between atoms: C_11  and  C_12 
ROOT
HETATM    1  C   UNL     1     -41.674 -49.533  12.317  1.00  0.00     0.168 C 
ENDROOT
BRANCH   1   2
HETATM    2  N   UNL     1     -41.143 -48.201  12.151  1.00  0.00    -0.295 N 
HETATM    3  C   UNL     1     -41.310 -47.402  11.000  1.00  0.00     0.329 A 
HETATM    4  N   UNL     1     -40.584 -46.215  11.235  1.00  0.00    -0.302 N 
HETATM    5  O   UNL     1     -41.948 -47.703  10.002  1.00  0.00    -0.246 OA
HETATM    6  C   UNL     1     -40.433 -45.127  10.313  1.00  0.00     0.161 C 
HETATM    7  C   UNL     1     -40.009 -46.281  12.510  1.00  0.00     0.065 A 
HETATM    8  C   UNL     1     -40.359 -47.505  13.081  1.00  0.00     0.066 A 
HETATM    9  C   UNL     1     -39.216 -45.366  13.178  1.00  0.00     0.032 A 
HETATM   10  C   UNL     1     -39.940 -47.866  14.344  1.00  0.00     0.032 A 
HETATM   11  C   UNL     1     -39.141 -46.950  15.038  1.00  0.00     0.002 A 
HETATM   12  C   UNL     1     -38.782 -45.714  14.461  1.00  0.00     0.002 A 
ENDBRANCH   1   2
BRANCH   1  13
HETATM   13  C   UNL     1     -40.825 -50.619  11.628  1.00  0.00     0.160 C 
BRANCH  13  14
HETATM   14  O   UNL     1     -40.184 -50.138  10.440  1.00  0.00    -0.392 OA
HETATM   15  H   UNL     1     -39.991 -49.188  10.553  1.00  0.00     0.210 HD
ENDBRANCH  13  14
BRANCH  13  16
HETATM   16  C   UNL     1     -39.742 -51.140  12.580  1.00  0.00     0.201 C 
BRANCH  16  17
HETATM   17  O   UNL     1     -39.803 -52.560  12.633  1.00  0.00    -0.384 OA
BRANCH  17  18
HETATM   18  C   UNL     1     -41.079 -53.062  12.243  1.00  0.00     0.206 C 
BRANCH  18  19
HETATM   19  C   UNL     1     -41.652 -53.802  13.423  1.00  0.00    -0.035 A 
HETATM   20  C   UNL     1     -40.829 -54.220  14.477  1.00  0.00     0.009 A 
HETATM   21  C   UNL     1     -41.367 -54.932  15.553  1.00  0.00     0.001 A 
HETATM   22  C   UNL     1     -42.729 -55.228  15.586  1.00  0.00     0.000 A 
HETATM   23  C   UNL     1     -43.557 -54.807  14.549  1.00  0.00     0.001 A 
HETATM   24  C   UNL     1     -43.023 -54.094  13.475  1.00  0.00     0.009 A 
ENDBRANCH  18  19
ENDBRANCH  17  18
ENDBRANCH  16  17
ENDBRANCH  13  16
ENDBRANCH   1  13
TORSDOF 7
ENDMDL
MODEL 9
REMARK VINA RESULT:      -5.7      3.755      6.627
REMARK  7 active torsions:
REMARK  status: ('A' for Active; 'I' for Inactive)
REMARK    1  A    between atoms: N_5  and  C_6 
REMARK    2  A    between atoms: C_6  and  C_7 
REMARK    3  A    between atoms: C_7  and  O_8 
REMARK    4  A    between atoms: C_7  and  C_9 
REMARK    5  A    between atoms: C_9  and  O_10 
REMARK    6  A    between atoms: O_10  and  C_11 
REMARK    7  A    between atoms: C_11  and  C_12 
ROOT
HETATM    1  C   UNL     1     -39.140 -48.721  11.877  1.00  0.00     0.168 C 
ENDROOT
BRANCH   1   2
HETATM    2  N   UNL     1     -39.520 -47.529  12.596  1.00  0.00    -0.295 N 
HETATM    3  C   UNL     1     -39.694 -47.448  13.993  1.00  0.00     0.329 A 
HETATM    4  N   UNL     1     -40.123 -46.131  14.262  1.00  0.00    -0.302 N 
HETATM    5  O   UNL     1     -39.519 -48.355  14.794  1.00  0.00    -0.246 OA
HETATM    6  C   UNL     1     -40.468 -45.607  15.551  1.00  0.00     0.161 C 
HETATM    7  C   UNL     1     -40.184 -45.419  13.058  1.00  0.00     0.065 A 
HETATM    8  C   UNL     1     -39.804 -46.280  12.026  1.00  0.00     0.066 A 
HETATM    9  C   UNL     1     -40.546 -44.108  12.816  1.00  0.00     0.032 A 
HETATM   10  C   UNL     1     -39.764 -45.867  10.711  1.00  0.00     0.032 A 
HETATM   11  C   UNL     1     -40.123 -44.540  10.447  1.00  0.00     0.002 A 
HETATM   12  C   UNL     1     -40.511 -43.670  11.487  1.00  0.00     0.002 A 
ENDBRANCH   1   2
BRANCH   1  13
HETATM   13  C   UNL     1     -40.312 -49.694  11.645  1.00  0.00     0.160 C 
BRANCH  13  14
HETATM   14  O   UNL     1     -40.469 -50.040  10.264  1.00  0.00    -0.392 OA
HETATM   15  H   UNL     1     -40.036 -50.900  10.107  1.00  0.00     0.210 HD
ENDBRANCH  13  14
BRANCH  13  16
HETATM   16  C   UNL     1     -40.104 -50.987  12.443  1.00  0.00     0.201 C 
BRANCH  16  17
HETATM   17  O   UNL     1     -41.347 -51.665  12.577  1.00  0.00    -0.384 OA
BRANCH  17  18
HETATM   18  C   UNL     1     -41.210 -53.079  12.460  1.00  0.00     0.206 C 
BRANCH  18  19
HETATM   19  C   UNL     1     -42.415 -53.705  13.110  1.00  0.00    -0.035 A 
HETATM   20  C   UNL     1     -42.282 -54.496  14.259  1.00  0.00     0.009 A 
HETATM   21  C   UNL     1     -43.404 -55.095  14.837  1.00  0.00     0.001 A 
HETATM   22  C   UNL     1     -44.666 -54.907  14.275  1.00  0.00     0.000 A 
HETATM   23  C   UNL     1     -44.811 -54.114  13.141  1.00  0.00     0.001 A 
HETATM   24  C   UNL     1     -43.693 -53.512  12.563  1.00  0.00     0.009 A 
ENDBRANCH  18  19
ENDBRANCH  17  18
ENDBRANCH  16  17
ENDBRANCH  13  16
ENDBRANCH   1  13
TORSDOF 7
ENDMDL
