MODEL 1
REMARK VINA RESULT:      -6.5      0.000      0.000
REMARK  4 active torsions:
REMARK  status: ('A' for Active; 'I' for Inactive)
REMARK    1  A    between atoms: C_9  and  C_10 
REMARK    2  A    between atoms: C_10  and  C_11 
REMARK    3  A    between atoms: C_11  and  N_12 
REMARK    4  A    between atoms: N_12  and  C_13 
ROOT
HETATM    1  N   UNL     1     -44.261 -50.292  12.646  1.00  0.00    -0.415 N 
HETATM    2  H   UNL     1     -44.509 -50.287  11.666  1.00  0.00     0.153 HD
ENDROOT
BRANCH   1   3
HETATM    3  C   UNL     1     -43.103 -49.474  12.963  1.00  0.00     0.119 C 
BRANCH   3   4
HETATM    4  C   UNL     1     -42.047 -49.546  11.844  1.00  0.00     0.062 C 
BRANCH   4   5
HETATM    5  C   UNL     1     -41.670 -48.234  11.210  1.00  0.00    -0.009 A 
HETATM    6  C   UNL     1     -42.453 -47.420  10.339  1.00  0.00     0.030 A 
HETATM    7  C   UNL     1     -43.816 -47.670   9.809  1.00  0.00     0.070 C 
HETATM    8  N   UNL     1     -41.822 -46.289  10.015  1.00  0.00    -0.303 N 
HETATM    9  N   UNL     1     -40.642 -46.368  10.651  1.00  0.00    -0.300 N 
ATOM     10  HN  UNL     1     -42.160 -45.534   9.419  1.00  0.00     0.186 HD
HETATM   11  C   UNL     1     -39.715 -45.268  10.532  1.00  0.00     0.177 C 
HETATM   12  C   UNL     1     -40.498 -47.515  11.387  1.00  0.00     0.032 A 
HETATM   13  C   UNL     1     -39.285 -47.828  12.191  1.00  0.00     0.070 C 
ENDBRANCH   4   5
ENDBRANCH   3   4
ENDBRANCH   1   3
BRANCH   1  14
HETATM   14  C   UNL     1     -44.390 -51.499  13.448  1.00  0.00     0.093 C 
HETATM   15  C   UNL     1     -44.094 -52.846  12.705  1.00  0.00     0.039 C 
HETATM   16  C   UNL     1     -42.877 -53.744  12.877  1.00  0.00     0.011 C 
HETATM   17  C   UNL     1     -45.309 -53.400  13.540  1.00  0.00     0.137 C 
HETATM   18  C   UNL     1     -42.610 -54.073  14.340  1.00  0.00     0.027 C 
HETATM   19  C   UNL     1     -43.840 -54.668  15.025  1.00  0.00     0.168 C 
HETATM   20  O   UNL     1     -44.977 -53.815  14.891  1.00  0.00    -0.385 OA
HETATM   21  C   UNL     1     -45.916 -51.955  13.404  1.00  0.00    -0.001 C 
HETATM   22  C   UNL     1     -46.725 -51.386  14.566  1.00  0.00     0.019 C 
HETATM   23  C   UNL     1     -46.750 -51.853  12.106  1.00  0.00     0.019 C 
ENDBRANCH   1  14
TORSDOF 4
ENDMDL
MODEL 2
REMARK VINA RESULT:      -6.3      0.699      1.862
REMARK  4 active torsions:
REMARK  status: ('A' for Active; 'I' for Inactive)
REMARK    1  A    between atoms: C_9  and  C_10 
REMARK    2  A    between atoms: C_10  and  C_11 
REMARK    3  A    between atoms: C_11  and  N_12 
REMARK    4  A    between atoms: N_12  and  C_13 
ROOT
HETATM    1  N   UNL     1     -44.246 -50.357  12.860  1.00  0.00    -0.415 N 
HETATM    2  H   UNL     1     -44.536 -50.223  11.901  1.00  0.00     0.153 HD
ENDROOT
BRANCH   1   3
HETATM    3  C   UNL     1     -42.992 -49.703  13.192  1.00  0.00     0.119 C 
BRANCH   3   4
HETATM    4  C   UNL     1     -41.959 -49.872  12.062  1.00  0.00     0.062 C 
BRANCH   4   5
HETATM    5  C   UNL     1     -41.208 -48.631  11.664  1.00  0.00    -0.009 A 
HETATM    6  C   UNL     1     -39.798 -48.419  11.657  1.00  0.00     0.030 A 
HETATM    7  C   UNL     1     -38.716 -49.347  12.069  1.00  0.00     0.070 C 
HETATM    8  N   UNL     1     -39.479 -47.211  11.185  1.00  0.00    -0.303 N 
HETATM    9  N   UNL     1     -40.660 -46.638  10.902  1.00  0.00    -0.300 N 
ATOM     10  HN  UNL     1     -38.548 -46.813  11.066  1.00  0.00     0.186 HD
HETATM   11  C   UNL     1     -40.669 -45.311  10.333  1.00  0.00     0.177 C 
HETATM   12  C   UNL     1     -41.733 -47.447  11.167  1.00  0.00     0.032 A 
HETATM   13  C   UNL     1     -43.146 -47.044  10.926  1.00  0.00     0.070 C 
ENDBRANCH   4   5
ENDBRANCH   3   4
ENDBRANCH   1   3
BRANCH   1  14
HETATM   14  C   UNL     1     -44.470 -51.622  13.544  1.00  0.00     0.093 C 
HETATM   15  C   UNL     1     -44.211 -52.911  12.694  1.00  0.00     0.039 C 
HETATM   16  C   UNL     1     -43.049 -53.886  12.830  1.00  0.00     0.011 C 
HETATM   17  C   UNL     1     -45.487 -53.471  13.428  1.00  0.00     0.137 C 
HETATM   18  C   UNL     1     -42.863 -54.357  14.266  1.00  0.00     0.027 C 
HETATM   19  C   UNL     1     -44.150 -54.943  14.847  1.00  0.00     0.168 C 
HETATM   20  O   UNL     1     -45.235 -54.021  14.747  1.00  0.00    -0.385 OA
HETATM   21  C   UNL     1     -46.014 -51.988  13.400  1.00  0.00    -0.001 C 
HETATM   22  C   UNL     1     -46.842 -51.481  14.577  1.00  0.00     0.019 C 
HETATM   23  C   UNL     1     -46.785 -51.726  12.085  1.00  0.00     0.019 C 
ENDBRANCH   1  14
TORSDOF 4
ENDMDL
MODEL 3
REMARK VINA RESULT:      -6.0      1.968      2.673
REMARK  4 active torsions:
REMARK  status: ('A' for Active; 'I' for Inactive)
REMARK    1  A    between atoms: C_9  and  C_10 
REMARK    2  A    between atoms: C_10  and  C_11 
REMARK    3  A    between atoms: C_11  and  N_12 
REMARK    4  A    between atoms: N_12  and  C_13 
ROOT
HETATM    1  N   UNL     1     -44.202 -50.167  13.347  1.00  0.00    -0.415 N 
HETATM    2  H   UNL     1     -45.008 -49.639  13.039  1.00  0.00     0.153 HD
ENDROOT
BRANCH   1   3
HETATM    3  C   UNL     1     -43.012 -49.943  12.545  1.00  0.00     0.119 C 
BRANCH   3   4
HETATM    4  C   UNL     1     -41.771 -49.739  13.433  1.00  0.00     0.062 C 
BRANCH   4   5
HETATM    5  C   UNL     1     -40.443 -49.765  12.726  1.00  0.00    -0.009 A 
HETATM    6  C   UNL     1     -39.899 -48.790  11.840  1.00  0.00     0.030 A 
HETATM    7  C   UNL     1     -40.508 -47.523  11.363  1.00  0.00     0.070 C 
HETATM    8  N   UNL     1     -38.665 -49.112  11.443  1.00  0.00    -0.303 N 
HETATM    9  N   UNL     1     -38.413 -50.284  12.047  1.00  0.00    -0.300 N 
ATOM     10  HN  UNL     1     -38.052 -48.586  10.821  1.00  0.00     0.186 HD
HETATM   11  C   UNL     1     -37.125 -50.905  11.847  1.00  0.00     0.177 C 
HETATM   12  C   UNL     1     -39.446 -50.724  12.833  1.00  0.00     0.032 A 
HETATM   13  C   UNL     1     -39.403 -51.989  13.615  1.00  0.00     0.070 C 
ENDBRANCH   4   5
ENDBRANCH   3   4
ENDBRANCH   1   3
BRANCH   1  14
HETATM   14  C   UNL     1     -44.342 -51.519  13.864  1.00  0.00     0.093 C 
HETATM   15  C   UNL     1     -43.972 -52.671  12.870  1.00  0.00     0.039 C 
HETATM   16  C   UNL     1     -42.741 -53.567  12.915  1.00  0.00     0.011 C 
HETATM   17  C   UNL     1     -45.214 -53.409  13.496  1.00  0.00     0.137 C 
HETATM   18  C   UNL     1     -42.544 -54.198  14.287  1.00  0.00     0.027 C 
HETATM   19  C   UNL     1     -43.792 -54.944  14.758  1.00  0.00     0.168 C 
HETATM   20  O   UNL     1     -44.942 -54.099  14.744  1.00  0.00    -0.385 OA
HETATM   21  C   UNL     1     -45.851 -51.977  13.637  1.00  0.00    -0.001 C 
HETATM   22  C   UNL     1     -46.735 -51.682  14.845  1.00  0.00     0.019 C 
HETATM   23  C   UNL     1     -46.617 -51.611  12.345  1.00  0.00     0.019 C 
ENDBRANCH   1  14
TORSDOF 4
ENDMDL
MODEL 4
REMARK VINA RESULT:      -5.9      2.137      2.993
REMARK  4 active torsions:
REMARK  status: ('A' for Active; 'I' for Inactive)
REMARK    1  A    between atoms: C_9  and  C_10 
REMARK    2  A    between atoms: C_10  and  C_11 
REMARK    3  A    between atoms: C_11  and  N_12 
REMARK    4  A    between atoms: N_12  and  C_13 
ROOT
HETATM    1  N   UNL     1     -44.157 -50.342  12.740  1.00  0.00    -0.415 N 
HETATM    2  H   UNL     1     -44.355 -50.291  11.750  1.00  0.00     0.153 HD
ENDROOT
BRANCH   1   3
HETATM    3  C   UNL     1     -42.986 -49.585  13.146  1.00  0.00     0.119 C 
BRANCH   3   4
HETATM    4  C   UNL     1     -41.740 -50.015  12.347  1.00  0.00     0.062 C 
BRANCH   4   5
HETATM    5  C   UNL     1     -40.416 -49.800  13.027  1.00  0.00    -0.009 A 
HETATM    6  C   UNL     1     -39.531 -50.782  13.560  1.00  0.00     0.030 A 
HETATM    7  C   UNL     1     -39.700 -52.256  13.614  1.00  0.00     0.070 C 
HETATM    8  N   UNL     1     -38.410 -50.235  14.039  1.00  0.00    -0.303 N 
HETATM    9  N   UNL     1     -38.567 -48.918  13.835  1.00  0.00    -0.300 N 
ATOM     10  HN  UNL     1     -37.615 -50.712  14.464  1.00  0.00     0.186 HD
HETATM   11  C   UNL     1     -37.500 -48.025  14.220  1.00  0.00     0.177 C 
HETATM   12  C   UNL     1     -39.752 -48.599  13.227  1.00  0.00     0.032 A 
HETATM   13  C   UNL     1     -40.151 -47.207  12.884  1.00  0.00     0.070 C 
ENDBRANCH   4   5
ENDBRANCH   3   4
ENDBRANCH   1   3
BRANCH   1  14
HETATM   14  C   UNL     1     -44.375 -51.572  13.487  1.00  0.00     0.093 C 
HETATM   15  C   UNL     1     -44.138 -52.902  12.695  1.00  0.00     0.039 C 
HETATM   16  C   UNL     1     -42.978 -53.876  12.856  1.00  0.00     0.011 C 
HETATM   17  C   UNL     1     -45.402 -53.419  13.479  1.00  0.00     0.137 C 
HETATM   18  C   UNL     1     -42.767 -54.279  14.309  1.00  0.00     0.027 C 
HETATM   19  C   UNL     1     -44.045 -54.829  14.940  1.00  0.00     0.168 C 
HETATM   20  O   UNL     1     -45.128 -53.907  14.818  1.00  0.00    -0.385 OA
HETATM   21  C   UNL     1     -45.923 -51.936  13.391  1.00  0.00    -0.001 C 
HETATM   22  C   UNL     1     -46.726 -51.369  14.557  1.00  0.00     0.019 C 
HETATM   23  C   UNL     1     -46.717 -51.732  12.079  1.00  0.00     0.019 C 
ENDBRANCH   1  14
TORSDOF 4
ENDMDL
MODEL 5
REMARK VINA RESULT:      -5.9      1.739      3.554
REMARK  4 active torsions:
REMARK  status: ('A' for Active; 'I' for Inactive)
REMARK    1  A    between atoms: C_9  and  C_10 
REMARK    2  A    between atoms: C_10  and  C_11 
REMARK    3  A    between atoms: C_11  and  N_12 
REMARK    4  A    between atoms: N_12  and  C_13 
ROOT
HETATM    1  N   UNL     1     -42.072 -53.396  12.632  1.00  0.00    -0.415 N 
HETATM    2  H   UNL     1     -41.254 -53.830  13.037  1.00  0.00     0.153 HD
ENDROOT
BRANCH   1   3
HETATM    3  C   UNL     1     -41.800 -52.132  11.969  1.00  0.00     0.119 C 
BRANCH   3   4
HETATM    4  C   UNL     1     -40.709 -51.337  12.711  1.00  0.00     0.062 C 
BRANCH   4   5
HETATM    5  C   UNL     1     -40.381 -49.983  12.144  1.00  0.00    -0.009 A 
HETATM    6  C   UNL     1     -39.121 -49.505  11.681  1.00  0.00     0.030 A 
HETATM    7  C   UNL     1     -37.809 -50.199  11.670  1.00  0.00     0.070 C 
HETATM    8  N   UNL     1     -39.209 -48.268  11.184  1.00  0.00    -0.303 N 
HETATM    9  N   UNL     1     -40.503 -47.939  11.332  1.00  0.00    -0.300 N 
ATOM     10  HN  UNL     1     -38.463 -47.702  10.782  1.00  0.00     0.186 HD
HETATM   11  C   UNL     1     -40.949 -46.650  10.858  1.00  0.00     0.177 C 
HETATM   12  C   UNL     1     -41.255 -48.933  11.901  1.00  0.00     0.032 A 
HETATM   13  C   UNL     1     -42.716 -48.814  12.158  1.00  0.00     0.070 C 
ENDBRANCH   4   5
ENDBRANCH   3   4
ENDBRANCH   1   3
BRANCH   1  14
HETATM   14  C   UNL     1     -43.367 -53.470  13.291  1.00  0.00     0.093 C 
HETATM   15  C   UNL     1     -43.929 -52.117  13.843  1.00  0.00     0.039 C 
HETATM   16  C   UNL     1     -45.086 -51.302  13.279  1.00  0.00     0.011 C 
HETATM   17  C   UNL     1     -44.413 -52.987  15.063  1.00  0.00     0.137 C 
HETATM   18  C   UNL     1     -46.332 -52.150  13.065  1.00  0.00     0.027 C 
HETATM   19  C   UNL     1     -46.744 -52.892  14.336  1.00  0.00     0.168 C 
HETATM   20  O   UNL     1     -45.671 -53.680  14.851  1.00  0.00    -0.385 OA
HETATM   21  C   UNL     1     -43.117 -53.846  14.819  1.00  0.00    -0.001 C 
HETATM   22  C   UNL     1     -43.175 -55.350  15.064  1.00  0.00     0.019 C 
HETATM   23  C   UNL     1     -41.931 -53.247  15.611  1.00  0.00     0.019 C 
ENDBRANCH   1  14
TORSDOF 4
ENDMDL
MODEL 6
REMARK VINA RESULT:      -5.8      3.339      7.720
REMARK  4 active torsions:
REMARK  status: ('A' for Active; 'I' for Inactive)
REMARK    1  A    between atoms: C_9  and  C_10 
REMARK    2  A    between atoms: C_10  and  C_11 
REMARK    3  A    between atoms: C_11  and  N_12 
REMARK    4  A    between atoms: N_12  and  C_13 
ROOT
HETATM    1  N   UNL     1     -40.383 -50.921  11.450  1.00  0.00    -0.415 N 
HETATM    2  H   UNL     1     -40.419 -50.737  10.456  1.00  0.00     0.153 HD
ENDROOT
BRANCH   1   3
HETATM    3  C   UNL     1     -41.451 -51.781  11.928  1.00  0.00     0.119 C 
BRANCH   3   4
HETATM    4  C   UNL     1     -40.917 -53.176  12.305  1.00  0.00     0.062 C 
BRANCH   4   5
HETATM    5  C   UNL     1     -41.621 -53.865  13.442  1.00  0.00    -0.009 A 
HETATM    6  C   UNL     1     -43.009 -54.165  13.565  1.00  0.00     0.030 A 
HETATM    7  C   UNL     1     -44.116 -53.849  12.628  1.00  0.00     0.070 C 
HETATM    8  N   UNL     1     -43.275 -54.841  14.686  1.00  0.00    -0.303 N 
HETATM    9  N   UNL     1     -42.083 -54.968  15.291  1.00  0.00    -0.300 N 
ATOM     10  HN  UNL     1     -44.179 -55.184  15.009  1.00  0.00     0.186 HD
HETATM   11  C   UNL     1     -42.013 -55.691  16.539  1.00  0.00     0.177 C 
HETATM   12  C   UNL     1     -41.053 -54.403  14.587  1.00  0.00     0.032 A 
HETATM   13  C   UNL     1     -39.637 -54.423  15.044  1.00  0.00     0.070 C 
ENDBRANCH   4   5
ENDBRANCH   3   4
ENDBRANCH   1   3
BRANCH   1  14
HETATM   14  C   UNL     1     -39.965 -49.892  12.390  1.00  0.00     0.093 C 
HETATM   15  C   UNL     1     -39.376 -48.587  11.755  1.00  0.00     0.039 C 
HETATM   16  C   UNL     1     -40.039 -47.217  11.683  1.00  0.00     0.011 C 
HETATM   17  C   UNL     1     -38.356 -48.642  12.953  1.00  0.00     0.137 C 
HETATM   18  C   UNL     1     -40.551 -46.759  13.042  1.00  0.00     0.027 C 
HETATM   19  C   UNL     1     -39.455 -46.790  14.106  1.00  0.00     0.168 C 
HETATM   20  O   UNL     1     -38.851 -48.080  14.197  1.00  0.00    -0.385 OA
HETATM   21  C   UNL     1     -38.465 -50.207  12.826  1.00  0.00    -0.001 C 
HETATM   22  C   UNL     1     -38.395 -51.054  14.093  1.00  0.00     0.019 C 
HETATM   23  C   UNL     1     -37.424 -50.727  11.808  1.00  0.00     0.019 C 
ENDBRANCH   1  14
TORSDOF 4
ENDMDL
MODEL 7
REMARK VINA RESULT:      -5.7      1.918      2.711
REMARK  4 active torsions:
REMARK  status: ('A' for Active; 'I' for Inactive)
REMARK    1  A    between atoms: C_9  and  C_10 
REMARK    2  A    between atoms: C_10  and  C_11 
REMARK    3  A    between atoms: C_11  and  N_12 
REMARK    4  A    between atoms: N_12  and  C_13 
ROOT
HETATM    1  N   UNL     1     -43.808 -51.906  12.815  1.00  0.00    -0.415 N 
HETATM    2  H   UNL     1     -43.651 -52.009  11.821  1.00  0.00     0.153 HD
ENDROOT
BRANCH   1   3
HETATM    3  C   UNL     1     -44.062 -50.537  13.231  1.00  0.00     0.119 C 
BRANCH   3   4
HETATM    4  C   UNL     1     -42.769 -49.851  13.711  1.00  0.00     0.062 C 
BRANCH   4   5
HETATM    5  C   UNL     1     -42.031 -49.043  12.680  1.00  0.00    -0.009 A 
HETATM    6  C   UNL     1     -41.040 -49.489  11.756  1.00  0.00     0.030 A 
HETATM    7  C   UNL     1     -40.459 -50.845  11.598  1.00  0.00     0.070 C 
HETATM    8  N   UNL     1     -40.642 -48.508  10.942  1.00  0.00    -0.303 N 
HETATM    9  N   UNL     1     -41.350 -47.437  11.335  1.00  0.00    -0.300 N 
ATOM     10  HN  UNL     1     -39.955 -48.561  10.190  1.00  0.00     0.186 HD
HETATM   11  C   UNL     1     -41.176 -46.192  10.625  1.00  0.00     0.177 C 
HETATM   12  C   UNL     1     -42.203 -47.701  12.374  1.00  0.00     0.032 A 
HETATM   13  C   UNL     1     -43.103 -46.681  12.978  1.00  0.00     0.070 C 
ENDBRANCH   4   5
ENDBRANCH   3   4
ENDBRANCH   1   3
BRANCH   1  14
HETATM   14  C   UNL     1     -43.070 -52.707  13.780  1.00  0.00     0.093 C 
HETATM   15  C   UNL     1     -42.325 -53.956  13.200  1.00  0.00     0.039 C 
HETATM   16  C   UNL     1     -40.823 -54.128  13.014  1.00  0.00     0.011 C 
HETATM   17  C   UNL     1     -42.799 -54.667  14.523  1.00  0.00     0.137 C 
HETATM   18  C   UNL     1     -40.048 -53.802  14.283  1.00  0.00     0.027 C 
HETATM   19  C   UNL     1     -40.553 -54.603  15.483  1.00  0.00     0.168 C 
HETATM   20  O   UNL     1     -41.955 -54.421  15.679  1.00  0.00    -0.385 OA
HETATM   21  C   UNL     1     -44.082 -53.761  14.416  1.00  0.00    -0.001 C 
HETATM   22  C   UNL     1     -44.727 -53.245  15.698  1.00  0.00     0.019 C 
HETATM   23  C   UNL     1     -45.155 -54.467  13.555  1.00  0.00     0.019 C 
ENDBRANCH   1  14
TORSDOF 4
ENDMDL
MODEL 8
REMARK VINA RESULT:      -5.7      2.467      3.198
REMARK  4 active torsions:
REMARK  status: ('A' for Active; 'I' for Inactive)
REMARK    1  A    between atoms: C_9  and  C_10 
REMARK    2  A    between atoms: C_10  and  C_11 
REMARK    3  A    between atoms: C_11  and  N_12 
REMARK    4  A    between atoms: N_12  and  C_13 
ROOT
HETATM    1  N   UNL     1     -44.774 -50.559  15.404  1.00  0.00    -0.415 N 
HETATM    2  H   UNL     1     -45.475 -49.851  15.233  1.00  0.00     0.153 HD
ENDROOT
BRANCH   1   3
HETATM    3  C   UNL     1     -43.433 -50.166  15.006  1.00  0.00     0.119 C 
BRANCH   3   4
HETATM    4  C   UNL     1     -43.321 -50.041  13.474  1.00  0.00     0.062 C 
BRANCH   4   5
HETATM    5  C   UNL     1     -41.929 -50.112  12.908  1.00  0.00    -0.009 A 
HETATM    6  C   UNL     1     -41.304 -51.208  12.244  1.00  0.00     0.030 A 
HETATM    7  C   UNL     1     -41.846 -52.563  11.972  1.00  0.00     0.070 C 
HETATM    8  N   UNL     1     -40.077 -50.898  11.818  1.00  0.00    -0.303 N 
HETATM    9  N   UNL     1     -39.898 -49.626  12.209  1.00  0.00    -0.300 N 
ATOM     10  HN  UNL     1     -39.423 -51.492  11.310  1.00  0.00     0.186 HD
HETATM   11  C   UNL     1     -38.660 -48.964  11.872  1.00  0.00     0.177 C 
HETATM   12  C   UNL     1     -40.980 -49.102  12.866  1.00  0.00     0.032 A 
HETATM   13  C   UNL     1     -41.030 -47.708  13.385  1.00  0.00     0.070 C 
ENDBRANCH   4   5
ENDBRANCH   3   4
ENDBRANCH   1   3
BRANCH   1  14
HETATM   14  C   UNL     1     -45.072 -51.972  15.224  1.00  0.00     0.093 C 
HETATM   15  C   UNL     1     -46.005 -52.323  14.016  1.00  0.00     0.039 C 
HETATM   16  C   UNL     1     -45.606 -52.994  12.709  1.00  0.00     0.011 C 
HETATM   17  C   UNL     1     -46.637 -53.375  15.003  1.00  0.00     0.137 C 
HETATM   18  C   UNL     1     -44.819 -54.277  12.941  1.00  0.00     0.027 C 
HETATM   19  C   UNL     1     -45.564 -55.246  13.858  1.00  0.00     0.168 C 
HETATM   20  O   UNL     1     -45.914 -54.630  15.097  1.00  0.00    -0.385 OA
HETATM   21  C   UNL     1     -46.328 -52.328  16.137  1.00  0.00    -0.001 C 
HETATM   22  C   UNL     1     -45.917 -52.837  17.515  1.00  0.00     0.019 C 
HETATM   23  C   UNL     1     -47.515 -51.349  16.290  1.00  0.00     0.019 C 
ENDBRANCH   1  14
TORSDOF 4
ENDMDL
MODEL 9
REMARK VINA RESULT:      -5.6      3.037      5.129
REMARK  4 active torsions:
REMARK  status: ('A' for Active; 'I' for Inactive)
REMARK    1  A    between atoms: C_9  and  C_10 
REMARK    2  A    between atoms: C_10  and  C_11 
REMARK    3  A    between atoms: C_11  and  N_12 
REMARK    4  A    between atoms: N_12  and  C_13 
ROOT
HETATM    1  N   UNL     1     -39.439 -48.029  12.512  1.00  0.00    -0.415 N 
HETATM    2  H   UNL     1     -38.558 -47.619  12.232  1.00  0.00     0.153 HD
ENDROOT
BRANCH   1   3
HETATM    3  C   UNL     1     -40.037 -47.399  13.676  1.00  0.00     0.119 C 
BRANCH   3   4
HETATM    4  C   UNL     1     -41.105 -46.368  13.265  1.00  0.00     0.062 C 
BRANCH   4   5
HETATM    5  C   UNL     1     -41.538 -46.408  11.825  1.00  0.00    -0.009 A 
HETATM    6  C   UNL     1     -41.000 -45.681  10.723  1.00  0.00     0.030 A 
HETATM    7  C   UNL     1     -39.905 -44.678  10.716  1.00  0.00     0.070 C 
HETATM    8  N   UNL     1     -41.590 -46.011   9.572  1.00  0.00    -0.303 N 
HETATM    9  N   UNL     1     -42.509 -46.928   9.917  1.00  0.00    -0.300 N 
ATOM     10  HN  UNL     1     -41.390 -45.649   8.640  1.00  0.00     0.186 HD
HETATM   11  C   UNL     1     -43.318 -47.524   8.880  1.00  0.00     0.177 C 
HETATM   12  C   UNL     1     -42.520 -47.208  11.258  1.00  0.00     0.032 A 
HETATM   13  C   UNL     1     -43.438 -48.198  11.884  1.00  0.00     0.070 C 
ENDBRANCH   4   5
ENDBRANCH   3   4
ENDBRANCH   1   3
BRANCH   1  14
HETATM   14  C   UNL     1     -39.665 -49.463  12.415  1.00  0.00     0.093 C 
HETATM   15  C   UNL     1     -40.323 -50.136  13.666  1.00  0.00     0.039 C 
HETATM   16  C   UNL     1     -41.747 -50.663  13.787  1.00  0.00     0.011 C 
HETATM   17  C   UNL     1     -39.323 -51.317  13.371  1.00  0.00     0.137 C 
HETATM   18  C   UNL     1     -42.109 -51.599  12.642  1.00  0.00     0.027 C 
HETATM   19  C   UNL     1     -41.105 -52.741  12.498  1.00  0.00     0.168 C 
HETATM   20  O   UNL     1     -39.772 -52.252  12.355  1.00  0.00    -0.385 OA
HETATM   21  C   UNL     1     -38.330 -50.201  12.875  1.00  0.00    -0.001 C 
HETATM   22  C   UNL     1     -37.404 -50.510  11.703  1.00  0.00     0.019 C 
HETATM   23  C   UNL     1     -37.489 -49.677  14.063  1.00  0.00     0.019 C 
ENDBRANCH   1  14
TORSDOF 4
ENDMDL
