MODEL 1
REMARK VINA RESULT:      -7.1      0.000      0.000
REMARK  5 active torsions:
REMARK  status: ('A' for Active; 'I' for Inactive)
REMARK    1  A    between atoms: N_5  and  C_6 
REMARK    2  A    between atoms: C_6  and  C_7 
REMARK    3  A    between atoms: C_7  and  O_8 
REMARK    4  A    between atoms: C_7  and  C_9 
REMARK    5  A    between atoms: C_9  and  N_10 
ROOT
HETATM    1  C   UNL     1     -39.096 -44.629   9.598  1.00  0.00     0.070 C 
HETATM    2  C   UNL     1     -40.225 -45.184  10.438  1.00  0.00     0.029 A 
HETATM    3  N   UNL     1     -40.539 -46.424  10.246  1.00  0.00    -0.300 N 
ATOM      4  HN  UNL     1     -40.025 -46.992   9.572  1.00  0.00     0.187 HD
HETATM    5  N   UNL     1     -41.574 -46.958  10.963  1.00  0.00    -0.254 N 
HETATM    6  C   UNL     1     -42.309 -46.253  11.901  1.00  0.00     0.283 A 
HETATM    7  O   UNL     1     -43.229 -46.751  12.546  1.00  0.00    -0.265 OA
HETATM    8  C   UNL     1     -41.903 -44.842  12.120  1.00  0.00     0.121 A 
HETATM    9  C   UNL     1     -42.620 -44.117  13.108  1.00  0.00     0.105 C 
HETATM   10  N   UNL     1     -43.166 -43.479  13.910  1.00  0.00    -0.191 NA
HETATM   11  C   UNL     1     -40.894 -44.289  11.422  1.00  0.00    -0.012 A 
HETATM   12  C   UNL     1     -40.394 -42.883  11.572  1.00  0.00     0.052 C 
ENDROOT
BRANCH   5  13
HETATM   13  C   UNL     1     -41.885 -48.363  10.696  1.00  0.00     0.186 C 
BRANCH  13  14
HETATM   14  C   UNL     1     -40.896 -49.347  11.345  1.00  0.00     0.166 C 
BRANCH  14  15
HETATM   15  O   UNL     1     -39.548 -48.930  11.091  1.00  0.00    -0.392 OA
HETATM   16  H   UNL     1     -38.972 -49.561  11.557  1.00  0.00     0.210 HD
ENDBRANCH  14  15
BRANCH  14  17
HETATM   17  C   UNL     1     -41.133 -49.565  12.865  1.00  0.00     0.306 C 
BRANCH  17  18
HETATM   18  N   UNL     1     -41.977 -50.734  13.188  1.00  0.00     0.095 N 
HETATM   19  C   UNL     1     -41.857 -51.813  12.199  1.00  0.00     0.277 C 
HETATM   20  C   UNL     1     -42.521 -53.083  12.735  1.00  0.00     0.069 C 
HETATM   21  C   UNL     1     -43.928 -52.830  13.203  1.00  0.00    -0.049 A 
HETATM   22  C   UNL     1     -44.808 -53.905  13.377  1.00  0.00     0.007 A 
HETATM   23  C   UNL     1     -44.335 -51.522  13.521  1.00  0.00    -0.024 A 
HETATM   24  C   UNL     1     -46.105 -53.682  13.830  1.00  0.00     0.001 A 
HETATM   25  C   UNL     1     -46.527 -52.386  14.119  1.00  0.00     0.001 A 
HETATM   26  C   UNL     1     -45.648 -51.310  13.965  1.00  0.00     0.009 A 
HETATM   27  C   UNL     1     -43.396 -50.344  13.323  1.00  0.00     0.311 C 
ENDBRANCH  17  18
ENDBRANCH  14  17
ENDBRANCH  13  14
ENDBRANCH   5  13
TORSDOF 5
ENDMDL
MODEL 2
REMARK VINA RESULT:      -7.0      2.031      2.480
REMARK  5 active torsions:
REMARK  status: ('A' for Active; 'I' for Inactive)
REMARK    1  A    between atoms: N_5  and  C_6 
REMARK    2  A    between atoms: C_6  and  C_7 
REMARK    3  A    between atoms: C_7  and  O_8 
REMARK    4  A    between atoms: C_7  and  C_9 
REMARK    5  A    between atoms: C_9  and  N_10 
ROOT
HETATM    1  C   UNL     1     -42.706 -46.159   9.684  1.00  0.00     0.070 C 
HETATM    2  C   UNL     1     -41.639 -46.209  10.757  1.00  0.00     0.029 A 
HETATM    3  N   UNL     1     -40.960 -47.305  10.852  1.00  0.00    -0.300 N 
ATOM      4  HN  UNL     1     -41.132 -48.081  10.211  1.00  0.00     0.187 HD
HETATM    5  N   UNL     1     -40.006 -47.404  11.828  1.00  0.00    -0.254 N 
HETATM    6  C   UNL     1     -39.710 -46.391  12.724  1.00  0.00     0.283 A 
HETATM    7  O   UNL     1     -38.842 -46.492  13.588  1.00  0.00    -0.265 OA
HETATM    8  C   UNL     1     -40.487 -45.136  12.567  1.00  0.00     0.121 A 
HETATM    9  C   UNL     1     -40.167 -44.072  13.453  1.00  0.00     0.105 C 
HETATM   10  N   UNL     1     -39.941 -43.167  14.144  1.00  0.00    -0.191 NA
HETATM   11  C   UNL     1     -41.436 -45.014  11.622  1.00  0.00    -0.012 A 
HETATM   12  C   UNL     1     -42.267 -43.792  11.368  1.00  0.00     0.052 C 
ENDROOT
BRANCH   5  13
HETATM   13  C   UNL     1     -39.276 -48.671  11.888  1.00  0.00     0.186 C 
BRANCH  13  14
HETATM   14  C   UNL     1     -40.161 -49.905  11.641  1.00  0.00     0.166 C 
BRANCH  14  15
HETATM   15  O   UNL     1     -40.403 -50.063  10.236  1.00  0.00    -0.392 OA
HETATM   16  H   UNL     1     -40.584 -51.009  10.092  1.00  0.00     0.210 HD
ENDBRANCH  14  15
BRANCH  14  17
HETATM   17  C   UNL     1     -39.597 -51.215  12.258  1.00  0.00     0.306 C 
BRANCH  17  18
HETATM   18  N   UNL     1     -40.577 -51.985  13.051  1.00  0.00     0.095 N 
HETATM   19  C   UNL     1     -40.007 -53.210  13.627  1.00  0.00     0.277 C 
HETATM   20  C   UNL     1     -40.976 -53.799  14.655  1.00  0.00     0.069 C 
HETATM   21  C   UNL     1     -42.361 -53.968  14.093  1.00  0.00    -0.049 A 
HETATM   22  C   UNL     1     -43.276 -54.811  14.736  1.00  0.00     0.007 A 
HETATM   23  C   UNL     1     -42.750 -53.234  12.957  1.00  0.00    -0.024 A 
HETATM   24  C   UNL     1     -44.566 -54.958  14.233  1.00  0.00     0.001 A 
HETATM   25  C   UNL     1     -44.951 -54.258  13.093  1.00  0.00     0.001 A 
HETATM   26  C   UNL     1     -44.049 -53.401  12.456  1.00  0.00     0.009 A 
HETATM   27  C   UNL     1     -41.765 -52.327  12.241  1.00  0.00     0.311 C 
ENDBRANCH  17  18
ENDBRANCH  14  17
ENDBRANCH  13  14
ENDBRANCH   5  13
TORSDOF 5
ENDMDL
MODEL 3
REMARK VINA RESULT:      -6.9      2.272      3.383
REMARK  5 active torsions:
REMARK  status: ('A' for Active; 'I' for Inactive)
REMARK    1  A    between atoms: N_5  and  C_6 
REMARK    2  A    between atoms: C_6  and  C_7 
REMARK    3  A    between atoms: C_7  and  O_8 
REMARK    4  A    between atoms: C_7  and  C_9 
REMARK    5  A    between atoms: C_9  and  N_10 
ROOT
HETATM    1  C   UNL     1     -42.442 -47.932   9.768  1.00  0.00     0.070 C 
HETATM    2  C   UNL     1     -41.473 -48.243  10.888  1.00  0.00     0.029 A 
HETATM    3  N   UNL     1     -41.251 -49.493  11.134  1.00  0.00    -0.300 N 
ATOM      4  HN  UNL     1     -41.697 -50.221  10.576  1.00  0.00     0.187 HD
HETATM    5  N   UNL     1     -40.404 -49.820  12.158  1.00  0.00    -0.254 N 
HETATM    6  C   UNL     1     -39.755 -48.889  12.950  1.00  0.00     0.283 A 
HETATM    7  O   UNL     1     -38.988 -49.199  13.860  1.00  0.00    -0.265 OA
HETATM    8  C   UNL     1     -40.007 -47.464  12.620  1.00  0.00     0.121 A 
HETATM    9  C   UNL     1     -39.316 -46.496  13.397  1.00  0.00     0.105 C 
HETATM   10  N   UNL     1     -38.771 -45.662  13.994  1.00  0.00    -0.191 NA
HETATM   11  C   UNL     1     -40.841 -47.114  11.624  1.00  0.00    -0.012 A 
HETATM   12  C   UNL     1     -41.157 -45.711  11.199  1.00  0.00     0.052 C 
ENDROOT
BRANCH   5  13
HETATM   13  C   UNL     1     -40.198 -51.250  12.392  1.00  0.00     0.186 C 
BRANCH  13  14
HETATM   14  C   UNL     1     -41.413 -52.117  12.018  1.00  0.00     0.166 C 
BRANCH  14  15
HETATM   15  O   UNL     1     -41.259 -52.631  10.688  1.00  0.00    -0.392 OA
HETATM   16  H   UNL     1     -40.309 -52.801  10.566  1.00  0.00     0.210 HD
ENDBRANCH  14  15
BRANCH  14  17
HETATM   17  C   UNL     1     -41.700 -53.264  13.028  1.00  0.00     0.306 C 
BRANCH  17  18
HETATM   18  N   UNL     1     -43.049 -53.222  13.627  1.00  0.00     0.095 N 
HETATM   19  C   UNL     1     -44.120 -53.275  12.624  1.00  0.00     0.277 C 
HETATM   20  C   UNL     1     -45.465 -53.516  13.313  1.00  0.00     0.069 C 
HETATM   21  C   UNL     1     -45.712 -52.536  14.427  1.00  0.00    -0.049 A 
HETATM   22  C   UNL     1     -47.009 -52.357  14.923  1.00  0.00     0.007 A 
HETATM   23  C   UNL     1     -44.630 -51.846  15.005  1.00  0.00    -0.024 A 
HETATM   24  C   UNL     1     -47.243 -51.467  15.968  1.00  0.00     0.001 A 
HETATM   25  C   UNL     1     -46.182 -50.758  16.527  1.00  0.00     0.001 A 
HETATM   26  C   UNL     1     -44.882 -50.945  16.049  1.00  0.00     0.009 A 
HETATM   27  C   UNL     1     -43.220 -52.019  14.468  1.00  0.00     0.311 C 
ENDBRANCH  17  18
ENDBRANCH  14  17
ENDBRANCH  13  14
ENDBRANCH   5  13
TORSDOF 5
ENDMDL
MODEL 4
REMARK VINA RESULT:      -6.8      3.956      7.478
REMARK  5 active torsions:
REMARK  status: ('A' for Active; 'I' for Inactive)
REMARK    1  A    between atoms: N_5  and  C_6 
REMARK    2  A    between atoms: C_6  and  C_7 
REMARK    3  A    between atoms: C_7  and  O_8 
REMARK    4  A    between atoms: C_7  and  C_9 
REMARK    5  A    between atoms: C_9  and  N_10 
ROOT
HETATM    1  C   UNL     1     -43.788 -54.531  15.245  1.00  0.00     0.070 C 
HETATM    2  C   UNL     1     -42.363 -54.298  14.792  1.00  0.00     0.029 A 
HETATM    3  N   UNL     1     -42.192 -53.465  13.817  1.00  0.00    -0.300 N 
ATOM      4  HN  UNL     1     -42.987 -52.979  13.401  1.00  0.00     0.187 HD
HETATM    5  N   UNL     1     -40.922 -53.247  13.356  1.00  0.00    -0.254 N 
HETATM    6  C   UNL     1     -39.795 -53.859  13.877  1.00  0.00     0.283 A 
HETATM    7  O   UNL     1     -38.660 -53.643  13.458  1.00  0.00    -0.265 OA
HETATM    8  C   UNL     1     -40.024 -54.785  15.014  1.00  0.00     0.121 A 
HETATM    9  C   UNL     1     -38.874 -55.390  15.587  1.00  0.00     0.105 C 
HETATM   10  N   UNL     1     -37.968 -55.905  16.099  1.00  0.00    -0.191 NA
HETATM   11  C   UNL     1     -41.262 -55.024  15.483  1.00  0.00    -0.012 A 
HETATM   12  C   UNL     1     -41.604 -55.927  16.630  1.00  0.00     0.052 C 
ENDROOT
BRANCH   5  13
HETATM   13  C   UNL     1     -40.794 -52.298  12.249  1.00  0.00     0.186 C 
BRANCH  13  14
HETATM   14  C   UNL     1     -40.738 -50.828  12.699  1.00  0.00     0.166 C 
BRANCH  14  15
HETATM   15  O   UNL     1     -39.580 -50.189  12.145  1.00  0.00    -0.392 OA
HETATM   16  H   UNL     1     -39.277 -49.544  12.809  1.00  0.00     0.210 HD
ENDBRANCH  14  15
BRANCH  14  17
HETATM   17  C   UNL     1     -42.026 -50.022  12.374  1.00  0.00     0.306 C 
BRANCH  17  18
HETATM   18  N   UNL     1     -42.987 -49.935  13.492  1.00  0.00     0.095 N 
HETATM   19  C   UNL     1     -42.361 -50.168  14.800  1.00  0.00     0.277 C 
HETATM   20  C   UNL     1     -43.335 -49.785  15.917  1.00  0.00     0.069 C 
HETATM   21  C   UNL     1     -44.675 -50.446  15.748  1.00  0.00    -0.049 A 
HETATM   22  C   UNL     1     -45.558 -50.518  16.832  1.00  0.00     0.007 A 
HETATM   23  C   UNL     1     -45.059 -50.939  14.487  1.00  0.00    -0.024 A 
HETATM   24  C   UNL     1     -46.809 -51.110  16.680  1.00  0.00     0.001 A 
HETATM   25  C   UNL     1     -47.186 -51.627  15.442  1.00  0.00     0.001 A 
HETATM   26  C   UNL     1     -46.317 -51.544  14.351  1.00  0.00     0.009 A 
HETATM   27  C   UNL     1     -44.107 -50.882  13.306  1.00  0.00     0.311 C 
ENDBRANCH  17  18
ENDBRANCH  14  17
ENDBRANCH  13  14
ENDBRANCH   5  13
TORSDOF 5
ENDMDL
MODEL 5
REMARK VINA RESULT:      -6.8      2.822      8.503
REMARK  5 active torsions:
REMARK  status: ('A' for Active; 'I' for Inactive)
REMARK    1  A    between atoms: N_5  and  C_6 
REMARK    2  A    between atoms: C_6  and  C_7 
REMARK    3  A    between atoms: C_7  and  O_8 
REMARK    4  A    between atoms: C_7  and  C_9 
REMARK    5  A    between atoms: C_9  and  N_10 
ROOT
HETATM    1  C   UNL     1     -39.726 -54.727  15.489  1.00  0.00     0.070 C 
HETATM    2  C   UNL     1     -40.880 -54.306  14.606  1.00  0.00     0.029 A 
HETATM    3  N   UNL     1     -40.597 -53.540  13.603  1.00  0.00    -0.300 N 
ATOM      4  HN  UNL     1     -39.633 -53.262  13.417  1.00  0.00     0.187 HD
HETATM    5  N   UNL     1     -41.615 -53.112  12.796  1.00  0.00    -0.254 N 
HETATM    6  C   UNL     1     -42.943 -53.457  12.980  1.00  0.00     0.283 A 
HETATM    7  O   UNL     1     -43.845 -53.072  12.238  1.00  0.00    -0.265 OA
HETATM    8  C   UNL     1     -43.230 -54.361  14.121  1.00  0.00     0.121 A 
HETATM    9  C   UNL     1     -44.582 -54.758  14.298  1.00  0.00     0.105 C 
HETATM   10  N   UNL     1     -45.669 -55.121  14.485  1.00  0.00    -0.191 NA
HETATM   11  C   UNL     1     -42.249 -54.791  14.935  1.00  0.00    -0.012 A 
HETATM   12  C   UNL     1     -42.423 -55.714  16.104  1.00  0.00     0.052 C 
ENDROOT
BRANCH   5  13
HETATM   13  C   UNL     1     -41.232 -52.243  11.683  1.00  0.00     0.186 C 
BRANCH  13  14
HETATM   14  C   UNL     1     -40.325 -51.072  12.097  1.00  0.00     0.166 C 
BRANCH  14  15
HETATM   15  O   UNL     1     -38.959 -51.506  12.159  1.00  0.00    -0.392 OA
HETATM   16  H   UNL     1     -38.913 -52.172  12.867  1.00  0.00     0.210 HD
ENDBRANCH  14  15
BRANCH  14  17
HETATM   17  C   UNL     1     -40.468 -49.816  11.193  1.00  0.00     0.306 C 
BRANCH  17  18
HETATM   18  N   UNL     1     -39.931 -48.575  11.787  1.00  0.00     0.095 N 
HETATM   19  C   UNL     1     -40.136 -48.504  13.239  1.00  0.00     0.277 C 
HETATM   20  C   UNL     1     -39.316 -47.350  13.822  1.00  0.00     0.069 C 
HETATM   21  C   UNL     1     -39.569 -46.056  13.100  1.00  0.00    -0.049 A 
HETATM   22  C   UNL     1     -39.210 -44.842  13.698  1.00  0.00     0.007 A 
HETATM   23  C   UNL     1     -40.113 -46.073  11.802  1.00  0.00    -0.024 A 
HETATM   24  C   UNL     1     -39.422 -43.640  13.028  1.00  0.00     0.001 A 
HETATM   25  C   UNL     1     -39.986 -43.646  11.754  1.00  0.00     0.001 A 
HETATM   26  C   UNL     1     -40.332 -44.855  11.143  1.00  0.00     0.009 A 
HETATM   27  C   UNL     1     -40.521 -47.380  11.146  1.00  0.00     0.311 C 
ENDBRANCH  17  18
ENDBRANCH  14  17
ENDBRANCH  13  14
ENDBRANCH   5  13
TORSDOF 5
ENDMDL
MODEL 6
REMARK VINA RESULT:      -6.7      2.319      8.371
REMARK  5 active torsions:
REMARK  status: ('A' for Active; 'I' for Inactive)
REMARK    1  A    between atoms: N_5  and  C_6 
REMARK    2  A    between atoms: C_6  and  C_7 
REMARK    3  A    between atoms: C_7  and  O_8 
REMARK    4  A    between atoms: C_7  and  C_9 
REMARK    5  A    between atoms: C_9  and  N_10 
ROOT
HETATM    1  C   UNL     1     -46.054 -52.468  12.466  1.00  0.00     0.070 C 
HETATM    2  C   UNL     1     -44.666 -52.935  12.850  1.00  0.00     0.029 A 
HETATM    3  N   UNL     1     -43.675 -52.397  12.217  1.00  0.00    -0.300 N 
ATOM      4  HN  UNL     1     -43.837 -51.678  11.511  1.00  0.00     0.187 HD
HETATM    5  N   UNL     1     -42.405 -52.811  12.512  1.00  0.00    -0.254 N 
HETATM    6  C   UNL     1     -42.108 -53.772  13.463  1.00  0.00     0.283 A 
HETATM    7  O   UNL     1     -40.960 -54.125  13.725  1.00  0.00    -0.265 OA
HETATM    8  C   UNL     1     -43.266 -54.346  14.193  1.00  0.00     0.121 A 
HETATM    9  C   UNL     1     -42.975 -55.303  15.201  1.00  0.00     0.105 C 
HETATM   10  N   UNL     1     -42.795 -56.084  16.042  1.00  0.00    -0.191 NA
HETATM   11  C   UNL     1     -44.526 -53.963  13.917  1.00  0.00    -0.012 A 
HETATM   12  C   UNL     1     -45.763 -54.466  14.600  1.00  0.00     0.052 C 
ENDROOT
BRANCH   5  13
HETATM   13  C   UNL     1     -41.328 -52.170  11.758  1.00  0.00     0.186 C 
BRANCH  13  14
HETATM   14  C   UNL     1     -40.821 -50.864  12.394  1.00  0.00     0.166 C 
BRANCH  14  15
HETATM   15  O   UNL     1     -39.815 -51.153  13.373  1.00  0.00    -0.392 OA
HETATM   16  H   UNL     1     -38.966 -51.177  12.897  1.00  0.00     0.210 HD
ENDBRANCH  14  15
BRANCH  14  17
HETATM   17  C   UNL     1     -40.310 -49.821  11.362  1.00  0.00     0.306 C 
BRANCH  17  18
HETATM   18  N   UNL     1     -40.933 -48.487  11.486  1.00  0.00     0.095 N 
HETATM   19  C   UNL     1     -41.934 -48.228  10.442  1.00  0.00     0.277 C 
HETATM   20  C   UNL     1     -42.732 -46.970  10.792  1.00  0.00     0.069 C 
HETATM   21  C   UNL     1     -41.838 -45.799  11.093  1.00  0.00    -0.049 A 
HETATM   22  C   UNL     1     -42.360 -44.500  11.072  1.00  0.00     0.007 A 
HETATM   23  C   UNL     1     -40.495 -46.017  11.452  1.00  0.00    -0.024 A 
HETATM   24  C   UNL     1     -41.544 -43.412  11.370  1.00  0.00     0.001 A 
HETATM   25  C   UNL     1     -40.206 -43.616  11.697  1.00  0.00     0.001 A 
HETATM   26  C   UNL     1     -39.682 -44.912  11.737  1.00  0.00     0.009 A 
HETATM   27  C   UNL     1     -39.911 -47.419  11.465  1.00  0.00     0.311 C 
ENDBRANCH  17  18
ENDBRANCH  14  17
ENDBRANCH  13  14
ENDBRANCH   5  13
TORSDOF 5
ENDMDL
MODEL 7
REMARK VINA RESULT:      -6.5      4.109      5.402
REMARK  5 active torsions:
REMARK  status: ('A' for Active; 'I' for Inactive)
REMARK    1  A    between atoms: N_5  and  C_6 
REMARK    2  A    between atoms: C_6  and  C_7 
REMARK    3  A    between atoms: C_7  and  O_8 
REMARK    4  A    between atoms: C_7  and  C_9 
REMARK    5  A    between atoms: C_9  and  N_10 
ROOT
HETATM    1  C   UNL     1     -39.152 -48.908  11.867  1.00  0.00     0.070 C 
HETATM    2  C   UNL     1     -38.941 -49.827  13.050  1.00  0.00     0.029 A 
HETATM    3  N   UNL     1     -39.482 -51.000  12.980  1.00  0.00    -0.300 N 
ATOM      4  HN  UNL     1     -40.003 -51.284  12.150  1.00  0.00     0.187 HD
HETATM    5  N   UNL     1     -39.342 -51.852  14.041  1.00  0.00    -0.254 N 
HETATM    6  C   UNL     1     -38.641 -51.541  15.193  1.00  0.00     0.283 A 
HETATM    7  O   UNL     1     -38.514 -52.323  16.134  1.00  0.00    -0.265 OA
HETATM    8  C   UNL     1     -38.007 -50.200  15.229  1.00  0.00     0.121 A 
HETATM    9  C   UNL     1     -37.250 -49.881  16.387  1.00  0.00     0.105 C 
HETATM   10  N   UNL     1     -36.612 -49.570  17.306  1.00  0.00    -0.191 NA
HETATM   11  C   UNL     1     -38.136 -49.339  14.203  1.00  0.00    -0.012 A 
HETATM   12  C   UNL     1     -37.529 -47.970  14.128  1.00  0.00     0.052 C 
ENDROOT
BRANCH   5  13
HETATM   13  C   UNL     1     -39.981 -53.161  13.904  1.00  0.00     0.186 C 
BRANCH  13  14
HETATM   14  C   UNL     1     -41.112 -53.190  12.861  1.00  0.00     0.166 C 
BRANCH  14  15
HETATM   15  O   UNL     1     -40.568 -53.410  11.553  1.00  0.00    -0.392 OA
HETATM   16  H   UNL     1     -40.751 -52.603  11.039  1.00  0.00     0.210 HD
ENDBRANCH  14  15
BRANCH  14  17
HETATM   17  C   UNL     1     -42.232 -54.219  13.178  1.00  0.00     0.306 C 
BRANCH  17  18
HETATM   18  N   UNL     1     -43.541 -53.614  13.497  1.00  0.00     0.095 N 
HETATM   19  C   UNL     1     -43.677 -52.246  12.980  1.00  0.00     0.277 C 
HETATM   20  C   UNL     1     -45.134 -51.792  13.092  1.00  0.00     0.069 C 
HETATM   21  C   UNL     1     -45.681 -51.984  14.480  1.00  0.00    -0.049 A 
HETATM   22  C   UNL     1     -46.842 -51.307  14.872  1.00  0.00     0.007 A 
HETATM   23  C   UNL     1     -45.056 -52.887  15.360  1.00  0.00    -0.024 A 
HETATM   24  C   UNL     1     -47.366 -51.495  16.148  1.00  0.00     0.001 A 
HETATM   25  C   UNL     1     -46.737 -52.364  17.036  1.00  0.00     0.001 A 
HETATM   26  C   UNL     1     -45.588 -53.058  16.646  1.00  0.00     0.009 A 
HETATM   27  C   UNL     1     -43.788 -53.618  14.955  1.00  0.00     0.311 C 
ENDBRANCH  17  18
ENDBRANCH  14  17
ENDBRANCH  13  14
ENDBRANCH   5  13
TORSDOF 5
ENDMDL
MODEL 8
REMARK VINA RESULT:      -6.5      4.852      8.001
REMARK  5 active torsions:
REMARK  status: ('A' for Active; 'I' for Inactive)
REMARK    1  A    between atoms: N_5  and  C_6 
REMARK    2  A    between atoms: C_6  and  C_7 
REMARK    3  A    between atoms: C_7  and  O_8 
REMARK    4  A    between atoms: C_7  and  C_9 
REMARK    5  A    between atoms: C_9  and  N_10 
ROOT
HETATM    1  C   UNL     1     -43.473 -54.553  17.496  1.00  0.00     0.070 C 
HETATM    2  C   UNL     1     -42.427 -54.558  16.401  1.00  0.00     0.029 A 
HETATM    3  N   UNL     1     -42.794 -54.113  15.244  1.00  0.00    -0.300 N 
ATOM      4  HN  UNL     1     -43.740 -53.758  15.098  1.00  0.00     0.187 HD
HETATM    5  N   UNL     1     -41.889 -54.128  14.218  1.00  0.00    -0.254 N 
HETATM    6  C   UNL     1     -40.588 -54.583  14.342  1.00  0.00     0.283 A 
HETATM    7  O   UNL     1     -39.783 -54.579  13.413  1.00  0.00    -0.265 OA
HETATM    8  C   UNL     1     -40.190 -55.058  15.691  1.00  0.00     0.121 A 
HETATM    9  C   UNL     1     -38.846 -55.490  15.846  1.00  0.00     0.105 C 
HETATM   10  N   UNL     1     -37.757 -55.847  16.032  1.00  0.00    -0.191 NA
HETATM   11  C   UNL     1     -41.062 -55.062  16.716  1.00  0.00    -0.012 A 
HETATM   12  C   UNL     1     -40.764 -55.505  18.117  1.00  0.00     0.052 C 
ENDROOT
BRANCH   5  13
HETATM   13  C   UNL     1     -42.366 -53.617  12.932  1.00  0.00     0.186 C 
BRANCH  13  14
HETATM   14  C   UNL     1     -41.783 -52.243  12.559  1.00  0.00     0.166 C 
BRANCH  14  15
HETATM   15  O   UNL     1     -41.293 -52.267  11.211  1.00  0.00    -0.392 OA
HETATM   16  H   UNL     1     -42.068 -52.148  10.634  1.00  0.00     0.210 HD
ENDBRANCH  14  15
BRANCH  14  17
HETATM   17  C   UNL     1     -42.772 -51.063  12.770  1.00  0.00     0.306 C 
BRANCH  17  18
HETATM   18  N   UNL     1     -43.944 -51.394  13.605  1.00  0.00     0.095 N 
HETATM   19  C   UNL     1     -45.218 -51.196  12.901  1.00  0.00     0.277 C 
HETATM   20  C   UNL     1     -46.359 -51.820  13.708  1.00  0.00     0.069 C 
HETATM   21  C   UNL     1     -46.364 -51.348  15.136  1.00  0.00    -0.049 A 
HETATM   22  C   UNL     1     -47.514 -51.509  15.919  1.00  0.00     0.007 A 
HETATM   23  C   UNL     1     -45.195 -50.801  15.696  1.00  0.00    -0.024 A 
HETATM   24  C   UNL     1     -47.520 -51.093  17.247  1.00  0.00     0.001 A 
HETATM   25  C   UNL     1     -46.377 -50.523  17.802  1.00  0.00     0.001 A 
HETATM   26  C   UNL     1     -45.220 -50.376  17.032  1.00  0.00     0.009 A 
HETATM   27  C   UNL     1     -43.945 -50.607  14.856  1.00  0.00     0.311 C 
ENDBRANCH  17  18
ENDBRANCH  14  17
ENDBRANCH  13  14
ENDBRANCH   5  13
TORSDOF 5
ENDMDL
MODEL 9
REMARK VINA RESULT:      -6.5      2.554      4.150
REMARK  5 active torsions:
REMARK  status: ('A' for Active; 'I' for Inactive)
REMARK    1  A    between atoms: N_5  and  C_6 
REMARK    2  A    between atoms: C_6  and  C_7 
REMARK    3  A    between atoms: C_7  and  O_8 
REMARK    4  A    between atoms: C_7  and  C_9 
REMARK    5  A    between atoms: C_9  and  N_10 
ROOT
HETATM    1  C   UNL     1     -39.181 -48.726  16.301  1.00  0.00     0.070 C 
HETATM    2  C   UNL     1     -39.428 -49.000  14.834  1.00  0.00     0.029 A 
HETATM    3  N   UNL     1     -39.510 -50.241  14.479  1.00  0.00    -0.300 N 
ATOM      4  HN  UNL     1     -39.433 -50.986  15.171  1.00  0.00     0.187 HD
HETATM    5  N   UNL     1     -39.702 -50.534  13.156  1.00  0.00    -0.254 N 
HETATM    6  C   UNL     1     -39.826 -49.577  12.164  1.00  0.00     0.283 A 
HETATM    7  O   UNL     1     -40.010 -49.858  10.980  1.00  0.00    -0.265 OA
HETATM    8  C   UNL     1     -39.758 -48.163  12.609  1.00  0.00     0.121 A 
HETATM    9  C   UNL     1     -39.925 -47.169  11.608  1.00  0.00     0.105 C 
HETATM   10  N   UNL     1     -40.063 -46.315  10.834  1.00  0.00    -0.191 NA
HETATM   11  C   UNL     1     -39.562 -47.846  13.902  1.00  0.00    -0.012 A 
HETATM   12  C   UNL     1     -39.490 -46.457  14.461  1.00  0.00     0.052 C 
ENDROOT
BRANCH   5  13
HETATM   13  C   UNL     1     -39.780 -51.955  12.817  1.00  0.00     0.186 C 
BRANCH  13  14
HETATM   14  C   UNL     1     -41.194 -52.419  12.424  1.00  0.00     0.166 C 
BRANCH  14  15
HETATM   15  O   UNL     1     -41.292 -52.541  10.999  1.00  0.00    -0.392 OA
HETATM   16  H   UNL     1     -40.887 -51.738  10.625  1.00  0.00     0.210 HD
ENDBRANCH  14  15
BRANCH  14  17
HETATM   17  C   UNL     1     -41.642 -53.731  13.127  1.00  0.00     0.306 C 
BRANCH  17  18
HETATM   18  N   UNL     1     -42.985 -53.665  13.737  1.00  0.00     0.095 N 
HETATM   19  C   UNL     1     -44.060 -53.965  12.782  1.00  0.00     0.277 C 
HETATM   20  C   UNL     1     -45.380 -54.159  13.531  1.00  0.00     0.069 C 
HETATM   21  C   UNL     1     -45.679 -53.012  14.456  1.00  0.00    -0.049 A 
HETATM   22  C   UNL     1     -46.981 -52.827  14.938  1.00  0.00     0.007 A 
HETATM   23  C   UNL     1     -44.639 -52.163  14.877  1.00  0.00    -0.024 A 
HETATM   24  C   UNL     1     -47.262 -51.778  15.811  1.00  0.00     0.001 A 
HETATM   25  C   UNL     1     -46.245 -50.915  16.211  1.00  0.00     0.001 A 
HETATM   26  C   UNL     1     -44.939 -51.104  15.747  1.00  0.00     0.009 A 
HETATM   27  C   UNL     1     -43.226 -52.342  14.351  1.00  0.00     0.311 C 
ENDBRANCH  17  18
ENDBRANCH  14  17
ENDBRANCH  13  14
ENDBRANCH   5  13
TORSDOF 5
ENDMDL
