MODEL 1
REMARK VINA RESULT:      -5.7      0.000      0.000
REMARK  6 active torsions:
REMARK  status: ('A' for Active; 'I' for Inactive)
REMARK    1  A    between atoms: C_2  and  C_3 
REMARK    2  A    between atoms: C_3  and  C_4 
REMARK    3  A    between atoms: C_4  and  C_5 
REMARK       I    between atoms: C_5  and  N_7 
REMARK    4  A    between atoms: N_7  and  C_8 
REMARK    5  A    between atoms: C_8  and  C_9 
REMARK    6  A    between atoms: C_12  and  N_16 
ROOT
HETATM    1  C   UNL     1     -42.135 -52.483  12.829  1.00  0.00    -0.025 A 
HETATM    2  C   UNL     1     -42.737 -51.325  13.310  1.00  0.00     0.014 A 
HETATM    3  C   UNL     1     -42.407 -50.087  12.748  1.00  0.00     0.049 A 
HETATM    4  C   UNL     1     -41.474 -49.994  11.713  1.00  0.00     0.103 A 
HETATM    5  N   UNL     1     -40.860 -51.113  11.278  1.00  0.00    -0.352 N 
ATOM      6  HN  UNL     1     -40.151 -51.061  10.546  1.00  0.00     0.166 HD
HETATM    7  C   UNL     1     -41.194 -52.313  11.826  1.00  0.00     0.098 A 
ENDROOT
BRANCH   1   8
HETATM    8  C   UNL     1     -42.521 -53.840  13.330  1.00  0.00     0.162 C 
BRANCH   8   9
HETATM    9  N   UNL     1     -43.598 -53.830  14.297  1.00  0.00    -0.357 N 
HETATM   10  C   UNL     1     -44.842 -54.291  13.918  1.00  0.00     0.217 C 
HETATM   11  O   UNL     1     -45.074 -54.697  12.783  1.00  0.00    -0.274 OA
HETATM   12  H   UNL     1     -43.468 -53.379  15.195  1.00  0.00     0.162 HD
BRANCH  10  13
HETATM   13  C   UNL     1     -45.904 -54.225  15.002  1.00  0.00     0.103 C 
BRANCH  13  14
HETATM   14  C   UNL     1     -46.998 -53.218  14.631  1.00  0.00     0.009 C 
BRANCH  14  15
HETATM   15  C   UNL     1     -46.443 -51.819  14.373  1.00  0.00    -0.004 C 
HETATM   16  C   UNL     1     -46.562 -51.438  12.905  1.00  0.00     0.005 C 
ENDBRANCH  14  15
ENDBRANCH  13  14
ENDBRANCH  10  13
ENDBRANCH   8   9
ENDBRANCH   1   8
BRANCH   4  17
HETATM   17  N   UNL     1     -41.120 -48.774  11.172  1.00  0.00    -0.363 N 
HETATM   18  C   UNL     1     -40.111 -47.899  11.787  1.00  0.00     0.150 C 
HETATM   19  C   UNL     1     -40.760 -46.636  12.381  1.00  0.00     0.187 C 
HETATM   20  O   UNL     1     -41.568 -45.948  11.414  1.00  0.00    -0.388 OA
HETATM   21  C   UNL     1     -42.625 -46.810  10.957  1.00  0.00     0.187 C 
HETATM   22  C   UNL     1     -42.065 -48.073  10.287  1.00  0.00     0.150 C 
ENDBRANCH   4  17
TORSDOF 6
ENDMDL
MODEL 2
REMARK VINA RESULT:      -5.7      2.087      6.790
REMARK  6 active torsions:
REMARK  status: ('A' for Active; 'I' for Inactive)
REMARK    1  A    between atoms: C_2  and  C_3 
REMARK    2  A    between atoms: C_3  and  C_4 
REMARK    3  A    between atoms: C_4  and  C_5 
REMARK       I    between atoms: C_5  and  N_7 
REMARK    4  A    between atoms: N_7  and  C_8 
REMARK    5  A    between atoms: C_8  and  C_9 
REMARK    6  A    between atoms: C_12  and  N_16 
ROOT
HETATM    1  C   UNL     1     -42.141 -49.827  12.081  1.00  0.00    -0.025 A 
HETATM    2  C   UNL     1     -43.234 -49.493  12.871  1.00  0.00     0.014 A 
HETATM    3  C   UNL     1     -43.811 -50.460  13.702  1.00  0.00     0.049 A 
HETATM    4  C   UNL     1     -43.308 -51.762  13.746  1.00  0.00     0.103 A 
HETATM    5  N   UNL     1     -42.274 -52.095  12.946  1.00  0.00    -0.352 N 
ATOM      6  HN  UNL     1     -41.914 -53.050  12.939  1.00  0.00     0.166 HD
HETATM    7  C   UNL     1     -41.715 -51.145  12.148  1.00  0.00     0.098 A 
ENDROOT
BRANCH   1   8
HETATM    8  C   UNL     1     -41.428 -48.809  11.246  1.00  0.00     0.162 C 
BRANCH   8   9
HETATM    9  N   UNL     1     -42.122 -48.456  10.025  1.00  0.00    -0.357 N 
HETATM   10  C   UNL     1     -42.772 -47.241   9.952  1.00  0.00     0.217 C 
HETATM   11  O   UNL     1     -42.798 -46.452  10.893  1.00  0.00    -0.274 OA
HETATM   12  H   UNL     1     -42.227 -49.141   9.287  1.00  0.00     0.162 HD
BRANCH  10  13
HETATM   13  C   UNL     1     -43.479 -46.974   8.635  1.00  0.00     0.103 C 
BRANCH  13  14
HETATM   14  C   UNL     1     -44.936 -46.563   8.872  1.00  0.00     0.009 C 
BRANCH  14  15
HETATM   15  C   UNL     1     -45.775 -47.697   9.460  1.00  0.00    -0.004 C 
HETATM   16  C   UNL     1     -46.402 -48.547   8.365  1.00  0.00     0.005 C 
ENDBRANCH  14  15
ENDBRANCH  13  14
ENDBRANCH  10  13
ENDBRANCH   8   9
ENDBRANCH   1   8
BRANCH   4  17
HETATM   17  N   UNL     1     -43.889 -52.731  14.540  1.00  0.00    -0.363 N 
HETATM   18  C   UNL     1     -43.102 -53.604  15.424  1.00  0.00     0.150 C 
HETATM   19  C   UNL     1     -43.092 -55.054  14.907  1.00  0.00     0.187 C 
HETATM   20  O   UNL     1     -44.422 -55.549  14.687  1.00  0.00    -0.388 OA
HETATM   21  C   UNL     1     -45.090 -54.737  13.705  1.00  0.00     0.187 C 
HETATM   22  C   UNL     1     -45.204 -53.278  14.169  1.00  0.00     0.150 C 
ENDBRANCH   4  17
TORSDOF 6
ENDMDL
MODEL 3
REMARK VINA RESULT:      -5.6      1.947      6.805
REMARK  6 active torsions:
REMARK  status: ('A' for Active; 'I' for Inactive)
REMARK    1  A    between atoms: C_2  and  C_3 
REMARK    2  A    between atoms: C_3  and  C_4 
REMARK    3  A    between atoms: C_4  and  C_5 
REMARK       I    between atoms: C_5  and  N_7 
REMARK    4  A    between atoms: N_7  and  C_8 
REMARK    5  A    between atoms: C_8  and  C_9 
REMARK    6  A    between atoms: C_12  and  N_16 
ROOT
HETATM    1  C   UNL     1     -41.413 -49.777  11.806  1.00  0.00    -0.025 A 
HETATM    2  C   UNL     1     -40.604 -50.896  11.652  1.00  0.00     0.014 A 
HETATM    3  C   UNL     1     -41.090 -52.159  12.010  1.00  0.00     0.049 A 
HETATM    4  C   UNL     1     -42.378 -52.312  12.527  1.00  0.00     0.103 A 
HETATM    5  N   UNL     1     -43.146 -51.219  12.715  1.00  0.00    -0.352 N 
ATOM      6  HN  UNL     1     -44.077 -51.308  13.123  1.00  0.00     0.166 HD
HETATM    7  C   UNL     1     -42.667 -49.998  12.356  1.00  0.00     0.098 A 
ENDROOT
BRANCH   1   8
HETATM    8  C   UNL     1     -40.978 -48.418  11.352  1.00  0.00     0.162 C 
BRANCH   8   9
HETATM    9  N   UNL     1     -41.651 -47.950  10.158  1.00  0.00    -0.357 N 
HETATM   10  C   UNL     1     -42.526 -46.887  10.256  1.00  0.00     0.217 C 
HETATM   11  O   UNL     1     -42.768 -46.333  11.324  1.00  0.00    -0.274 OA
HETATM   12  H   UNL     1     -41.571 -48.472   9.294  1.00  0.00     0.162 HD
BRANCH  10  13
HETATM   13  C   UNL     1     -43.189 -46.484   8.950  1.00  0.00     0.103 C 
BRANCH  13  14
HETATM   14  C   UNL     1     -44.237 -47.519   8.529  1.00  0.00     0.009 C 
BRANCH  14  15
HETATM   15  C   UNL     1     -45.472 -47.500   9.428  1.00  0.00    -0.004 C 
HETATM   16  C   UNL     1     -46.605 -48.320   8.829  1.00  0.00     0.005 C 
ENDBRANCH  14  15
ENDBRANCH  13  14
ENDBRANCH  10  13
ENDBRANCH   8   9
ENDBRANCH   1   8
BRANCH   4  17
HETATM   17  N   UNL     1     -42.857 -53.550  12.911  1.00  0.00    -0.363 N 
HETATM   18  C   UNL     1     -44.252 -53.959  12.694  1.00  0.00     0.150 C 
HETATM   19  C   UNL     1     -45.017 -54.049  14.026  1.00  0.00     0.187 C 
HETATM   20  O   UNL     1     -44.340 -54.888  14.973  1.00  0.00    -0.388 OA
HETATM   21  C   UNL     1     -43.033 -54.354  15.254  1.00  0.00     0.187 C 
HETATM   22  C   UNL     1     -42.172 -54.289  13.984  1.00  0.00     0.150 C 
ENDBRANCH   4  17
TORSDOF 6
ENDMDL
MODEL 4
REMARK VINA RESULT:      -5.5      1.670      2.294
REMARK  6 active torsions:
REMARK  status: ('A' for Active; 'I' for Inactive)
REMARK    1  A    between atoms: C_2  and  C_3 
REMARK    2  A    between atoms: C_3  and  C_4 
REMARK    3  A    between atoms: C_4  and  C_5 
REMARK       I    between atoms: C_5  and  N_7 
REMARK    4  A    between atoms: N_7  and  C_8 
REMARK    5  A    between atoms: C_8  and  C_9 
REMARK    6  A    between atoms: C_12  and  N_16 
ROOT
HETATM    1  C   UNL     1     -41.497 -50.549  11.913  1.00  0.00    -0.025 A 
HETATM    2  C   UNL     1     -42.528 -49.679  12.244  1.00  0.00     0.014 A 
HETATM    3  C   UNL     1     -42.459 -48.338  11.850  1.00  0.00     0.049 A 
HETATM    4  C   UNL     1     -41.363 -47.857  11.131  1.00  0.00     0.103 A 
HETATM    5  N   UNL     1     -40.343 -48.694  10.847  1.00  0.00    -0.352 N 
ATOM      6  HN  UNL     1     -39.519 -48.352  10.352  1.00  0.00     0.166 HD
HETATM    7  C   UNL     1     -40.425 -49.997  11.229  1.00  0.00     0.098 A 
ENDROOT
BRANCH   1   8
HETATM    8  C   UNL     1     -41.564 -52.011  12.228  1.00  0.00     0.162 C 
BRANCH   8   9
HETATM    9  N   UNL     1     -42.890 -52.581  12.108  1.00  0.00    -0.357 N 
HETATM   10  C   UNL     1     -43.538 -53.015  13.247  1.00  0.00     0.217 C 
HETATM   11  O   UNL     1     -43.024 -52.950  14.359  1.00  0.00    -0.274 OA
HETATM   12  H   UNL     1     -43.280 -52.767  11.192  1.00  0.00     0.162 HD
BRANCH  10  13
HETATM   13  C   UNL     1     -44.916 -53.608  13.010  1.00  0.00     0.103 C 
BRANCH  13  14
HETATM   14  C   UNL     1     -45.877 -52.549  12.460  1.00  0.00     0.009 C 
BRANCH  14  15
HETATM   15  C   UNL     1     -45.973 -51.321  13.364  1.00  0.00    -0.004 C 
HETATM   16  C   UNL     1     -46.771 -51.623  14.625  1.00  0.00     0.005 C 
ENDBRANCH  14  15
ENDBRANCH  13  14
ENDBRANCH  10  13
ENDBRANCH   8   9
ENDBRANCH   1   8
BRANCH   4  17
HETATM   17  N   UNL     1     -41.271 -46.529  10.762  1.00  0.00    -0.363 N 
HETATM   18  C   UNL     1     -39.987 -45.818  10.683  1.00  0.00     0.150 C 
HETATM   19  C   UNL     1     -39.863 -44.770  11.804  1.00  0.00     0.187 C 
HETATM   20  O   UNL     1     -40.986 -43.876  11.822  1.00  0.00    -0.388 OA
HETATM   21  C   UNL     1     -42.198 -44.617  12.047  1.00  0.00     0.187 C 
HETATM   22  C   UNL     1     -42.437 -45.648  10.934  1.00  0.00     0.150 C 
ENDBRANCH   4  17
TORSDOF 6
ENDMDL
MODEL 5
REMARK VINA RESULT:      -5.5      1.847      2.354
REMARK  6 active torsions:
REMARK  status: ('A' for Active; 'I' for Inactive)
REMARK    1  A    between atoms: C_2  and  C_3 
REMARK    2  A    between atoms: C_3  and  C_4 
REMARK    3  A    between atoms: C_4  and  C_5 
REMARK       I    between atoms: C_5  and  N_7 
REMARK    4  A    between atoms: N_7  and  C_8 
REMARK    5  A    between atoms: C_8  and  C_9 
REMARK    6  A    between atoms: C_12  and  N_16 
ROOT
HETATM    1  C   UNL     1     -42.198 -53.936  14.134  1.00  0.00    -0.025 A 
HETATM    2  C   UNL     1     -41.932 -52.711  14.734  1.00  0.00     0.014 A 
HETATM    3  C   UNL     1     -41.127 -51.775  14.075  1.00  0.00     0.049 A 
HETATM    4  C   UNL     1     -40.580 -52.056  12.821  1.00  0.00     0.103 A 
HETATM    5  N   UNL     1     -40.804 -53.263  12.260  1.00  0.00    -0.352 N 
ATOM      6  HN  UNL     1     -40.385 -53.499  11.361  1.00  0.00     0.166 HD
HETATM    7  C   UNL     1     -41.595 -54.161  12.907  1.00  0.00     0.098 A 
ENDROOT
BRANCH   1   8
HETATM    8  C   UNL     1     -43.127 -54.934  14.753  1.00  0.00     0.162 C 
BRANCH   8   9
HETATM    9  N   UNL     1     -44.413 -54.387  15.135  1.00  0.00    -0.357 N 
HETATM   10  C   UNL     1     -45.454 -54.430  14.230  1.00  0.00     0.217 C 
HETATM   11  O   UNL     1     -45.326 -54.902  13.104  1.00  0.00    -0.274 OA
HETATM   12  H   UNL     1     -44.508 -53.876  16.004  1.00  0.00     0.162 HD
BRANCH  10  13
HETATM   13  C   UNL     1     -46.754 -53.819  14.724  1.00  0.00     0.103 C 
BRANCH  13  14
HETATM   14  C   UNL     1     -46.599 -52.310  14.939  1.00  0.00     0.009 C 
BRANCH  14  15
HETATM   15  C   UNL     1     -46.445 -51.545  13.625  1.00  0.00    -0.004 C 
HETATM   16  C   UNL     1     -45.023 -51.033  13.446  1.00  0.00     0.005 C 
ENDBRANCH  14  15
ENDBRANCH  13  14
ENDBRANCH  10  13
ENDBRANCH   8   9
ENDBRANCH   1   8
BRANCH   4  17
HETATM   17  N   UNL     1     -39.760 -51.152  12.175  1.00  0.00    -0.363 N 
HETATM   18  C   UNL     1     -38.405 -50.834  12.648  1.00  0.00     0.150 C 
HETATM   19  C   UNL     1     -38.335 -49.402  13.210  1.00  0.00     0.187 C 
HETATM   20  O   UNL     1     -38.829 -48.437  12.269  1.00  0.00    -0.388 OA
HETATM   21  C   UNL     1     -40.205 -48.718  11.955  1.00  0.00     0.187 C 
HETATM   22  C   UNL     1     -40.361 -50.110  11.326  1.00  0.00     0.150 C 
ENDBRANCH   4  17
TORSDOF 6
ENDMDL
MODEL 6
REMARK VINA RESULT:      -5.3      3.096      7.328
REMARK  6 active torsions:
REMARK  status: ('A' for Active; 'I' for Inactive)
REMARK    1  A    between atoms: C_2  and  C_3 
REMARK    2  A    between atoms: C_3  and  C_4 
REMARK    3  A    between atoms: C_4  and  C_5 
REMARK       I    between atoms: C_5  and  N_7 
REMARK    4  A    between atoms: N_7  and  C_8 
REMARK    5  A    between atoms: C_8  and  C_9 
REMARK    6  A    between atoms: C_12  and  N_16 
ROOT
HETATM    1  C   UNL     1     -40.569 -52.968  13.566  1.00  0.00    -0.025 A 
HETATM    2  C   UNL     1     -41.224 -53.710  14.543  1.00  0.00     0.014 A 
HETATM    3  C   UNL     1     -42.577 -54.028  14.382  1.00  0.00     0.049 A 
HETATM    4  C   UNL     1     -43.285 -53.605  13.255  1.00  0.00     0.103 A 
HETATM    5  N   UNL     1     -42.658 -52.849  12.330  1.00  0.00    -0.352 N 
ATOM      6  HN  UNL     1     -43.168 -52.503  11.517  1.00  0.00     0.166 HD
HETATM    7  C   UNL     1     -41.341 -52.553  12.492  1.00  0.00     0.098 A 
ENDROOT
BRANCH   1   8
HETATM    8  C   UNL     1     -39.102 -52.681  13.643  1.00  0.00     0.162 C 
BRANCH   8   9
HETATM    9  N   UNL     1     -38.758 -51.294  13.408  1.00  0.00    -0.357 N 
HETATM   10  C   UNL     1     -37.643 -50.999  12.650  1.00  0.00     0.217 C 
HETATM   11  O   UNL     1     -36.921 -51.872  12.178  1.00  0.00    -0.274 OA
HETATM   12  H   UNL     1     -39.259 -50.559  13.893  1.00  0.00     0.162 HD
BRANCH  10  13
HETATM   13  C   UNL     1     -37.365 -49.516  12.475  1.00  0.00     0.103 C 
BRANCH  13  14
HETATM   14  C   UNL     1     -38.189 -48.687  13.466  1.00  0.00     0.009 C 
BRANCH  14  15
HETATM   15  C   UNL     1     -37.313 -47.862  14.408  1.00  0.00    -0.004 C 
HETATM   16  C   UNL     1     -36.777 -48.712  15.551  1.00  0.00     0.005 C 
ENDBRANCH  14  15
ENDBRANCH  13  14
ENDBRANCH  10  13
ENDBRANCH   8   9
ENDBRANCH   1   8
BRANCH   4  17
HETATM   17  N   UNL     1     -44.628 -53.888  13.101  1.00  0.00    -0.363 N 
HETATM   18  C   UNL     1     -45.595 -52.893  12.616  1.00  0.00     0.150 C 
HETATM   19  C   UNL     1     -46.552 -52.456  13.738  1.00  0.00     0.187 C 
HETATM   20  O   UNL     1     -47.189 -53.581  14.363  1.00  0.00    -0.388 OA
HETATM   21  C   UNL     1     -46.196 -54.444  14.945  1.00  0.00     0.187 C 
HETATM   22  C   UNL     1     -45.230 -54.983  13.879  1.00  0.00     0.150 C 
ENDBRANCH   4  17
TORSDOF 6
ENDMDL
MODEL 7
REMARK VINA RESULT:      -5.1      2.588      3.808
REMARK  6 active torsions:
REMARK  status: ('A' for Active; 'I' for Inactive)
REMARK    1  A    between atoms: C_2  and  C_3 
REMARK    2  A    between atoms: C_3  and  C_4 
REMARK    3  A    between atoms: C_4  and  C_5 
REMARK       I    between atoms: C_5  and  N_7 
REMARK    4  A    between atoms: N_7  and  C_8 
REMARK    5  A    between atoms: C_8  and  C_9 
REMARK    6  A    between atoms: C_12  and  N_16 
ROOT
HETATM    1  C   UNL     1     -39.792 -49.653  12.368  1.00  0.00    -0.025 A 
HETATM    2  C   UNL     1     -39.321 -48.443  12.862  1.00  0.00     0.014 A 
HETATM    3  C   UNL     1     -39.680 -47.247  12.230  1.00  0.00     0.049 A 
HETATM    4  C   UNL     1     -40.504 -47.251  11.103  1.00  0.00     0.103 A 
HETATM    5  N   UNL     1     -40.925 -48.429  10.599  1.00  0.00    -0.352 N 
ATOM      6  HN  UNL     1     -41.500 -48.454   9.756  1.00  0.00     0.166 HD
HETATM    7  C   UNL     1     -40.576 -49.585  11.226  1.00  0.00     0.098 A 
ENDROOT
BRANCH   1   8
HETATM    8  C   UNL     1     -39.515 -50.952  13.059  1.00  0.00     0.162 C 
BRANCH   8   9
HETATM    9  N   UNL     1     -40.572 -51.932  12.922  1.00  0.00    -0.357 N 
HETATM   10  C   UNL     1     -40.311 -53.248  13.244  1.00  0.00     0.217 C 
HETATM   11  O   UNL     1     -39.207 -53.623  13.628  1.00  0.00    -0.274 OA
HETATM   12  H   UNL     1     -41.448 -51.674  12.483  1.00  0.00     0.162 HD
BRANCH  10  13
HETATM   13  C   UNL     1     -41.482 -54.196  13.051  1.00  0.00     0.103 C 
BRANCH  13  14
HETATM   14  C   UNL     1     -42.221 -54.424  14.374  1.00  0.00     0.009 C 
BRANCH  14  15
HETATM   15  C   UNL     1     -43.636 -53.846  14.360  1.00  0.00    -0.004 C 
HETATM   16  C   UNL     1     -44.676 -54.935  14.142  1.00  0.00     0.005 C 
ENDBRANCH  14  15
ENDBRANCH  13  14
ENDBRANCH  10  13
ENDBRANCH   8   9
ENDBRANCH   1   8
BRANCH   4  17
HETATM   17  N   UNL     1     -40.841 -46.079  10.454  1.00  0.00    -0.363 N 
HETATM   18  C   UNL     1     -39.870 -45.001  10.213  1.00  0.00     0.150 C 
HETATM   19  C   UNL     1     -40.184 -43.768  11.079  1.00  0.00     0.187 C 
HETATM   20  O   UNL     1     -41.541 -43.332  10.912  1.00  0.00    -0.388 OA
HETATM   21  C   UNL     1     -42.444 -44.382  11.302  1.00  0.00     0.187 C 
HETATM   22  C   UNL     1     -42.245 -45.638  10.441  1.00  0.00     0.150 C 
ENDBRANCH   4  17
TORSDOF 6
ENDMDL
MODEL 8
REMARK VINA RESULT:      -5.0      2.509      6.619
REMARK  6 active torsions:
REMARK  status: ('A' for Active; 'I' for Inactive)
REMARK    1  A    between atoms: C_2  and  C_3 
REMARK    2  A    between atoms: C_3  and  C_4 
REMARK    3  A    between atoms: C_4  and  C_5 
REMARK       I    between atoms: C_5  and  N_7 
REMARK    4  A    between atoms: N_7  and  C_8 
REMARK    5  A    between atoms: C_8  and  C_9 
REMARK    6  A    between atoms: C_12  and  N_16 
ROOT
HETATM    1  C   UNL     1     -41.858 -48.449  11.155  1.00  0.00    -0.025 A 
HETATM    2  C   UNL     1     -42.973 -48.624  11.966  1.00  0.00     0.014 A 
HETATM    3  C   UNL     1     -43.031 -49.714  12.841  1.00  0.00     0.049 A 
HETATM    4  C   UNL     1     -41.986 -50.637  12.908  1.00  0.00     0.103 A 
HETATM    5  N   UNL     1     -40.924 -50.490  12.089  1.00  0.00    -0.352 N 
ATOM      6  HN  UNL     1     -40.166 -51.173  12.100  1.00  0.00     0.166 HD
HETATM    7  C   UNL     1     -40.874 -49.422  11.248  1.00  0.00     0.098 A 
ENDROOT
BRANCH   1   8
HETATM    8  C   UNL     1     -41.704 -47.251  10.270  1.00  0.00     0.162 C 
BRANCH   8   9
HETATM    9  N   UNL     1     -42.888 -46.423  10.185  1.00  0.00    -0.357 N 
HETATM   10  C   UNL     1     -43.614 -46.410   9.011  1.00  0.00     0.217 C 
HETATM   11  O   UNL     1     -43.282 -47.065   8.028  1.00  0.00    -0.274 OA
HETATM   12  H   UNL     1     -43.108 -45.775  10.933  1.00  0.00     0.162 HD
BRANCH  10  13
HETATM   13  C   UNL     1     -44.829 -45.499   9.022  1.00  0.00     0.103 C 
BRANCH  13  14
HETATM   14  C   UNL     1     -46.093 -46.273   8.633  1.00  0.00     0.009 C 
BRANCH  14  15
HETATM   15  C   UNL     1     -46.238 -47.583   9.407  1.00  0.00    -0.004 C 
HETATM   16  C   UNL     1     -46.537 -48.747   8.473  1.00  0.00     0.005 C 
ENDBRANCH  14  15
ENDBRANCH  13  14
ENDBRANCH  10  13
ENDBRANCH   8   9
ENDBRANCH   1   8
BRANCH   4  17
HETATM   17  N   UNL     1     -42.046 -51.733  13.747  1.00  0.00    -0.363 N 
HETATM   18  C   UNL     1     -41.043 -52.808  13.717  1.00  0.00     0.150 C 
HETATM   19  C   UNL     1     -41.641 -54.109  13.153  1.00  0.00     0.187 C 
HETATM   20  O   UNL     1     -42.835 -54.492  13.852  1.00  0.00    -0.388 OA
HETATM   21  C   UNL     1     -43.830 -53.460  13.723  1.00  0.00     0.187 C 
HETATM   22  C   UNL     1     -43.340 -52.134  14.322  1.00  0.00     0.150 C 
ENDBRANCH   4  17
TORSDOF 6
ENDMDL
MODEL 9
REMARK VINA RESULT:      -4.8      4.260      7.303
REMARK  6 active torsions:
REMARK  status: ('A' for Active; 'I' for Inactive)
REMARK    1  A    between atoms: C_2  and  C_3 
REMARK    2  A    between atoms: C_3  and  C_4 
REMARK    3  A    between atoms: C_4  and  C_5 
REMARK       I    between atoms: C_5  and  N_7 
REMARK    4  A    between atoms: N_7  and  C_8 
REMARK    5  A    between atoms: C_8  and  C_9 
REMARK    6  A    between atoms: C_12  and  N_16 
ROOT
HETATM    1  C   UNL     1     -40.567 -53.985  13.854  1.00  0.00    -0.025 A 
HETATM    2  C   UNL     1     -41.095 -53.273  12.783  1.00  0.00     0.014 A 
HETATM    3  C   UNL     1     -42.479 -53.248  12.581  1.00  0.00     0.049 A 
HETATM    4  C   UNL     1     -43.342 -53.935  13.437  1.00  0.00     0.103 A 
HETATM    5  N   UNL     1     -42.825 -54.661  14.450  1.00  0.00    -0.352 N 
ATOM      6  HN  UNL     1     -43.437 -55.196  15.066  1.00  0.00     0.166 HD
HETATM    7  C   UNL     1     -41.478 -54.671  14.642  1.00  0.00     0.098 A 
ENDROOT
BRANCH   1   8
HETATM    8  C   UNL     1     -39.104 -53.969  14.170  1.00  0.00     0.162 C 
BRANCH   8   9
HETATM    9  N   UNL     1     -38.656 -55.101  14.954  1.00  0.00    -0.357 N 
HETATM   10  C   UNL     1     -38.439 -54.934  16.307  1.00  0.00     0.217 C 
HETATM   11  O   UNL     1     -38.596 -53.855  16.869  1.00  0.00    -0.274 OA
HETATM   12  H   UNL     1     -38.393 -55.964  14.493  1.00  0.00     0.162 HD
BRANCH  10  13
HETATM   13  C   UNL     1     -37.958 -56.179  17.033  1.00  0.00     0.103 C 
BRANCH  13  14
HETATM   14  C   UNL     1     -39.137 -57.090  17.390  1.00  0.00     0.009 C 
BRANCH  14  15
HETATM   15  C   UNL     1     -38.801 -58.066  18.517  1.00  0.00    -0.004 C 
HETATM   16  C   UNL     1     -39.115 -59.501  18.117  1.00  0.00     0.005 C 
ENDBRANCH  14  15
ENDBRANCH  13  14
ENDBRANCH  10  13
ENDBRANCH   8   9
ENDBRANCH   1   8
BRANCH   4  17
HETATM   17  N   UNL     1     -44.708 -53.941  13.230  1.00  0.00    -0.363 N 
HETATM   18  C   UNL     1     -45.456 -52.730  12.860  1.00  0.00     0.150 C 
HETATM   19  C   UNL     1     -46.358 -52.261  14.016  1.00  0.00     0.187 C 
HETATM   20  O   UNL     1     -47.213 -53.314  14.485  1.00  0.00    -0.388 OA
HETATM   21  C   UNL     1     -46.419 -54.412  14.967  1.00  0.00     0.187 C 
HETATM   22  C   UNL     1     -45.530 -54.989  13.856  1.00  0.00     0.150 C 
ENDBRANCH   4  17
TORSDOF 6
ENDMDL
