MODEL 1
REMARK VINA RESULT:      -6.7      0.000      0.000
REMARK  5 active torsions:
REMARK  status: ('A' for Active; 'I' for Inactive)
REMARK    1  A    between atoms: C_2  and  C_5 
REMARK    2  A    between atoms: C_5  and  N_6 
REMARK       I    between atoms: N_6  and  C_7 
REMARK       I    between atoms: C_7  and  N_9 
REMARK    3  A    between atoms: N_9  and  C_10 
REMARK    4  A    between atoms: C_10  and  C_11 
REMARK    5  A    between atoms: C_16  and  N_18 
ROOT
HETATM    1  C   UNL     1     -41.042 -50.568  12.294  1.00  0.00    -0.035 A 
HETATM    2  C   UNL     1     -40.144 -51.625  12.410  1.00  0.00     0.026 A 
HETATM    3  C   UNL     1     -40.630 -52.840  12.856  1.00  0.00     0.090 A 
HETATM    4  N   UNL     1     -41.922 -53.064  13.184  1.00  0.00    -0.352 N 
ATOM      5  HN  UNL     1     -42.227 -53.987  13.493  1.00  0.00     0.166 HD
HETATM    6  C   UNL     1     -42.803 -52.044  13.096  1.00  0.00     0.103 A 
HETATM    7  C   UNL     1     -42.371 -50.784  12.681  1.00  0.00     0.057 A 
ENDROOT
BRANCH   1   8
HETATM    8  C   UNL     1     -40.637 -49.251  11.699  1.00  0.00     0.163 C 
BRANCH   8   9
HETATM    9  N   UNL     1     -41.182 -49.037  10.382  1.00  0.00    -0.339 N 
HETATM   10  C   UNL     1     -42.123 -48.053  10.231  1.00  0.00     0.316 C 
HETATM   11  N   UNL     1     -42.712 -48.092   8.995  1.00  0.00    -0.335 N 
HETATM   12  O   UNL     1     -42.430 -47.246  11.098  1.00  0.00    -0.247 OA
HETATM   13  H   UNL     1     -42.120 -48.437   8.252  1.00  0.00     0.164 HD
HETATM   14  H   UNL     1     -41.270 -49.842   9.779  1.00  0.00     0.164 HD
BRANCH  11  15
HETATM   15  C   UNL     1     -43.691 -47.056   8.641  1.00  0.00     0.241 C 
BRANCH  15  16
HETATM   16  C   UNL     1     -45.164 -47.417   8.884  1.00  0.00     0.403 C 
HETATM   17  F   UNL     1     -45.981 -46.351   8.744  1.00  0.00    -0.169 F 
HETATM   18  F   UNL     1     -45.362 -47.944  10.111  1.00  0.00    -0.169 F 
HETATM   19  F   UNL     1     -45.564 -48.344   7.977  1.00  0.00    -0.169 F 
ENDBRANCH  15  16
ENDBRANCH  11  15
ENDBRANCH   8   9
ENDBRANCH   1   8
BRANCH   6  20
HETATM   20  N   UNL     1     -44.144 -52.300  13.288  1.00  0.00    -0.363 N 
HETATM   21  C   UNL     1     -45.102 -51.188  13.246  1.00  0.00     0.150 C 
HETATM   22  C   UNL     1     -46.232 -51.495  14.248  1.00  0.00     0.187 C 
HETATM   23  O   UNL     1     -46.857 -52.765  13.981  1.00  0.00    -0.388 OA
HETATM   24  C   UNL     1     -45.886 -53.825  14.033  1.00  0.00     0.187 C 
HETATM   25  C   UNL     1     -44.756 -53.602  13.014  1.00  0.00     0.150 C 
ENDBRANCH   6  20
TORSDOF 5
ENDMDL
MODEL 2
REMARK VINA RESULT:      -6.5      2.581      6.063
REMARK  5 active torsions:
REMARK  status: ('A' for Active; 'I' for Inactive)
REMARK    1  A    between atoms: C_2  and  C_5 
REMARK    2  A    between atoms: C_5  and  N_6 
REMARK       I    between atoms: N_6  and  C_7 
REMARK       I    between atoms: C_7  and  N_9 
REMARK    3  A    between atoms: N_9  and  C_10 
REMARK    4  A    between atoms: C_10  and  C_11 
REMARK    5  A    between atoms: C_16  and  N_18 
ROOT
HETATM    1  C   UNL     1     -40.173 -51.128  12.069  1.00  0.00    -0.035 A 
HETATM    2  C   UNL     1     -38.915 -50.920  12.626  1.00  0.00     0.026 A 
HETATM    3  C   UNL     1     -38.405 -49.635  12.608  1.00  0.00     0.090 A 
HETATM    4  N   UNL     1     -39.055 -48.570  12.086  1.00  0.00    -0.352 N 
ATOM      5  HN  UNL     1     -38.635 -47.640  12.116  1.00  0.00     0.166 HD
HETATM    6  C   UNL     1     -40.268 -48.758  11.524  1.00  0.00     0.103 A 
HETATM    7  C   UNL     1     -40.826 -50.037  11.482  1.00  0.00     0.057 A 
ENDROOT
BRANCH   1   8
HETATM    8  C   UNL     1     -40.863 -52.458  12.155  1.00  0.00     0.163 C 
BRANCH   8   9
HETATM    9  N   UNL     1     -42.247 -52.401  11.758  1.00  0.00    -0.339 N 
HETATM   10  C   UNL     1     -43.196 -52.680  12.706  1.00  0.00     0.316 C 
HETATM   11  N   UNL     1     -44.446 -52.802  12.159  1.00  0.00    -0.335 N 
HETATM   12  O   UNL     1     -42.965 -52.832  13.897  1.00  0.00    -0.247 OA
HETATM   13  H   UNL     1     -44.608 -52.239  11.336  1.00  0.00     0.164 HD
HETATM   14  H   UNL     1     -42.469 -52.659  10.808  1.00  0.00     0.164 HD
BRANCH  11  15
HETATM   15  C   UNL     1     -45.593 -53.025  13.050  1.00  0.00     0.241 C 
BRANCH  15  16
HETATM   16  C   UNL     1     -46.347 -51.764  13.498  1.00  0.00     0.403 C 
HETATM   17  F   UNL     1     -47.064 -51.215  12.494  1.00  0.00    -0.169 F 
HETATM   18  F   UNL     1     -45.515 -50.821  13.989  1.00  0.00    -0.169 F 
HETATM   19  F   UNL     1     -47.224 -52.081  14.483  1.00  0.00    -0.169 F 
ENDBRANCH  15  16
ENDBRANCH  11  15
ENDBRANCH   8   9
ENDBRANCH   1   8
BRANCH   6  20
HETATM   20  N   UNL     1     -40.997 -47.660  11.122  1.00  0.00    -0.363 N 
HETATM   21  C   UNL     1     -42.396 -47.834  10.710  1.00  0.00     0.150 C 
HETATM   22  C   UNL     1     -42.694 -46.816   9.593  1.00  0.00     0.187 C 
HETATM   23  O   UNL     1     -42.411 -45.465  10.007  1.00  0.00    -0.388 OA
HETATM   24  C   UNL     1     -41.033 -45.337  10.400  1.00  0.00     0.187 C 
HETATM   25  C   UNL     1     -40.687 -46.294  11.553  1.00  0.00     0.150 C 
ENDBRANCH   6  20
TORSDOF 5
ENDMDL
MODEL 3
REMARK VINA RESULT:      -6.2      3.191      4.334
REMARK  5 active torsions:
REMARK  status: ('A' for Active; 'I' for Inactive)
REMARK    1  A    between atoms: C_2  and  C_5 
REMARK    2  A    between atoms: C_5  and  N_6 
REMARK       I    between atoms: N_6  and  C_7 
REMARK       I    between atoms: C_7  and  N_9 
REMARK    3  A    between atoms: N_9  and  C_10 
REMARK    4  A    between atoms: C_10  and  C_11 
REMARK    5  A    between atoms: C_16  and  N_18 
ROOT
HETATM    1  C   UNL     1     -40.282 -47.150  11.856  1.00  0.00    -0.035 A 
HETATM    2  C   UNL     1     -39.577 -46.420  12.809  1.00  0.00     0.026 A 
HETATM    3  C   UNL     1     -38.942 -47.120  13.818  1.00  0.00     0.090 A 
HETATM    4  N   UNL     1     -38.963 -48.468  13.934  1.00  0.00    -0.352 N 
ATOM      5  HN  UNL     1     -38.462 -48.931  14.692  1.00  0.00     0.166 HD
HETATM    6  C   UNL     1     -39.660 -49.189  13.029  1.00  0.00     0.103 A 
HETATM    7  C   UNL     1     -40.348 -48.540  12.002  1.00  0.00     0.057 A 
ENDROOT
BRANCH   1   8
HETATM    8  C   UNL     1     -40.895 -46.491  10.655  1.00  0.00     0.163 C 
BRANCH   8   9
HETATM    9  N   UNL     1     -41.893 -47.309  10.012  1.00  0.00    -0.339 N 
HETATM   10  C   UNL     1     -43.067 -46.711   9.637  1.00  0.00     0.316 C 
HETATM   11  N   UNL     1     -44.004 -47.627   9.238  1.00  0.00    -0.335 N 
HETATM   12  O   UNL     1     -43.276 -45.506   9.675  1.00  0.00    -0.247 OA
HETATM   13  H   UNL     1     -43.629 -48.465   8.817  1.00  0.00     0.164 HD
HETATM   14  H   UNL     1     -41.949 -48.278  10.291  1.00  0.00     0.164 HD
BRANCH  11  15
HETATM   15  C   UNL     1     -45.296 -47.146   8.731  1.00  0.00     0.241 C 
BRANCH  15  16
HETATM   16  C   UNL     1     -46.467 -48.134   8.841  1.00  0.00     0.403 C 
HETATM   17  F   UNL     1     -46.576 -48.922   7.750  1.00  0.00    -0.169 F 
HETATM   18  F   UNL     1     -47.647 -47.505   9.029  1.00  0.00    -0.169 F 
HETATM   19  F   UNL     1     -46.274 -48.955   9.905  1.00  0.00    -0.169 F 
ENDBRANCH  15  16
ENDBRANCH  11  15
ENDBRANCH   8   9
ENDBRANCH   1   8
BRANCH   6  20
HETATM   20  N   UNL     1     -39.567 -50.563  13.055  1.00  0.00    -0.363 N 
HETATM   21  C   UNL     1     -40.374 -51.358  12.120  1.00  0.00     0.150 C 
HETATM   22  C   UNL     1     -40.769 -52.669  12.826  1.00  0.00     0.187 C 
HETATM   23  O   UNL     1     -39.616 -53.391  13.302  1.00  0.00    -0.388 OA
HETATM   24  C   UNL     1     -38.855 -52.580  14.215  1.00  0.00     0.187 C 
HETATM   25  C   UNL     1     -38.386 -51.275  13.549  1.00  0.00     0.150 C 
ENDBRANCH   6  20
TORSDOF 5
ENDMDL
MODEL 4
REMARK VINA RESULT:      -6.1      1.519      1.919
REMARK  5 active torsions:
REMARK  status: ('A' for Active; 'I' for Inactive)
REMARK    1  A    between atoms: C_2  and  C_5 
REMARK    2  A    between atoms: C_5  and  N_6 
REMARK       I    between atoms: N_6  and  C_7 
REMARK       I    between atoms: C_7  and  N_9 
REMARK    3  A    between atoms: N_9  and  C_10 
REMARK    4  A    between atoms: C_10  and  C_11 
REMARK    5  A    between atoms: C_16  and  N_18 
ROOT
HETATM    1  C   UNL     1     -40.818 -51.801  13.135  1.00  0.00    -0.035 A 
HETATM    2  C   UNL     1     -39.836 -52.732  13.463  1.00  0.00     0.026 A 
HETATM    3  C   UNL     1     -40.239 -53.910  14.064  1.00  0.00     0.090 A 
HETATM    4  N   UNL     1     -41.525 -54.213  14.351  1.00  0.00    -0.352 N 
ATOM      5  HN  UNL     1     -41.765 -55.106  14.782  1.00  0.00     0.166 HD
HETATM    6  C   UNL     1     -42.487 -53.312  14.058  1.00  0.00     0.103 A 
HETATM    7  C   UNL     1     -42.144 -52.090  13.477  1.00  0.00     0.057 A 
ENDROOT
BRANCH   1   8
HETATM    8  C   UNL     1     -40.495 -50.553  12.367  1.00  0.00     0.163 C 
BRANCH   8   9
HETATM    9  N   UNL     1     -41.571 -50.126  11.509  1.00  0.00    -0.339 N 
HETATM   10  C   UNL     1     -41.541 -48.840  11.037  1.00  0.00     0.316 C 
HETATM   11  N   UNL     1     -42.713 -48.495  10.417  1.00  0.00    -0.335 N 
HETATM   12  O   UNL     1     -40.598 -48.073  11.170  1.00  0.00    -0.247 OA
HETATM   13  H   UNL     1     -43.199 -49.258   9.968  1.00  0.00     0.164 HD
HETATM   14  H   UNL     1     -42.483 -50.525  11.675  1.00  0.00     0.164 HD
BRANCH  11  15
HETATM   15  C   UNL     1     -42.820 -47.173   9.786  1.00  0.00     0.241 C 
BRANCH  15  16
HETATM   16  C   UNL     1     -43.847 -47.056   8.650  1.00  0.00     0.403 C 
HETATM   17  F   UNL     1     -44.951 -47.798   8.880  1.00  0.00    -0.169 F 
HETATM   18  F   UNL     1     -43.331 -47.423   7.458  1.00  0.00    -0.169 F 
HETATM   19  F   UNL     1     -44.255 -45.767   8.533  1.00  0.00    -0.169 F 
ENDBRANCH  15  16
ENDBRANCH  11  15
ENDBRANCH   8   9
ENDBRANCH   1   8
BRANCH   6  20
HETATM   20  N   UNL     1     -43.809 -53.670  14.213  1.00  0.00    -0.363 N 
HETATM   21  C   UNL     1     -44.635 -52.966  15.202  1.00  0.00     0.150 C 
HETATM   22  C   UNL     1     -45.644 -53.974  15.785  1.00  0.00     0.187 C 
HETATM   23  O   UNL     1     -46.437 -54.598  14.755  1.00  0.00    -0.388 OA
HETATM   24  C   UNL     1     -45.591 -55.277  13.810  1.00  0.00     0.187 C 
HETATM   25  C   UNL     1     -44.593 -54.308  13.153  1.00  0.00     0.150 C 
ENDBRANCH   6  20
TORSDOF 5
ENDMDL
MODEL 5
REMARK VINA RESULT:      -6.0      3.627      6.554
REMARK  5 active torsions:
REMARK  status: ('A' for Active; 'I' for Inactive)
REMARK    1  A    between atoms: C_2  and  C_5 
REMARK    2  A    between atoms: C_5  and  N_6 
REMARK       I    between atoms: N_6  and  C_7 
REMARK       I    between atoms: C_7  and  N_9 
REMARK    3  A    between atoms: N_9  and  C_10 
REMARK    4  A    between atoms: C_10  and  C_11 
REMARK    5  A    between atoms: C_16  and  N_18 
ROOT
HETATM    1  C   UNL     1     -40.350 -50.796  11.797  1.00  0.00    -0.035 A 
HETATM    2  C   UNL     1     -39.032 -50.453  12.085  1.00  0.00     0.026 A 
HETATM    3  C   UNL     1     -38.645 -49.143  11.875  1.00  0.00     0.090 A 
HETATM    4  N   UNL     1     -39.467 -48.175  11.410  1.00  0.00    -0.352 N 
ATOM      5  HN  UNL     1     -39.129 -47.220  11.290  1.00  0.00     0.166 HD
HETATM    6  C   UNL     1     -40.744 -48.495  11.107  1.00  0.00     0.103 A 
HETATM    7  C   UNL     1     -41.190 -49.808  11.268  1.00  0.00     0.057 A 
ENDROOT
BRANCH   1   8
HETATM    8  C   UNL     1     -40.897 -52.157  12.111  1.00  0.00     0.163 C 
BRANCH   8   9
HETATM    9  N   UNL     1     -42.291 -52.296  11.773  1.00  0.00    -0.339 N 
HETATM   10  C   UNL     1     -43.190 -52.412  12.800  1.00  0.00     0.316 C 
HETATM   11  N   UNL     1     -44.440 -52.749  12.351  1.00  0.00    -0.335 N 
HETATM   12  O   UNL     1     -42.917 -52.263  13.983  1.00  0.00    -0.247 OA
HETATM   13  H   UNL     1     -44.667 -52.409  11.428  1.00  0.00     0.164 HD
HETATM   14  H   UNL     1     -42.516 -52.785  10.919  1.00  0.00     0.164 HD
BRANCH  11  15
HETATM   15  C   UNL     1     -45.541 -52.840  13.319  1.00  0.00     0.241 C 
BRANCH  15  16
HETATM   16  C   UNL     1     -45.682 -54.184  14.048  1.00  0.00     0.403 C 
HETATM   17  F   UNL     1     -46.935 -54.388  14.507  1.00  0.00    -0.169 F 
HETATM   18  F   UNL     1     -44.828 -54.290  15.088  1.00  0.00    -0.169 F 
HETATM   19  F   UNL     1     -45.404 -55.200  13.192  1.00  0.00    -0.169 F 
ENDBRANCH  15  16
ENDBRANCH  11  15
ENDBRANCH   8   9
ENDBRANCH   1   8
BRANCH   6  20
HETATM   20  N   UNL     1     -41.624 -47.489  10.773  1.00  0.00    -0.363 N 
HETATM   21  C   UNL     1     -42.751 -47.786   9.879  1.00  0.00     0.150 C 
HETATM   22  C   UNL     1     -43.022 -46.533   9.023  1.00  0.00     0.187 C 
HETATM   23  O   UNL     1     -43.262 -45.368   9.837  1.00  0.00    -0.388 OA
HETATM   24  C   UNL     1     -42.137 -45.112  10.694  1.00  0.00     0.187 C 
HETATM   25  C   UNL     1     -41.847 -46.311  11.614  1.00  0.00     0.150 C 
ENDBRANCH   6  20
TORSDOF 5
ENDMDL
MODEL 6
REMARK VINA RESULT:      -5.8      3.840      6.673
REMARK  5 active torsions:
REMARK  status: ('A' for Active; 'I' for Inactive)
REMARK    1  A    between atoms: C_2  and  C_5 
REMARK    2  A    between atoms: C_5  and  N_6 
REMARK       I    between atoms: N_6  and  C_7 
REMARK       I    between atoms: C_7  and  N_9 
REMARK    3  A    between atoms: N_9  and  C_10 
REMARK    4  A    between atoms: C_10  and  C_11 
REMARK    5  A    between atoms: C_16  and  N_18 
ROOT
HETATM    1  C   UNL     1     -40.377 -50.984  12.244  1.00  0.00    -0.035 A 
HETATM    2  C   UNL     1     -40.640 -49.960  11.339  1.00  0.00     0.026 A 
HETATM    3  C   UNL     1     -40.036 -48.736  11.555  1.00  0.00     0.090 A 
HETATM    4  N   UNL     1     -39.205 -48.474  12.589  1.00  0.00    -0.352 N 
ATOM      5  HN  UNL     1     -38.775 -47.554  12.689  1.00  0.00     0.166 HD
HETATM    6  C   UNL     1     -38.955 -49.450  13.488  1.00  0.00     0.103 A 
HETATM    7  C   UNL     1     -39.558 -50.701  13.344  1.00  0.00     0.057 A 
ENDROOT
BRANCH   1   8
HETATM    8  C   UNL     1     -40.883 -52.380  12.025  1.00  0.00     0.163 C 
BRANCH   8   9
HETATM    9  N   UNL     1     -42.282 -52.424  11.680  1.00  0.00    -0.339 N 
HETATM   10  C   UNL     1     -43.183 -52.639  12.690  1.00  0.00     0.316 C 
HETATM   11  N   UNL     1     -44.445 -52.871  12.210  1.00  0.00    -0.335 N 
HETATM   12  O   UNL     1     -42.902 -52.652  13.880  1.00  0.00    -0.247 OA
HETATM   13  H   UNL     1     -44.661 -52.408  11.339  1.00  0.00     0.164 HD
HETATM   14  H   UNL     1     -42.526 -52.792  10.772  1.00  0.00     0.164 HD
BRANCH  11  15
HETATM   15  C   UNL     1     -45.547 -53.045  13.165  1.00  0.00     0.241 C 
BRANCH  15  16
HETATM   16  C   UNL     1     -46.289 -51.763  13.570  1.00  0.00     0.403 C 
HETATM   17  F   UNL     1     -45.444 -50.793  13.982  1.00  0.00    -0.169 F 
HETATM   18  F   UNL     1     -47.189 -51.985  14.551  1.00  0.00    -0.169 F 
HETATM   19  F   UNL     1     -46.967 -51.269  12.503  1.00  0.00    -0.169 F 
ENDBRANCH  15  16
ENDBRANCH  11  15
ENDBRANCH   8   9
ENDBRANCH   1   8
BRANCH   6  20
HETATM   20  N   UNL     1     -38.001 -49.237  14.459  1.00  0.00    -0.363 N 
HETATM   21  C   UNL     1     -37.326 -50.389  15.070  1.00  0.00     0.150 C 
HETATM   22  C   UNL     1     -37.030 -50.041  16.542  1.00  0.00     0.187 C 
HETATM   23  O   UNL     1     -36.261 -48.829  16.664  1.00  0.00    -0.388 OA
HETATM   24  C   UNL     1     -36.956 -47.727  16.055  1.00  0.00     0.187 C 
HETATM   25  C   UNL     1     -37.234 -47.993  14.566  1.00  0.00     0.150 C 
ENDBRANCH   6  20
TORSDOF 5
ENDMDL
MODEL 7
REMARK VINA RESULT:      -5.6      3.880      7.127
REMARK  5 active torsions:
REMARK  status: ('A' for Active; 'I' for Inactive)
REMARK    1  A    between atoms: C_2  and  C_5 
REMARK    2  A    between atoms: C_5  and  N_6 
REMARK       I    between atoms: N_6  and  C_7 
REMARK       I    between atoms: C_7  and  N_9 
REMARK    3  A    between atoms: N_9  and  C_10 
REMARK    4  A    between atoms: C_10  and  C_11 
REMARK    5  A    between atoms: C_16  and  N_18 
ROOT
HETATM    1  C   UNL     1     -40.045 -49.198  12.116  1.00  0.00    -0.035 A 
HETATM    2  C   UNL     1     -39.375 -49.095  13.331  1.00  0.00     0.026 A 
HETATM    3  C   UNL     1     -39.138 -47.828  13.832  1.00  0.00     0.090 A 
HETATM    4  N   UNL     1     -39.519 -46.686  13.215  1.00  0.00    -0.352 N 
ATOM      5  HN  UNL     1     -39.331 -45.778  13.641  1.00  0.00     0.166 HD
HETATM    6  C   UNL     1     -40.153 -46.768  12.026  1.00  0.00     0.103 A 
HETATM    7  C   UNL     1     -40.396 -48.017  11.451  1.00  0.00     0.057 A 
ENDROOT
BRANCH   1   8
HETATM    8  C   UNL     1     -40.459 -50.527  11.555  1.00  0.00     0.163 C 
BRANCH   8   9
HETATM    9  N   UNL     1     -41.809 -50.891  11.907  1.00  0.00    -0.339 N 
HETATM   10  C   UNL     1     -42.072 -52.212  12.155  1.00  0.00     0.316 C 
HETATM   11  N   UNL     1     -43.416 -52.455  12.266  1.00  0.00    -0.335 N 
HETATM   12  O   UNL     1     -41.220 -53.086  12.242  1.00  0.00    -0.247 OA
HETATM   13  H   UNL     1     -43.959 -51.685  12.630  1.00  0.00     0.164 HD
HETATM   14  H   UNL     1     -42.557 -50.351  11.498  1.00  0.00     0.164 HD
BRANCH  11  15
HETATM   15  C   UNL     1     -43.866 -53.810  12.608  1.00  0.00     0.241 C 
BRANCH  15  16
HETATM   16  C   UNL     1     -45.191 -53.900  13.380  1.00  0.00     0.403 C 
HETATM   17  F   UNL     1     -45.084 -53.417  14.636  1.00  0.00    -0.169 F 
HETATM   18  F   UNL     1     -45.655 -55.165  13.450  1.00  0.00    -0.169 F 
HETATM   19  F   UNL     1     -46.138 -53.158  12.751  1.00  0.00    -0.169 F 
ENDBRANCH  15  16
ENDBRANCH  11  15
ENDBRANCH   8   9
ENDBRANCH   1   8
BRANCH   6  20
HETATM   20  N   UNL     1     -40.671 -45.622  11.463  1.00  0.00    -0.363 N 
HETATM   21  C   UNL     1     -39.759 -44.559  11.025  1.00  0.00     0.150 C 
HETATM   22  C   UNL     1     -40.460 -43.206  11.254  1.00  0.00     0.187 C 
HETATM   23  O   UNL     1     -41.735 -43.141  10.587  1.00  0.00    -0.388 OA
HETATM   24  C   UNL     1     -42.598 -44.197  11.045  1.00  0.00     0.187 C 
HETATM   25  C   UNL     1     -41.974 -45.580  10.794  1.00  0.00     0.150 C 
ENDBRANCH   6  20
TORSDOF 5
ENDMDL
MODEL 8
REMARK VINA RESULT:      -5.3     19.643     21.562
REMARK  5 active torsions:
REMARK  status: ('A' for Active; 'I' for Inactive)
REMARK    1  A    between atoms: C_2  and  C_5 
REMARK    2  A    between atoms: C_5  and  N_6 
REMARK       I    between atoms: N_6  and  C_7 
REMARK       I    between atoms: C_7  and  N_9 
REMARK    3  A    between atoms: N_9  and  C_10 
REMARK    4  A    between atoms: C_10  and  C_11 
REMARK    5  A    between atoms: C_16  and  N_18 
ROOT
HETATM    1  C   UNL     1     -31.269 -52.577  -5.731  1.00  0.00    -0.035 A 
HETATM    2  C   UNL     1     -31.937 -53.572  -5.023  1.00  0.00     0.026 A 
HETATM    3  C   UNL     1     -31.177 -54.557  -4.420  1.00  0.00     0.090 A 
HETATM    4  N   UNL     1     -29.826 -54.610  -4.475  1.00  0.00    -0.352 N 
ATOM      5  HN  UNL     1     -29.316 -55.353  -3.996  1.00  0.00     0.166 HD
HETATM    6  C   UNL     1     -29.164 -53.664  -5.174  1.00  0.00     0.103 A 
HETATM    7  C   UNL     1     -29.875 -52.659  -5.832  1.00  0.00     0.057 A 
ENDROOT
BRANCH   1   8
HETATM    8  C   UNL     1     -31.997 -51.399  -6.311  1.00  0.00     0.163 C 
BRANCH   8   9
HETATM    9  N   UNL     1     -32.753 -50.666  -5.328  1.00  0.00    -0.339 N 
HETATM   10  C   UNL     1     -32.296 -49.426  -4.963  1.00  0.00     0.316 C 
HETATM   11  N   UNL     1     -32.972 -48.930  -3.880  1.00  0.00    -0.335 N 
HETATM   12  O   UNL     1     -31.378 -48.835  -5.513  1.00  0.00    -0.247 OA
HETATM   13  H   UNL     1     -33.933 -49.231  -3.803  1.00  0.00     0.164 HD
HETATM   14  H   UNL     1     -33.229 -51.199  -4.615  1.00  0.00     0.164 HD
BRANCH  11  15
HETATM   15  C   UNL     1     -32.657 -47.575  -3.407  1.00  0.00     0.241 C 
BRANCH  15  16
HETATM   16  C   UNL     1     -33.546 -46.451  -3.960  1.00  0.00     0.403 C 
HETATM   17  F   UNL     1     -33.307 -46.206  -5.266  1.00  0.00    -0.169 F 
HETATM   18  F   UNL     1     -33.389 -45.297  -3.278  1.00  0.00    -0.169 F 
HETATM   19  F   UNL     1     -34.851 -46.806  -3.857  1.00  0.00    -0.169 F 
ENDBRANCH  15  16
ENDBRANCH  11  15
ENDBRANCH   8   9
ENDBRANCH   1   8
BRANCH   6  20
HETATM   20  N   UNL     1     -27.788 -53.628  -5.115  1.00  0.00    -0.363 N 
HETATM   21  C   UNL     1     -27.128 -53.425  -3.819  1.00  0.00     0.150 C 
HETATM   22  C   UNL     1     -25.842 -52.612  -4.062  1.00  0.00     0.187 C 
HETATM   23  O   UNL     1     -24.976 -53.249  -5.022  1.00  0.00    -0.388 OA
HETATM   24  C   UNL     1     -25.659 -53.428  -6.275  1.00  0.00     0.187 C 
HETATM   25  C   UNL     1     -26.929 -54.280  -6.106  1.00  0.00     0.150 C 
ENDBRANCH   6  20
TORSDOF 5
ENDMDL
MODEL 9
REMARK VINA RESULT:      -5.3      3.608      5.040
REMARK  5 active torsions:
REMARK  status: ('A' for Active; 'I' for Inactive)
REMARK    1  A    between atoms: C_2  and  C_5 
REMARK    2  A    between atoms: C_5  and  N_6 
REMARK       I    between atoms: N_6  and  C_7 
REMARK       I    between atoms: C_7  and  N_9 
REMARK    3  A    between atoms: N_9  and  C_10 
REMARK    4  A    between atoms: C_10  and  C_11 
REMARK    5  A    between atoms: C_16  and  N_18 
ROOT
HETATM    1  C   UNL     1     -43.876 -53.671  13.840  1.00  0.00    -0.035 A 
HETATM    2  C   UNL     1     -44.701 -54.762  13.579  1.00  0.00     0.026 A 
HETATM    3  C   UNL     1     -45.916 -54.824  14.235  1.00  0.00     0.090 A 
HETATM    4  N   UNL     1     -46.352 -53.891  15.111  1.00  0.00    -0.352 N 
ATOM      5  HN  UNL     1     -47.267 -53.982  15.554  1.00  0.00     0.166 HD
HETATM    6  C   UNL     1     -45.556 -52.837  15.390  1.00  0.00     0.103 A 
HETATM    7  C   UNL     1     -44.303 -52.730  14.784  1.00  0.00     0.057 A 
ENDROOT
BRANCH   1   8
HETATM    8  C   UNL     1     -42.599 -53.451  13.083  1.00  0.00     0.163 C 
BRANCH   8   9
HETATM    9  N   UNL     1     -42.601 -52.228  12.321  1.00  0.00    -0.339 N 
HETATM   10  C   UNL     1     -41.390 -51.665  12.010  1.00  0.00     0.316 C 
HETATM   11  N   UNL     1     -41.530 -50.411  11.477  1.00  0.00    -0.335 N 
HETATM   12  O   UNL     1     -40.307 -52.197  12.206  1.00  0.00    -0.247 OA
HETATM   13  H   UNL     1     -42.381 -50.263  10.954  1.00  0.00     0.164 HD
HETATM   14  H   UNL     1     -43.370 -51.590  12.466  1.00  0.00     0.164 HD
BRANCH  11  15
HETATM   15  C   UNL     1     -40.331 -49.697  11.018  1.00  0.00     0.241 C 
BRANCH  15  16
HETATM   16  C   UNL     1     -39.790 -48.618  11.968  1.00  0.00     0.403 C 
HETATM   17  F   UNL     1     -39.812 -47.389  11.410  1.00  0.00    -0.169 F 
HETATM   18  F   UNL     1     -38.528 -48.880  12.368  1.00  0.00    -0.169 F 
HETATM   19  F   UNL     1     -40.563 -48.560  13.082  1.00  0.00    -0.169 F 
ENDBRANCH  15  16
ENDBRANCH  11  15
ENDBRANCH   8   9
ENDBRANCH   1   8
BRANCH   6  20
HETATM   20  N   UNL     1     -46.051 -51.812  16.167  1.00  0.00    -0.363 N 
HETATM   21  C   UNL     1     -45.192 -50.661  16.474  1.00  0.00     0.150 C 
HETATM   22  C   UNL     1     -45.550 -50.164  17.888  1.00  0.00     0.187 C 
HETATM   23  O   UNL     1     -46.950 -49.847  18.008  1.00  0.00    -0.388 OA
HETATM   24  C   UNL     1     -47.755 -50.999  17.701  1.00  0.00     0.187 C 
HETATM   25  C   UNL     1     -47.481 -51.512  16.277  1.00  0.00     0.150 C 
ENDBRANCH   6  20
TORSDOF 5
ENDMDL
