MODEL 1
REMARK VINA RESULT:      -5.9      0.000      0.000
REMARK  7 active torsions:
REMARK  status: ('A' for Active; 'I' for Inactive)
REMARK    1  A    between atoms: O_2  and  C_3 
REMARK    2  A    between atoms: C_3  and  C_4 
REMARK    3  A    between atoms: C_4  and  O_5 
REMARK    4  A    between atoms: O_5  and  C_6 
REMARK    5  A    between atoms: C_9  and  N_10 
REMARK       I    between atoms: N_10  and  C_11 
REMARK    6  A    between atoms: C_11  and  C_13 
REMARK    7  A    between atoms: N_15  and  C_16 
ROOT
HETATM    1  N   UNL     1     -41.283 -50.154  11.331  1.00  0.00    -0.326 N 
HETATM    2  C   UNL     1     -42.044 -50.685  12.353  1.00  0.00     0.228 C 
HETATM    3  O   UNL     1     -42.829 -50.038  13.049  1.00  0.00    -0.273 OA
HETATM    4  H   UNL     1     -40.818 -50.788  10.690  1.00  0.00     0.169 HD
ENDROOT
BRANCH   1   5
HETATM    5  C   UNL     1     -41.161 -48.764  11.049  1.00  0.00     0.050 A 
HETATM    6  C   UNL     1     -40.168 -47.954  11.599  1.00  0.00     0.035 A 
HETATM    7  C   UNL     1     -40.096 -46.604  11.275  1.00  0.00     0.058 A 
HETATM    8  C   UNL     1     -41.035 -46.083  10.406  1.00  0.00     0.141 A 
HETATM    9  N   UNL     1     -42.008 -46.815   9.831  1.00  0.00    -0.345 N 
HETATM   10  C   UNL     1     -42.042 -48.137  10.164  1.00  0.00     0.119 A 
ATOM     11  HN  UNL     1     -42.680 -46.404   9.183  1.00  0.00     0.167 HD
BRANCH   8  12
HETATM   12  O   UNL     1     -40.839 -44.767  10.050  1.00  0.00    -0.334 OA
BRANCH  12  13
HETATM   13  C   UNL     1     -40.053 -44.022  10.978  1.00  0.00     0.203 C 
BRANCH  13  14
HETATM   14  C   UNL     1     -40.955 -42.917  11.530  1.00  0.00     0.193 C 
BRANCH  14  15
HETATM   15  O   UNL     1     -41.895 -42.494  10.545  1.00  0.00    -0.394 OA
HETATM   16  C   UNL     1     -43.224 -42.538  11.051  1.00  0.00     0.201 C 
ENDBRANCH  14  15
ENDBRANCH  13  14
ENDBRANCH  12  13
ENDBRANCH   8  12
ENDBRANCH   1   5
BRANCH   2  17
HETATM   17  C   UNL     1     -41.986 -52.189  12.541  1.00  0.00     0.105 C 
HETATM   18  C   UNL     1     -43.350 -52.633  13.071  1.00  0.00     0.140 C 
HETATM   19  N   UNL     1     -43.089 -53.829  13.828  1.00  0.00    -0.347 N 
HETATM   20  C   UNL     1     -41.748 -53.916  14.179  1.00  0.00     0.221 C 
HETATM   21  O   UNL     1     -41.239 -54.750  14.911  1.00  0.00    -0.273 OA
HETATM   22  C   UNL     1     -41.011 -52.747  13.568  1.00  0.00     0.118 C 
BRANCH  19  23
HETATM   23  C   UNL     1     -44.140 -54.533  14.574  1.00  0.00     0.079 C 
HETATM   24  C   UNL     1     -44.684 -53.665  15.714  1.00  0.00     0.032 C 
HETATM   25  C   UNL     1     -45.290 -55.000  13.682  1.00  0.00     0.032 C 
ENDBRANCH  19  23
ENDBRANCH   2  17
TORSDOF 7
ENDMDL
MODEL 2
REMARK VINA RESULT:      -5.9      1.869      2.676
REMARK  7 active torsions:
REMARK  status: ('A' for Active; 'I' for Inactive)
REMARK    1  A    between atoms: O_2  and  C_3 
REMARK    2  A    between atoms: C_3  and  C_4 
REMARK    3  A    between atoms: C_4  and  O_5 
REMARK    4  A    between atoms: O_5  and  C_6 
REMARK    5  A    between atoms: C_9  and  N_10 
REMARK       I    between atoms: N_10  and  C_11 
REMARK    6  A    between atoms: C_11  and  C_13 
REMARK    7  A    between atoms: N_15  and  C_16 
ROOT
HETATM    1  N   UNL     1     -43.198 -49.471  12.075  1.00  0.00    -0.326 N 
HETATM    2  C   UNL     1     -43.359 -49.640  13.436  1.00  0.00     0.228 C 
HETATM    3  O   UNL     1     -43.187 -48.755  14.276  1.00  0.00    -0.273 OA
HETATM    4  H   UNL     1     -43.548 -50.190  11.451  1.00  0.00     0.169 HD
ENDROOT
BRANCH   1   5
HETATM    5  C   UNL     1     -42.646 -48.311  11.462  1.00  0.00     0.050 A 
HETATM    6  C   UNL     1     -43.401 -47.190  11.121  1.00  0.00     0.035 A 
HETATM    7  C   UNL     1     -42.798 -46.083  10.534  1.00  0.00     0.058 A 
HETATM    8  C   UNL     1     -41.439 -46.124  10.288  1.00  0.00     0.141 A 
HETATM    9  N   UNL     1     -40.654 -47.170  10.608  1.00  0.00    -0.345 N 
HETATM   10  C   UNL     1     -41.277 -48.234  11.191  1.00  0.00     0.119 A 
ATOM     11  HN  UNL     1     -39.650 -47.166  10.425  1.00  0.00     0.167 HD
BRANCH   8  12
HETATM   12  O   UNL     1     -40.895 -44.956   9.803  1.00  0.00    -0.334 OA
BRANCH  12  13
HETATM   13  C   UNL     1     -39.820 -44.443  10.587  1.00  0.00     0.203 C 
BRANCH  13  14
HETATM   14  C   UNL     1     -40.395 -43.304  11.430  1.00  0.00     0.193 C 
BRANCH  14  15
HETATM   15  O   UNL     1     -40.013 -43.447  12.797  1.00  0.00    -0.394 OA
HETATM   16  C   UNL     1     -38.993 -44.427  12.945  1.00  0.00     0.201 C 
ENDBRANCH  14  15
ENDBRANCH  13  14
ENDBRANCH  12  13
ENDBRANCH   8  12
ENDBRANCH   1   5
BRANCH   2  17
HETATM   17  C   UNL     1     -43.897 -50.980  13.901  1.00  0.00     0.105 C 
HETATM   18  C   UNL     1     -42.697 -51.907  14.103  1.00  0.00     0.140 C 
HETATM   19  N   UNL     1     -43.206 -53.236  13.889  1.00  0.00    -0.347 N 
HETATM   20  C   UNL     1     -44.402 -53.206  13.182  1.00  0.00     0.221 C 
HETATM   21  O   UNL     1     -45.019 -54.168  12.753  1.00  0.00    -0.273 OA
HETATM   22  C   UNL     1     -44.790 -51.764  12.949  1.00  0.00     0.118 C 
BRANCH  19  23
HETATM   23  C   UNL     1     -42.343 -54.423  13.915  1.00  0.00     0.079 C 
HETATM   24  C   UNL     1     -41.100 -54.221  13.042  1.00  0.00     0.032 C 
HETATM   25  C   UNL     1     -41.924 -54.821  15.331  1.00  0.00     0.032 C 
ENDBRANCH  19  23
ENDBRANCH   2  17
TORSDOF 7
ENDMDL
MODEL 3
REMARK VINA RESULT:      -5.8      5.083      6.049
REMARK  7 active torsions:
REMARK  status: ('A' for Active; 'I' for Inactive)
REMARK    1  A    between atoms: O_2  and  C_3 
REMARK    2  A    between atoms: C_3  and  C_4 
REMARK    3  A    between atoms: C_4  and  O_5 
REMARK    4  A    between atoms: O_5  and  C_6 
REMARK    5  A    between atoms: C_9  and  N_10 
REMARK       I    between atoms: N_10  and  C_11 
REMARK    6  A    between atoms: C_11  and  C_13 
REMARK    7  A    between atoms: N_15  and  C_16 
ROOT
HETATM    1  N   UNL     1     -41.718 -52.647  14.201  1.00  0.00    -0.326 N 
HETATM    2  C   UNL     1     -41.902 -53.734  13.370  1.00  0.00     0.228 C 
HETATM    3  O   UNL     1     -40.990 -54.371  12.840  1.00  0.00    -0.273 OA
HETATM    4  H   UNL     1     -42.506 -52.310  14.744  1.00  0.00     0.169 HD
ENDROOT
BRANCH   1   5
HETATM    5  C   UNL     1     -40.470 -51.999  14.424  1.00  0.00     0.050 A 
HETATM    6  C   UNL     1     -39.660 -52.256  15.528  1.00  0.00     0.035 A 
HETATM    7  C   UNL     1     -38.445 -51.596  15.683  1.00  0.00     0.058 A 
HETATM    8  C   UNL     1     -38.067 -50.676  14.724  1.00  0.00     0.141 A 
HETATM    9  N   UNL     1     -38.798 -50.396  13.628  1.00  0.00    -0.345 N 
HETATM   10  C   UNL     1     -39.978 -51.068  13.505  1.00  0.00     0.119 A 
ATOM     11  HN  UNL     1     -38.486 -49.720  12.931  1.00  0.00     0.167 HD
BRANCH   8  12
HETATM   12  O   UNL     1     -36.808 -50.142  14.887  1.00  0.00    -0.334 OA
BRANCH  12  13
HETATM   13  C   UNL     1     -36.765 -48.996  15.736  1.00  0.00     0.203 C 
BRANCH  13  14
HETATM   14  C   UNL     1     -35.509 -49.134  16.597  1.00  0.00     0.193 C 
BRANCH  14  15
HETATM   15  O   UNL     1     -34.764 -47.918  16.598  1.00  0.00    -0.394 OA
HETATM   16  C   UNL     1     -34.912 -47.226  17.832  1.00  0.00     0.201 C 
ENDBRANCH  14  15
ENDBRANCH  13  14
ENDBRANCH  12  13
ENDBRANCH   8  12
ENDBRANCH   1   5
BRANCH   2  17
HETATM   17  C   UNL     1     -43.323 -54.237  13.204  1.00  0.00     0.105 C 
HETATM   18  C   UNL     1     -44.202 -53.023  12.900  1.00  0.00     0.140 C 
HETATM   19  N   UNL     1     -45.511 -53.373  13.386  1.00  0.00    -0.347 N 
HETATM   20  C   UNL     1     -45.442 -54.416  14.301  1.00  0.00     0.221 C 
HETATM   21  O   UNL     1     -46.362 -54.862  14.968  1.00  0.00    -0.273 OA
HETATM   22  C   UNL     1     -44.005 -54.872  14.408  1.00  0.00     0.118 C 
BRANCH  19  23
HETATM   23  C   UNL     1     -46.640 -52.435  13.353  1.00  0.00     0.079 C 
HETATM   24  C   UNL     1     -46.513 -51.380  14.457  1.00  0.00     0.032 C 
HETATM   25  C   UNL     1     -46.803 -51.749  11.996  1.00  0.00     0.032 C 
ENDBRANCH  19  23
ENDBRANCH   2  17
TORSDOF 7
ENDMDL
MODEL 4
REMARK VINA RESULT:      -5.5      1.805      9.110
REMARK  7 active torsions:
REMARK  status: ('A' for Active; 'I' for Inactive)
REMARK    1  A    between atoms: O_2  and  C_3 
REMARK    2  A    between atoms: C_3  and  C_4 
REMARK    3  A    between atoms: C_4  and  O_5 
REMARK    4  A    between atoms: O_5  and  C_6 
REMARK    5  A    between atoms: C_9  and  N_10 
REMARK       I    between atoms: N_10  and  C_11 
REMARK    6  A    between atoms: C_11  and  C_13 
REMARK    7  A    between atoms: N_15  and  C_16 
ROOT
HETATM    1  N   UNL     1     -41.526 -50.480  11.432  1.00  0.00    -0.326 N 
HETATM    2  C   UNL     1     -42.052 -49.240  11.738  1.00  0.00     0.228 C 
HETATM    3  O   UNL     1     -42.496 -48.923  12.842  1.00  0.00    -0.273 OA
HETATM    4  H   UNL     1     -41.010 -50.589  10.566  1.00  0.00     0.169 HD
ENDROOT
BRANCH   1   5
HETATM    5  C   UNL     1     -41.580 -51.617  12.287  1.00  0.00     0.050 A 
HETATM    6  C   UNL     1     -42.725 -52.392  12.459  1.00  0.00     0.035 A 
HETATM    7  C   UNL     1     -42.710 -53.498  13.302  1.00  0.00     0.058 A 
HETATM    8  C   UNL     1     -41.541 -53.803  13.971  1.00  0.00     0.141 A 
HETATM    9  N   UNL     1     -40.398 -53.102  13.834  1.00  0.00    -0.345 N 
HETATM   10  C   UNL     1     -40.447 -52.030  12.993  1.00  0.00     0.119 A 
ATOM     11  HN  UNL     1     -39.546 -53.359  14.332  1.00  0.00     0.167 HD
BRANCH   8  12
HETATM   12  O   UNL     1     -41.569 -54.968  14.703  1.00  0.00    -0.334 OA
BRANCH  12  13
HETATM   13  C   UNL     1     -41.702 -54.772  16.109  1.00  0.00     0.203 C 
BRANCH  13  14
HETATM   14  C   UNL     1     -40.451 -55.367  16.756  1.00  0.00     0.193 C 
BRANCH  14  15
HETATM   15  O   UNL     1     -39.284 -54.655  16.346  1.00  0.00    -0.394 OA
HETATM   16  C   UNL     1     -38.210 -55.546  16.070  1.00  0.00     0.201 C 
ENDBRANCH  14  15
ENDBRANCH  13  14
ENDBRANCH  12  13
ENDBRANCH   8  12
ENDBRANCH   1   5
BRANCH   2  17
HETATM   17  C   UNL     1     -41.962 -48.173  10.663  1.00  0.00     0.105 C 
HETATM   18  C   UNL     1     -40.788 -47.263  11.025  1.00  0.00     0.140 C 
HETATM   19  N   UNL     1     -41.109 -45.984  10.447  1.00  0.00    -0.347 N 
HETATM   20  C   UNL     1     -42.468 -45.887  10.174  1.00  0.00     0.221 C 
HETATM   21  O   UNL     1     -43.063 -44.894   9.786  1.00  0.00    -0.273 OA
HETATM   22  C   UNL     1     -43.126 -47.203  10.515  1.00  0.00     0.118 C 
BRANCH  19  23
HETATM   23  C   UNL     1     -40.262 -44.800  10.635  1.00  0.00     0.079 C 
HETATM   24  C   UNL     1     -39.695 -44.747  12.058  1.00  0.00     0.032 C 
HETATM   25  C   UNL     1     -39.123 -44.717   9.618  1.00  0.00     0.032 C 
ENDBRANCH  19  23
ENDBRANCH   2  17
TORSDOF 7
ENDMDL
MODEL 5
REMARK VINA RESULT:      -5.5      1.509      1.802
REMARK  7 active torsions:
REMARK  status: ('A' for Active; 'I' for Inactive)
REMARK    1  A    between atoms: O_2  and  C_3 
REMARK    2  A    between atoms: C_3  and  C_4 
REMARK    3  A    between atoms: C_4  and  O_5 
REMARK    4  A    between atoms: O_5  and  C_6 
REMARK    5  A    between atoms: C_9  and  N_10 
REMARK       I    between atoms: N_10  and  C_11 
REMARK    6  A    between atoms: C_11  and  C_13 
REMARK    7  A    between atoms: N_15  and  C_16 
ROOT
HETATM    1  N   UNL     1     -41.411 -49.763  10.996  1.00  0.00    -0.326 N 
HETATM    2  C   UNL     1     -41.911 -50.432  12.096  1.00  0.00     0.228 C 
HETATM    3  O   UNL     1     -42.574 -49.907  12.991  1.00  0.00    -0.273 OA
HETATM    4  H   UNL     1     -41.049 -50.306  10.219  1.00  0.00     0.169 HD
ENDROOT
BRANCH   1   5
HETATM    5  C   UNL     1     -41.436 -48.350  10.827  1.00  0.00     0.050 A 
HETATM    6  C   UNL     1     -42.489 -47.669  10.218  1.00  0.00     0.035 A 
HETATM    7  C   UNL     1     -42.457 -46.284  10.093  1.00  0.00     0.058 A 
HETATM    8  C   UNL     1     -41.357 -45.603  10.574  1.00  0.00     0.141 A 
HETATM    9  N   UNL     1     -40.316 -46.201  11.185  1.00  0.00    -0.345 N 
HETATM   10  C   UNL     1     -40.385 -47.559  11.299  1.00  0.00     0.119 A 
ATOM     11  HN  UNL     1     -39.522 -45.669  11.542  1.00  0.00     0.167 HD
BRANCH   8  12
HETATM   12  O   UNL     1     -41.442 -44.230  10.511  1.00  0.00    -0.334 OA
BRANCH  12  13
HETATM   13  C   UNL     1     -42.568 -43.683  11.195  1.00  0.00     0.203 C 
BRANCH  13  14
HETATM   14  C   UNL     1     -42.165 -43.544  12.664  1.00  0.00     0.193 C 
BRANCH  14  15
HETATM   15  O   UNL     1     -43.164 -44.102  13.515  1.00  0.00    -0.394 OA
HETATM   16  C   UNL     1     -42.760 -45.369  14.019  1.00  0.00     0.201 C 
ENDBRANCH  14  15
ENDBRANCH  13  14
ENDBRANCH  12  13
ENDBRANCH   8  12
ENDBRANCH   1   5
BRANCH   2  17
HETATM   17  C   UNL     1     -41.722 -51.937  12.126  1.00  0.00     0.105 C 
HETATM   18  C   UNL     1     -42.878 -52.524  12.937  1.00  0.00     0.140 C 
HETATM   19  N   UNL     1     -42.366 -53.748  13.495  1.00  0.00    -0.347 N 
HETATM   20  C   UNL     1     -40.976 -53.756  13.491  1.00  0.00     0.221 C 
HETATM   21  O   UNL     1     -40.251 -54.599  13.994  1.00  0.00    -0.273 OA
HETATM   22  C   UNL     1     -40.487 -52.491  12.824  1.00  0.00     0.118 C 
BRANCH  19  23
HETATM   23  C   UNL     1     -43.150 -54.584  14.412  1.00  0.00     0.079 C 
HETATM   24  C   UNL     1     -43.153 -53.997  15.828  1.00  0.00     0.032 C 
HETATM   25  C   UNL     1     -44.587 -54.800  13.936  1.00  0.00     0.032 C 
ENDBRANCH  19  23
ENDBRANCH   2  17
TORSDOF 7
ENDMDL
MODEL 6
REMARK VINA RESULT:      -5.2      1.763      2.204
REMARK  7 active torsions:
REMARK  status: ('A' for Active; 'I' for Inactive)
REMARK    1  A    between atoms: O_2  and  C_3 
REMARK    2  A    between atoms: C_3  and  C_4 
REMARK    3  A    between atoms: C_4  and  O_5 
REMARK    4  A    between atoms: O_5  and  C_6 
REMARK    5  A    between atoms: C_9  and  N_10 
REMARK       I    between atoms: N_10  and  C_11 
REMARK    6  A    between atoms: C_11  and  C_13 
REMARK    7  A    between atoms: N_15  and  C_16 
ROOT
HETATM    1  N   UNL     1     -41.645 -51.022  12.699  1.00  0.00    -0.326 N 
HETATM    2  C   UNL     1     -40.882 -52.170  12.778  1.00  0.00     0.228 C 
HETATM    3  O   UNL     1     -39.651 -52.191  12.810  1.00  0.00    -0.273 OA
HETATM    4  H   UNL     1     -42.641 -51.086  12.875  1.00  0.00     0.169 HD
ENDROOT
BRANCH   1   5
HETATM    5  C   UNL     1     -41.124 -49.717  12.468  1.00  0.00     0.050 A 
HETATM    6  C   UNL     1     -40.837 -48.814  13.490  1.00  0.00     0.035 A 
HETATM    7  C   UNL     1     -40.319 -47.556  13.197  1.00  0.00     0.058 A 
HETATM    8  C   UNL     1     -40.106 -47.221  11.874  1.00  0.00     0.141 A 
HETATM    9  N   UNL     1     -40.348 -48.055  10.844  1.00  0.00    -0.345 N 
HETATM   10  C   UNL     1     -40.847 -49.283  11.169  1.00  0.00     0.119 A 
ATOM     11  HN  UNL     1     -40.169 -47.784   9.878  1.00  0.00     0.167 HD
BRANCH   8  12
HETATM   12  O   UNL     1     -39.495 -46.005  11.668  1.00  0.00    -0.334 OA
BRANCH  12  13
HETATM   13  C   UNL     1     -39.868 -45.363  10.451  1.00  0.00     0.203 C 
BRANCH  13  14
HETATM   14  C   UNL     1     -41.333 -44.950  10.602  1.00  0.00     0.193 C 
BRANCH  14  15
HETATM   15  O   UNL     1     -42.127 -45.520   9.563  1.00  0.00    -0.394 OA
HETATM   16  C   UNL     1     -43.252 -46.207  10.097  1.00  0.00     0.201 C 
ENDBRANCH  14  15
ENDBRANCH  13  14
ENDBRANCH  12  13
ENDBRANCH   8  12
ENDBRANCH   1   5
BRANCH   2  17
HETATM   17  C   UNL     1     -41.630 -53.478  12.954  1.00  0.00     0.105 C 
HETATM   18  C   UNL     1     -43.124 -53.152  12.948  1.00  0.00     0.140 C 
HETATM   19  N   UNL     1     -43.740 -54.190  13.733  1.00  0.00    -0.347 N 
HETATM   20  C   UNL     1     -42.808 -54.822  14.545  1.00  0.00     0.221 C 
HETATM   21  O   UNL     1     -43.038 -55.662  15.401  1.00  0.00    -0.273 OA
HETATM   22  C   UNL     1     -41.442 -54.242  14.258  1.00  0.00     0.118 C 
BRANCH  19  23
HETATM   23  C   UNL     1     -45.176 -54.198  14.037  1.00  0.00     0.079 C 
HETATM   24  C   UNL     1     -45.780 -55.588  13.815  1.00  0.00     0.032 C 
HETATM   25  C   UNL     1     -45.485 -53.718  15.456  1.00  0.00     0.032 C 
ENDBRANCH  19  23
ENDBRANCH   2  17
TORSDOF 7
ENDMDL
MODEL 7
REMARK VINA RESULT:      -5.2      6.233      9.128
REMARK  7 active torsions:
REMARK  status: ('A' for Active; 'I' for Inactive)
REMARK    1  A    between atoms: O_2  and  C_3 
REMARK    2  A    between atoms: C_3  and  C_4 
REMARK    3  A    between atoms: C_4  and  O_5 
REMARK    4  A    between atoms: O_5  and  C_6 
REMARK    5  A    between atoms: C_9  and  N_10 
REMARK       I    between atoms: N_10  and  C_11 
REMARK    6  A    between atoms: C_11  and  C_13 
REMARK    7  A    between atoms: N_15  and  C_16 
ROOT
HETATM    1  N   UNL     1     -44.465 -52.823  15.294  1.00  0.00    -0.326 N 
HETATM    2  C   UNL     1     -44.404 -54.123  14.833  1.00  0.00     0.228 C 
HETATM    3  O   UNL     1     -45.318 -54.944  14.933  1.00  0.00    -0.273 OA
HETATM    4  H   UNL     1     -43.750 -52.167  14.998  1.00  0.00     0.169 HD
ENDROOT
BRANCH   1   5
HETATM    5  C   UNL     1     -45.513 -52.298  16.102  1.00  0.00     0.050 A 
HETATM    6  C   UNL     1     -46.655 -51.695  15.579  1.00  0.00     0.035 A 
HETATM    7  C   UNL     1     -47.649 -51.211  16.424  1.00  0.00     0.058 A 
HETATM    8  C   UNL     1     -47.473 -51.332  17.788  1.00  0.00     0.141 A 
HETATM    9  N   UNL     1     -46.400 -51.918  18.354  1.00  0.00    -0.345 N 
HETATM   10  C   UNL     1     -45.450 -52.389  17.496  1.00  0.00     0.119 A 
ATOM     11  HN  UNL     1     -46.304 -52.004  19.365  1.00  0.00     0.167 HD
BRANCH   8  12
HETATM   12  O   UNL     1     -48.541 -50.928  18.556  1.00  0.00    -0.334 OA
BRANCH  12  13
HETATM   13  C   UNL     1     -48.393 -51.193  19.949  1.00  0.00     0.203 C 
BRANCH  13  14
HETATM   14  C   UNL     1     -49.747 -51.702  20.447  1.00  0.00     0.193 C 
BRANCH  14  15
HETATM   15  O   UNL     1     -50.216 -52.770  19.625  1.00  0.00    -0.394 OA
HETATM   16  C   UNL     1     -50.840 -53.781  20.407  1.00  0.00     0.201 C 
ENDBRANCH  14  15
ENDBRANCH  13  14
ENDBRANCH  12  13
ENDBRANCH   8  12
ENDBRANCH   1   5
BRANCH   2  17
HETATM   17  C   UNL     1     -43.167 -54.514  14.048  1.00  0.00     0.105 C 
HETATM   18  C   UNL     1     -41.986 -54.491  15.020  1.00  0.00     0.140 C 
HETATM   19  N   UNL     1     -40.832 -54.209  14.206  1.00  0.00    -0.347 N 
HETATM   20  C   UNL     1     -41.203 -53.646  12.991  1.00  0.00     0.221 C 
HETATM   21  O   UNL     1     -40.455 -53.198  12.137  1.00  0.00    -0.273 OA
HETATM   22  C   UNL     1     -42.712 -53.597  12.921  1.00  0.00     0.118 C 
BRANCH  19  23
HETATM   23  C   UNL     1     -39.493 -54.025  14.777  1.00  0.00     0.079 C 
HETATM   24  C   UNL     1     -39.470 -52.854  15.765  1.00  0.00     0.032 C 
HETATM   25  C   UNL     1     -38.957 -55.287  15.455  1.00  0.00     0.032 C 
ENDBRANCH  19  23
ENDBRANCH   2  17
TORSDOF 7
ENDMDL
MODEL 8
REMARK VINA RESULT:      -5.2      2.065      8.851
REMARK  7 active torsions:
REMARK  status: ('A' for Active; 'I' for Inactive)
REMARK    1  A    between atoms: O_2  and  C_3 
REMARK    2  A    between atoms: C_3  and  C_4 
REMARK    3  A    between atoms: C_4  and  O_5 
REMARK    4  A    between atoms: O_5  and  C_6 
REMARK    5  A    between atoms: C_9  and  N_10 
REMARK       I    between atoms: N_10  and  C_11 
REMARK    6  A    between atoms: C_11  and  C_13 
REMARK    7  A    between atoms: N_15  and  C_16 
ROOT
HETATM    1  N   UNL     1     -41.011 -48.752  12.320  1.00  0.00    -0.326 N 
HETATM    2  C   UNL     1     -41.032 -47.947  11.199  1.00  0.00     0.228 C 
HETATM    3  O   UNL     1     -41.663 -48.197  10.170  1.00  0.00    -0.273 OA
HETATM    4  H   UNL     1     -40.630 -48.377  13.182  1.00  0.00     0.169 HD
ENDROOT
BRANCH   1   5
HETATM    5  C   UNL     1     -41.567 -50.061  12.389  1.00  0.00     0.050 A 
HETATM    6  C   UNL     1     -40.857 -51.214  12.058  1.00  0.00     0.035 A 
HETATM    7  C   UNL     1     -41.455 -52.466  12.156  1.00  0.00     0.058 A 
HETATM    8  C   UNL     1     -42.768 -52.539  12.578  1.00  0.00     0.141 A 
HETATM    9  N   UNL     1     -43.501 -51.465  12.927  1.00  0.00    -0.345 N 
HETATM   10  C   UNL     1     -42.880 -50.254  12.827  1.00  0.00     0.119 A 
ATOM     11  HN  UNL     1     -44.466 -51.552  13.247  1.00  0.00     0.167 HD
BRANCH   8  12
HETATM   12  O   UNL     1     -43.258 -53.813  12.752  1.00  0.00    -0.334 OA
BRANCH  12  13
HETATM   13  C   UNL     1     -42.724 -54.496  13.885  1.00  0.00     0.203 C 
BRANCH  13  14
HETATM   14  C   UNL     1     -43.877 -54.677  14.872  1.00  0.00     0.193 C 
BRANCH  14  15
HETATM   15  O   UNL     1     -44.964 -55.366  14.257  1.00  0.00    -0.394 OA
HETATM   16  C   UNL     1     -46.199 -54.707  14.512  1.00  0.00     0.201 C 
ENDBRANCH  14  15
ENDBRANCH  13  14
ENDBRANCH  12  13
ENDBRANCH   8  12
ENDBRANCH   1   5
BRANCH   2  17
HETATM   17  C   UNL     1     -40.319 -46.612  11.300  1.00  0.00     0.105 C 
HETATM   18  C   UNL     1     -40.697 -45.997  12.648  1.00  0.00     0.140 C 
HETATM   19  N   UNL     1     -40.590 -44.574  12.457  1.00  0.00    -0.347 N 
HETATM   20  C   UNL     1     -40.625 -44.247  11.107  1.00  0.00     0.221 C 
HETATM   21  O   UNL     1     -40.667 -43.124  10.631  1.00  0.00    -0.273 OA
HETATM   22  C   UNL     1     -40.687 -45.524  10.301  1.00  0.00     0.118 C 
BRANCH  19  23
HETATM   23  C   UNL     1     -40.949 -43.610  13.505  1.00  0.00     0.079 C 
HETATM   24  C   UNL     1     -42.469 -43.442  13.603  1.00  0.00     0.032 C 
HETATM   25  C   UNL     1     -40.377 -43.981  14.874  1.00  0.00     0.032 C 
ENDBRANCH  19  23
ENDBRANCH   2  17
TORSDOF 7
ENDMDL
MODEL 9
REMARK VINA RESULT:      -5.0      1.969      2.681
REMARK  7 active torsions:
REMARK  status: ('A' for Active; 'I' for Inactive)
REMARK    1  A    between atoms: O_2  and  C_3 
REMARK    2  A    between atoms: C_3  and  C_4 
REMARK    3  A    between atoms: C_4  and  O_5 
REMARK    4  A    between atoms: O_5  and  C_6 
REMARK    5  A    between atoms: C_9  and  N_10 
REMARK       I    between atoms: N_10  and  C_11 
REMARK    6  A    between atoms: C_11  and  C_13 
REMARK    7  A    between atoms: N_15  and  C_16 
ROOT
HETATM    1  N   UNL     1     -41.953 -50.199  11.787  1.00  0.00    -0.326 N 
HETATM    2  C   UNL     1     -41.784 -50.588  13.101  1.00  0.00     0.228 C 
HETATM    3  O   UNL     1     -41.781 -49.817  14.062  1.00  0.00    -0.273 OA
HETATM    4  H   UNL     1     -42.138 -50.911  11.088  1.00  0.00     0.169 HD
ENDROOT
BRANCH   1   5
HETATM    5  C   UNL     1     -41.971 -48.848  11.337  1.00  0.00     0.050 A 
HETATM    6  C   UNL     1     -43.131 -48.079  11.266  1.00  0.00     0.035 A 
HETATM    7  C   UNL     1     -43.079 -46.760  10.827  1.00  0.00     0.058 A 
HETATM    8  C   UNL     1     -41.857 -46.236  10.454  1.00  0.00     0.141 A 
HETATM    9  N   UNL     1     -40.700 -46.923  10.515  1.00  0.00    -0.345 N 
HETATM   10  C   UNL     1     -40.787 -48.210  10.959  1.00  0.00     0.119 A 
ATOM     11  HN  UNL     1     -39.810 -46.504  10.245  1.00  0.00     0.167 HD
BRANCH   8  12
HETATM   12  O   UNL     1     -41.866 -44.898  10.132  1.00  0.00    -0.334 OA
BRANCH  12  13
HETATM   13  C   UNL     1     -42.023 -44.028  11.252  1.00  0.00     0.203 C 
BRANCH  13  14
HETATM   14  C   UNL     1     -40.688 -43.308  11.441  1.00  0.00     0.193 C 
BRANCH  14  15
HETATM   15  O   UNL     1     -39.624 -44.248  11.581  1.00  0.00    -0.394 OA
HETATM   16  C   UNL     1     -39.043 -44.175  12.878  1.00  0.00     0.201 C 
ENDBRANCH  14  15
ENDBRANCH  13  14
ENDBRANCH  12  13
ENDBRANCH   8  12
ENDBRANCH   1   5
BRANCH   2  17
HETATM   17  C   UNL     1     -41.718 -52.079  13.371  1.00  0.00     0.105 C 
HETATM   18  C   UNL     1     -41.536 -52.259  14.879  1.00  0.00     0.140 C 
HETATM   19  N   UNL     1     -40.845 -53.513  15.028  1.00  0.00    -0.347 N 
HETATM   20  C   UNL     1     -40.220 -53.884  13.844  1.00  0.00     0.221 C 
HETATM   21  O   UNL     1     -39.470 -54.833  13.682  1.00  0.00    -0.273 OA
HETATM   22  C   UNL     1     -40.555 -52.864  12.780  1.00  0.00     0.118 C 
BRANCH  19  23
HETATM   23  C   UNL     1     -40.407 -54.020  16.335  1.00  0.00     0.079 C 
HETATM   24  C   UNL     1     -39.191 -53.243  16.849  1.00  0.00     0.032 C 
HETATM   25  C   UNL     1     -41.520 -53.997  17.383  1.00  0.00     0.032 C 
ENDBRANCH  19  23
ENDBRANCH   2  17
TORSDOF 7
ENDMDL
