MODEL 1
REMARK VINA RESULT:      -6.7      0.000      0.000
REMARK  7 active torsions:
REMARK  status: ('A' for Active; 'I' for Inactive)
REMARK    1  A    between atoms: N_4  and  C_5 
REMARK    2  A    between atoms: C_5  and  C_6 
REMARK    3  A    between atoms: C_6  and  O_7 
REMARK    4  A    between atoms: C_6  and  C_8 
REMARK    5  A    between atoms: C_8  and  N_9 
REMARK    6  A    between atoms: C_10  and  C_11 
REMARK    7  A    between atoms: C_11  and  O_12 
ROOT
HETATM    1  N   UNL     1     -42.554 -52.019  13.183  1.00  0.00    -0.330 N 
HETATM    2  C   UNL     1     -42.182 -53.328  12.952  1.00  0.00     0.108 A 
HETATM    3  N   UNL     1     -43.235 -54.124  12.952  1.00  0.00    -0.342 N 
ATOM      4  HN  UNL     1     -43.247 -55.127  12.770  1.00  0.00     0.167 HD
HETATM    5  C   UNL     1     -44.307 -53.325  13.248  1.00  0.00     0.060 A 
HETATM    6  C   UNL     1     -45.654 -53.669  13.435  1.00  0.00     0.032 A 
HETATM    7  C   UNL     1     -46.572 -52.665  13.756  1.00  0.00     0.002 A 
HETATM    8  C   UNL     1     -46.166 -51.335  13.870  1.00  0.00     0.002 A 
HETATM    9  C   UNL     1     -44.827 -50.971  13.675  1.00  0.00     0.032 A 
HETATM   10  C   UNL     1     -43.919 -51.994  13.376  1.00  0.00     0.062 A 
ENDROOT
BRANCH   1  11
HETATM   11  C   UNL     1     -41.681 -50.853  13.265  1.00  0.00     0.164 C 
BRANCH  11  12
HETATM   12  C   UNL     1     -41.592 -50.106  11.926  1.00  0.00     0.164 C 
BRANCH  12  13
HETATM   13  C   UNL     1     -41.208 -48.609  12.104  1.00  0.00     0.305 C 
BRANCH  13  14
HETATM   14  N   UNL     1     -42.156 -47.685  11.437  1.00  0.00     0.096 N 
HETATM   15  C   UNL     1     -42.202 -47.913   9.974  1.00  0.00     0.303 C 
HETATM   16  C   UNL     1     -43.114 -46.901   9.233  1.00  0.00     0.146 C 
HETATM   17  C   UNL     1     -44.604 -47.123   9.491  1.00  0.00     0.041 C 
HETATM   18  O   UNL     1     -42.732 -45.545   9.529  1.00  0.00    -0.378 OA
HETATM   19  C   UNL     1     -42.714 -45.283  10.939  1.00  0.00     0.146 C 
HETATM   20  C   UNL     1     -41.787 -46.270  11.672  1.00  0.00     0.303 C 
HETATM   21  C   UNL     1     -42.224 -43.856  11.154  1.00  0.00     0.041 C 
ENDBRANCH  13  14
ENDBRANCH  12  13
BRANCH  12  22
HETATM   22  O   UNL     1     -40.647 -50.748  11.062  1.00  0.00    -0.392 OA
HETATM   23  H   UNL     1     -39.865 -50.176  10.981  1.00  0.00     0.210 HD
ENDBRANCH  12  22
ENDBRANCH  11  12
ENDBRANCH   1  11
BRANCH   2  24
HETATM   24  C   UNL     1     -40.789 -53.790  12.710  1.00  0.00     0.240 C 
BRANCH  24  25
HETATM   25  O   UNL     1     -40.519 -53.593  11.328  1.00  0.00    -0.393 OA
HETATM   26  H   UNL     1     -39.573 -53.813  11.222  1.00  0.00     0.209 HD
ENDBRANCH  24  25
ENDBRANCH   2  24
TORSDOF 7
ENDMDL
MODEL 2
REMARK VINA RESULT:      -6.4      0.920      1.787
REMARK  7 active torsions:
REMARK  status: ('A' for Active; 'I' for Inactive)
REMARK    1  A    between atoms: N_4  and  C_5 
REMARK    2  A    between atoms: C_5  and  C_6 
REMARK    3  A    between atoms: C_6  and  O_7 
REMARK    4  A    between atoms: C_6  and  C_8 
REMARK    5  A    between atoms: C_8  and  N_9 
REMARK    6  A    between atoms: C_10  and  C_11 
REMARK    7  A    between atoms: C_11  and  O_12 
ROOT
HETATM    1  N   UNL     1     -42.494 -52.086  13.289  1.00  0.00    -0.330 N 
HETATM    2  C   UNL     1     -42.196 -53.389  12.945  1.00  0.00     0.108 A 
HETATM    3  N   UNL     1     -43.296 -54.109  12.828  1.00  0.00    -0.342 N 
ATOM      4  HN  UNL     1     -43.364 -55.087  12.549  1.00  0.00     0.167 HD
HETATM    5  C   UNL     1     -44.328 -53.271  13.161  1.00  0.00     0.060 A 
HETATM    6  C   UNL     1     -45.700 -53.540  13.262  1.00  0.00     0.032 A 
HETATM    7  C   UNL     1     -46.566 -52.511  13.645  1.00  0.00     0.002 A 
HETATM    8  C   UNL     1     -46.083 -51.229  13.904  1.00  0.00     0.002 A 
HETATM    9  C   UNL     1     -44.716 -50.939  13.795  1.00  0.00     0.032 A 
HETATM   10  C   UNL     1     -43.862 -51.988  13.432  1.00  0.00     0.062 A 
ENDROOT
BRANCH   1  11
HETATM   11  C   UNL     1     -41.554 -50.994  13.517  1.00  0.00     0.164 C 
BRANCH  11  12
HETATM   12  C   UNL     1     -41.397 -50.102  12.277  1.00  0.00     0.164 C 
BRANCH  12  13
HETATM   13  C   UNL     1     -40.493 -48.865  12.544  1.00  0.00     0.305 C 
BRANCH  13  14
HETATM   14  N   UNL     1     -40.724 -47.760  11.582  1.00  0.00     0.096 N 
HETATM   15  C   UNL     1     -40.557 -46.435  12.223  1.00  0.00     0.303 C 
HETATM   16  C   UNL     1     -40.882 -45.257  11.269  1.00  0.00     0.146 C 
HETATM   17  C   UNL     1     -39.836 -45.054  10.173  1.00  0.00     0.041 C 
HETATM   18  O   UNL     1     -42.202 -45.392  10.709  1.00  0.00    -0.378 OA
HETATM   19  C   UNL     1     -42.383 -46.653  10.049  1.00  0.00     0.146 C 
HETATM   20  C   UNL     1     -42.086 -47.824  11.004  1.00  0.00     0.303 C 
HETATM   21  C   UNL     1     -43.825 -46.735   9.563  1.00  0.00     0.041 C 
ENDBRANCH  13  14
ENDBRANCH  12  13
BRANCH  12  22
HETATM   22  O   UNL     1     -40.867 -50.861  11.184  1.00  0.00    -0.392 OA
HETATM   23  H   UNL     1     -41.190 -51.775  11.257  1.00  0.00     0.210 HD
ENDBRANCH  12  22
ENDBRANCH  11  12
ENDBRANCH   1  11
BRANCH   2  24
HETATM   24  C   UNL     1     -40.826 -53.918  12.712  1.00  0.00     0.240 C 
BRANCH  24  25
HETATM   25  O   UNL     1     -40.466 -53.571  11.381  1.00  0.00    -0.393 OA
HETATM   26  H   UNL     1     -40.279 -52.612  11.412  1.00  0.00     0.209 HD
ENDBRANCH  24  25
ENDBRANCH   2  24
TORSDOF 7
ENDMDL
MODEL 3
REMARK VINA RESULT:      -6.2      3.070      7.643
REMARK  7 active torsions:
REMARK  status: ('A' for Active; 'I' for Inactive)
REMARK    1  A    between atoms: N_4  and  C_5 
REMARK    2  A    between atoms: C_5  and  C_6 
REMARK    3  A    between atoms: C_6  and  O_7 
REMARK    4  A    between atoms: C_6  and  C_8 
REMARK    5  A    between atoms: C_8  and  N_9 
REMARK    6  A    between atoms: C_10  and  C_11 
REMARK    7  A    between atoms: C_11  and  O_12 
ROOT
HETATM    1  N   UNL     1     -40.073 -50.278  13.173  1.00  0.00    -0.330 N 
HETATM    2  C   UNL     1     -40.033 -49.230  12.276  1.00  0.00     0.108 A 
HETATM    3  N   UNL     1     -39.020 -48.425  12.538  1.00  0.00    -0.342 N 
ATOM      4  HN  UNL     1     -38.739 -47.599  12.010  1.00  0.00     0.167 HD
HETATM    5  C   UNL     1     -38.425 -48.928  13.664  1.00  0.00     0.060 A 
HETATM    6  C   UNL     1     -37.345 -48.425  14.404  1.00  0.00     0.032 A 
HETATM    7  C   UNL     1     -36.927 -49.115  15.547  1.00  0.00     0.002 A 
HETATM    8  C   UNL     1     -37.555 -50.297  15.938  1.00  0.00     0.002 A 
HETATM    9  C   UNL     1     -38.627 -50.820  15.204  1.00  0.00     0.032 A 
HETATM   10  C   UNL     1     -39.045 -50.103  14.076  1.00  0.00     0.062 A 
ENDROOT
BRANCH   1  11
HETATM   11  C   UNL     1     -41.045 -51.365  13.219  1.00  0.00     0.164 C 
BRANCH  11  12
HETATM   12  C   UNL     1     -40.602 -52.568  12.372  1.00  0.00     0.164 C 
BRANCH  12  13
HETATM   13  C   UNL     1     -40.866 -53.926  13.082  1.00  0.00     0.305 C 
BRANCH  13  14
HETATM   14  N   UNL     1     -41.969 -53.858  14.071  1.00  0.00     0.096 N 
HETATM   15  C   UNL     1     -41.651 -54.626  15.297  1.00  0.00     0.303 C 
HETATM   16  C   UNL     1     -42.821 -54.653  16.314  1.00  0.00     0.146 C 
HETATM   17  C   UNL     1     -43.058 -53.310  17.005  1.00  0.00     0.041 C 
HETATM   18  O   UNL     1     -44.029 -55.142  15.702  1.00  0.00    -0.378 OA
HETATM   19  C   UNL     1     -44.383 -54.394  14.530  1.00  0.00     0.146 C 
HETATM   20  C   UNL     1     -43.231 -54.390  13.508  1.00  0.00     0.303 C 
HETATM   21  C   UNL     1     -45.622 -55.033  13.912  1.00  0.00     0.041 C 
ENDBRANCH  13  14
ENDBRANCH  12  13
BRANCH  12  22
HETATM   22  O   UNL     1     -41.264 -52.550  11.102  1.00  0.00    -0.392 OA
HETATM   23  H   UNL     1     -40.619 -52.788  10.414  1.00  0.00     0.210 HD
ENDBRANCH  12  22
ENDBRANCH  11  12
ENDBRANCH   1  11
BRANCH   2  24
HETATM   24  C   UNL     1     -40.982 -49.034  11.148  1.00  0.00     0.240 C 
BRANCH  24  25
HETATM   25  O   UNL     1     -40.543 -49.871  10.084  1.00  0.00    -0.393 OA
HETATM   26  H   UNL     1     -39.567 -49.813  10.104  1.00  0.00     0.209 HD
ENDBRANCH  24  25
ENDBRANCH   2  24
TORSDOF 7
ENDMDL
MODEL 4
REMARK VINA RESULT:      -6.1      2.254      3.519
REMARK  7 active torsions:
REMARK  status: ('A' for Active; 'I' for Inactive)
REMARK    1  A    between atoms: N_4  and  C_5 
REMARK    2  A    between atoms: C_5  and  C_6 
REMARK    3  A    between atoms: C_6  and  O_7 
REMARK    4  A    between atoms: C_6  and  C_8 
REMARK    5  A    between atoms: C_8  and  N_9 
REMARK    6  A    between atoms: C_10  and  C_11 
REMARK    7  A    between atoms: C_11  and  O_12 
ROOT
HETATM    1  N   UNL     1     -42.804 -52.670  14.210  1.00  0.00    -0.330 N 
HETATM    2  C   UNL     1     -42.429 -53.177  12.981  1.00  0.00     0.108 A 
HETATM    3  N   UNL     1     -43.412 -53.067  12.107  1.00  0.00    -0.342 N 
ATOM      4  HN  UNL     1     -43.390 -53.327  11.122  1.00  0.00     0.167 HD
HETATM    5  C   UNL     1     -44.468 -52.533  12.797  1.00  0.00     0.060 A 
HETATM    6  C   UNL     1     -45.775 -52.267  12.365  1.00  0.00     0.032 A 
HETATM    7  C   UNL     1     -46.694 -51.732  13.274  1.00  0.00     0.002 A 
HETATM    8  C   UNL     1     -46.318 -51.446  14.586  1.00  0.00     0.002 A 
HETATM    9  C   UNL     1     -45.013 -51.694  15.031  1.00  0.00     0.032 A 
HETATM   10  C   UNL     1     -44.114 -52.249  14.113  1.00  0.00     0.062 A 
ENDROOT
BRANCH   1  11
HETATM   11  C   UNL     1     -42.002 -52.620  15.427  1.00  0.00     0.164 C 
BRANCH  11  12
HETATM   12  C   UNL     1     -40.913 -51.539  15.354  1.00  0.00     0.164 C 
BRANCH  12  13
HETATM   13  C   UNL     1     -41.481 -50.148  14.951  1.00  0.00     0.305 C 
BRANCH  13  14
HETATM   14  N   UNL     1     -40.844 -49.594  13.731  1.00  0.00     0.096 N 
HETATM   15  C   UNL     1     -41.720 -49.739  12.545  1.00  0.00     0.303 C 
HETATM   16  C   UNL     1     -41.048 -49.254  11.235  1.00  0.00     0.146 C 
HETATM   17  C   UNL     1     -40.896 -47.736  11.154  1.00  0.00     0.041 C 
HETATM   18  O   UNL     1     -39.785 -49.914  11.025  1.00  0.00    -0.378 OA
HETATM   19  C   UNL     1     -38.901 -49.760  12.144  1.00  0.00     0.146 C 
HETATM   20  C   UNL     1     -39.558 -50.267  13.441  1.00  0.00     0.303 C 
HETATM   21  C   UNL     1     -37.631 -50.555  11.861  1.00  0.00     0.041 C 
ENDBRANCH  13  14
ENDBRANCH  12  13
BRANCH  12  22
HETATM   22  O   UNL     1     -40.230 -51.436  16.609  1.00  0.00    -0.392 OA
HETATM   23  H   UNL     1     -39.807 -50.563  16.660  1.00  0.00     0.210 HD
ENDBRANCH  12  22
ENDBRANCH  11  12
ENDBRANCH   1  11
BRANCH   2  24
HETATM   24  C   UNL     1     -41.094 -53.750  12.666  1.00  0.00     0.240 C 
BRANCH  24  25
HETATM   25  O   UNL     1     -40.605 -53.061  11.521  1.00  0.00    -0.393 OA
HETATM   26  H   UNL     1     -40.409 -52.156  11.835  1.00  0.00     0.209 HD
ENDBRANCH  24  25
ENDBRANCH   2  24
TORSDOF 7
ENDMDL
MODEL 5
REMARK VINA RESULT:      -6.0      1.503      1.772
REMARK  7 active torsions:
REMARK  status: ('A' for Active; 'I' for Inactive)
REMARK    1  A    between atoms: N_4  and  C_5 
REMARK    2  A    between atoms: C_5  and  C_6 
REMARK    3  A    between atoms: C_6  and  O_7 
REMARK    4  A    between atoms: C_6  and  C_8 
REMARK    5  A    between atoms: C_8  and  N_9 
REMARK    6  A    between atoms: C_10  and  C_11 
REMARK    7  A    between atoms: C_11  and  O_12 
ROOT
HETATM    1  N   UNL     1     -42.552 -52.041  13.865  1.00  0.00    -0.330 N 
HETATM    2  C   UNL     1     -42.208 -52.950  12.884  1.00  0.00     0.108 A 
HETATM    3  N   UNL     1     -43.274 -53.341  12.210  1.00  0.00    -0.342 N 
ATOM      4  HN  UNL     1     -43.298 -53.976  11.413  1.00  0.00     0.167 HD
HETATM    5  C   UNL     1     -44.340 -52.718  12.803  1.00  0.00     0.060 A 
HETATM    6  C   UNL     1     -45.709 -52.831  12.523  1.00  0.00     0.032 A 
HETATM    7  C   UNL     1     -46.621 -52.101  13.292  1.00  0.00     0.002 A 
HETATM    8  C   UNL     1     -46.181 -51.255  14.310  1.00  0.00     0.002 A 
HETATM    9  C   UNL     1     -44.816 -51.121  14.596  1.00  0.00     0.032 A 
HETATM   10  C   UNL     1     -43.921 -51.877  13.829  1.00  0.00     0.062 A 
ENDROOT
BRANCH   1  11
HETATM   11  C   UNL     1     -41.660 -51.390  14.818  1.00  0.00     0.164 C 
BRANCH  11  12
HETATM   12  C   UNL     1     -40.907 -50.209  14.186  1.00  0.00     0.164 C 
BRANCH  12  13
HETATM   13  C   UNL     1     -41.606 -48.845  14.452  1.00  0.00     0.305 C 
BRANCH  13  14
HETATM   14  N   UNL     1     -41.863 -48.075  13.211  1.00  0.00     0.096 N 
HETATM   15  C   UNL     1     -41.877 -48.952  12.018  1.00  0.00     0.303 C 
HETATM   16  C   UNL     1     -42.051 -48.166  10.692  1.00  0.00     0.146 C 
HETATM   17  C   UNL     1     -43.455 -47.592  10.504  1.00  0.00     0.041 C 
HETATM   18  O   UNL     1     -41.049 -47.140  10.563  1.00  0.00    -0.378 OA
HETATM   19  C   UNL     1     -41.035 -46.252  11.689  1.00  0.00     0.146 C 
HETATM   20  C   UNL     1     -40.835 -47.029  13.003  1.00  0.00     0.303 C 
HETATM   21  C   UNL     1     -39.896 -45.257  11.498  1.00  0.00     0.041 C 
ENDBRANCH  13  14
ENDBRANCH  12  13
BRANCH  12  22
HETATM   22  O   UNL     1     -39.560 -50.164  14.672  1.00  0.00    -0.392 OA
HETATM   23  H   UNL     1     -39.303 -51.058  14.955  1.00  0.00     0.210 HD
ENDBRANCH  12  22
ENDBRANCH  11  12
ENDBRANCH   1  11
BRANCH   2  24
HETATM   24  C   UNL     1     -40.825 -53.417  12.599  1.00  0.00     0.240 C 
BRANCH  24  25
HETATM   25  O   UNL     1     -40.639 -53.334  11.192  1.00  0.00    -0.393 OA
HETATM   26  H   UNL     1     -41.459 -52.926  10.852  1.00  0.00     0.209 HD
ENDBRANCH  24  25
ENDBRANCH   2  24
TORSDOF 7
ENDMDL
MODEL 6
REMARK VINA RESULT:      -5.9      2.790      7.481
REMARK  7 active torsions:
REMARK  status: ('A' for Active; 'I' for Inactive)
REMARK    1  A    between atoms: N_4  and  C_5 
REMARK    2  A    between atoms: C_5  and  C_6 
REMARK    3  A    between atoms: C_6  and  O_7 
REMARK    4  A    between atoms: C_6  and  C_8 
REMARK    5  A    between atoms: C_8  and  N_9 
REMARK    6  A    between atoms: C_10  and  C_11 
REMARK    7  A    between atoms: C_11  and  O_12 
ROOT
HETATM    1  N   UNL     1     -41.757 -47.604  11.165  1.00  0.00    -0.330 N 
HETATM    2  C   UNL     1     -42.305 -47.003  10.049  1.00  0.00     0.108 A 
HETATM    3  N   UNL     1     -41.769 -45.815   9.843  1.00  0.00    -0.342 N 
ATOM      4  HN  UNL     1     -41.964 -45.178   9.071  1.00  0.00     0.167 HD
HETATM    5  C   UNL     1     -40.897 -45.613  10.880  1.00  0.00     0.060 A 
HETATM    6  C   UNL     1     -40.112 -44.491  11.183  1.00  0.00     0.032 A 
HETATM    7  C   UNL     1     -39.306 -44.516  12.325  1.00  0.00     0.002 A 
HETATM    8  C   UNL     1     -39.262 -45.643  13.145  1.00  0.00     0.002 A 
HETATM    9  C   UNL     1     -40.030 -46.778  12.851  1.00  0.00     0.032 A 
HETATM   10  C   UNL     1     -40.847 -46.726  11.715  1.00  0.00     0.062 A 
ENDROOT
BRANCH   1  11
HETATM   11  C   UNL     1     -42.093 -48.910  11.721  1.00  0.00     0.164 C 
BRANCH  11  12
HETATM   12  C   UNL     1     -40.953 -49.923  11.536  1.00  0.00     0.164 C 
BRANCH  12  13
HETATM   13  C   UNL     1     -41.365 -51.365  11.948  1.00  0.00     0.305 C 
BRANCH  13  14
HETATM   14  N   UNL     1     -40.381 -52.014  12.848  1.00  0.00     0.096 N 
HETATM   15  C   UNL     1     -41.047 -52.855  13.870  1.00  0.00     0.303 C 
HETATM   16  C   UNL     1     -40.052 -53.474  14.885  1.00  0.00     0.146 C 
HETATM   17  C   UNL     1     -39.184 -54.581  14.288  1.00  0.00     0.041 C 
HETATM   18  O   UNL     1     -39.243 -52.457  15.505  1.00  0.00    -0.378 OA
HETATM   19  C   UNL     1     -38.556 -51.649  14.539  1.00  0.00     0.146 C 
HETATM   20  C   UNL     1     -39.546 -51.011  13.548  1.00  0.00     0.303 C 
HETATM   21  C   UNL     1     -37.795 -50.558  15.285  1.00  0.00     0.041 C 
ENDBRANCH  13  14
ENDBRANCH  12  13
BRANCH  12  22
HETATM   22  O   UNL     1     -40.502 -49.920  10.176  1.00  0.00    -0.392 OA
HETATM   23  H   UNL     1     -40.346 -49.000   9.905  1.00  0.00     0.210 HD
ENDBRANCH  12  22
ENDBRANCH  11  12
ENDBRANCH   1  11
BRANCH   2  24
HETATM   24  C   UNL     1     -43.343 -47.612   9.175  1.00  0.00     0.240 C 
BRANCH  24  25
HETATM   25  O   UNL     1     -42.664 -48.212   8.078  1.00  0.00    -0.393 OA
HETATM   26  H   UNL     1     -42.400 -47.465   7.506  1.00  0.00     0.209 HD
ENDBRANCH  24  25
ENDBRANCH   2  24
TORSDOF 7
ENDMDL
MODEL 7
REMARK VINA RESULT:      -5.9      2.481      4.196
REMARK  7 active torsions:
REMARK  status: ('A' for Active; 'I' for Inactive)
REMARK    1  A    between atoms: N_4  and  C_5 
REMARK    2  A    between atoms: C_5  and  C_6 
REMARK    3  A    between atoms: C_6  and  O_7 
REMARK    4  A    between atoms: C_6  and  C_8 
REMARK    5  A    between atoms: C_8  and  N_9 
REMARK    6  A    between atoms: C_10  and  C_11 
REMARK    7  A    between atoms: C_11  and  O_12 
ROOT
HETATM    1  N   UNL     1     -43.153 -53.327  14.576  1.00  0.00    -0.330 N 
HETATM    2  C   UNL     1     -43.104 -52.807  15.855  1.00  0.00     0.108 A 
HETATM    3  N   UNL     1     -44.184 -52.095  16.115  1.00  0.00    -0.342 N 
ATOM      4  HN  UNL     1     -44.420 -51.635  16.994  1.00  0.00     0.167 HD
HETATM    5  C   UNL     1     -44.924 -52.103  14.962  1.00  0.00     0.060 A 
HETATM    6  C   UNL     1     -46.130 -51.450  14.670  1.00  0.00     0.032 A 
HETATM    7  C   UNL     1     -46.688 -51.596  13.396  1.00  0.00     0.002 A 
HETATM    8  C   UNL     1     -46.071 -52.392  12.432  1.00  0.00     0.002 A 
HETATM    9  C   UNL     1     -44.872 -53.061  12.710  1.00  0.00     0.032 A 
HETATM   10  C   UNL     1     -44.318 -52.886  13.984  1.00  0.00     0.062 A 
ENDROOT
BRANCH   1  11
HETATM   11  C   UNL     1     -42.148 -54.155  13.919  1.00  0.00     0.164 C 
BRANCH  11  12
HETATM   12  C   UNL     1     -41.358 -53.370  12.861  1.00  0.00     0.164 C 
BRANCH  12  13
HETATM   13  C   UNL     1     -40.233 -52.496  13.485  1.00  0.00     0.305 C 
BRANCH  13  14
HETATM   14  N   UNL     1     -39.723 -51.459  12.556  1.00  0.00     0.096 N 
HETATM   15  C   UNL     1     -38.719 -50.586  13.210  1.00  0.00     0.303 C 
HETATM   16  C   UNL     1     -38.234 -49.433  12.295  1.00  0.00     0.146 C 
HETATM   17  C   UNL     1     -37.337 -49.901  11.149  1.00  0.00     0.041 C 
HETATM   18  O   UNL     1     -39.344 -48.659  11.803  1.00  0.00    -0.378 OA
HETATM   19  C   UNL     1     -40.316 -49.472  11.132  1.00  0.00     0.146 C 
HETATM   20  C   UNL     1     -40.819 -50.602  12.050  1.00  0.00     0.303 C 
HETATM   21  C   UNL     1     -41.483 -48.581  10.721  1.00  0.00     0.041 C 
ENDBRANCH  13  14
ENDBRANCH  12  13
BRANCH  12  22
HETATM   22  O   UNL     1     -40.794 -54.267  11.897  1.00  0.00    -0.392 OA
HETATM   23  H   UNL     1     -40.147 -54.836  12.346  1.00  0.00     0.210 HD
ENDBRANCH  12  22
ENDBRANCH  11  12
ENDBRANCH   1  11
BRANCH   2  24
HETATM   24  C   UNL     1     -42.000 -53.031  16.825  1.00  0.00     0.240 C 
BRANCH  24  25
HETATM   25  O   UNL     1     -41.217 -51.844  16.848  1.00  0.00    -0.393 OA
HETATM   26  H   UNL     1     -40.298 -52.145  16.714  1.00  0.00     0.209 HD
ENDBRANCH  24  25
ENDBRANCH   2  24
TORSDOF 7
ENDMDL
MODEL 8
REMARK VINA RESULT:      -5.9      1.977      7.317
REMARK  7 active torsions:
REMARK  status: ('A' for Active; 'I' for Inactive)
REMARK    1  A    between atoms: N_4  and  C_5 
REMARK    2  A    between atoms: C_5  and  C_6 
REMARK    3  A    between atoms: C_6  and  O_7 
REMARK    4  A    between atoms: C_6  and  C_8 
REMARK    5  A    between atoms: C_8  and  N_9 
REMARK    6  A    between atoms: C_10  and  C_11 
REMARK    7  A    between atoms: C_11  and  O_12 
ROOT
HETATM    1  N   UNL     1     -41.412 -47.597  11.327  1.00  0.00    -0.330 N 
HETATM    2  C   UNL     1     -41.955 -46.997  10.208  1.00  0.00     0.108 A 
HETATM    3  N   UNL     1     -41.479 -45.776  10.050  1.00  0.00    -0.342 N 
ATOM      4  HN  UNL     1     -41.683 -45.130   9.288  1.00  0.00     0.167 HD
HETATM    5  C   UNL     1     -40.655 -45.555  11.122  1.00  0.00     0.060 A 
HETATM    6  C   UNL     1     -39.945 -44.400  11.479  1.00  0.00     0.032 A 
HETATM    7  C   UNL     1     -39.177 -44.411  12.648  1.00  0.00     0.002 A 
HETATM    8  C   UNL     1     -39.098 -45.556  13.441  1.00  0.00     0.002 A 
HETATM    9  C   UNL     1     -39.791 -46.722  13.092  1.00  0.00     0.032 A 
HETATM   10  C   UNL     1     -40.571 -46.685  11.930  1.00  0.00     0.062 A 
ENDROOT
BRANCH   1  11
HETATM   11  C   UNL     1     -41.693 -48.934  11.838  1.00  0.00     0.164 C 
BRANCH  11  12
HETATM   12  C   UNL     1     -40.556 -49.919  11.526  1.00  0.00     0.164 C 
BRANCH  12  13
HETATM   13  C   UNL     1     -40.836 -51.346  12.078  1.00  0.00     0.305 C 
BRANCH  13  14
HETATM   14  N   UNL     1     -42.095 -51.428  12.858  1.00  0.00     0.096 N 
HETATM   15  C   UNL     1     -41.833 -51.427  14.316  1.00  0.00     0.303 C 
HETATM   16  C   UNL     1     -43.121 -51.606  15.160  1.00  0.00     0.146 C 
HETATM   17  C   UNL     1     -44.034 -50.380  15.146  1.00  0.00     0.041 C 
HETATM   18  O   UNL     1     -43.838 -52.792  14.769  1.00  0.00    -0.378 OA
HETATM   19  C   UNL     1     -44.137 -52.805  13.366  1.00  0.00     0.146 C 
HETATM   20  C   UNL     1     -42.855 -52.655  12.526  1.00  0.00     0.303 C 
HETATM   21  C   UNL     1     -44.820 -54.127  13.036  1.00  0.00     0.041 C 
ENDBRANCH  13  14
ENDBRANCH  12  13
BRANCH  12  22
HETATM   22  O   UNL     1     -40.330 -49.983  10.112  1.00  0.00    -0.392 OA
HETATM   23  H   UNL     1     -39.918 -49.150   9.827  1.00  0.00     0.210 HD
ENDBRANCH  12  22
ENDBRANCH  11  12
ENDBRANCH   1  11
BRANCH   2  24
HETATM   24  C   UNL     1     -42.927 -47.638   9.283  1.00  0.00     0.240 C 
BRANCH  24  25
HETATM   25  O   UNL     1     -43.036 -46.795   8.143  1.00  0.00    -0.393 OA
HETATM   26  H   UNL     1     -43.564 -47.307   7.500  1.00  0.00     0.209 HD
ENDBRANCH  24  25
ENDBRANCH   2  24
TORSDOF 7
ENDMDL
MODEL 9
REMARK VINA RESULT:      -5.7      3.715      6.549
REMARK  7 active torsions:
REMARK  status: ('A' for Active; 'I' for Inactive)
REMARK    1  A    between atoms: N_4  and  C_5 
REMARK    2  A    between atoms: C_5  and  C_6 
REMARK    3  A    between atoms: C_6  and  O_7 
REMARK    4  A    between atoms: C_6  and  C_8 
REMARK    5  A    between atoms: C_8  and  N_9 
REMARK    6  A    between atoms: C_10  and  C_11 
REMARK    7  A    between atoms: C_11  and  O_12 
ROOT
HETATM    1  N   UNL     1     -42.649 -51.189  13.442  1.00  0.00    -0.330 N 
HETATM    2  C   UNL     1     -42.204 -52.062  12.469  1.00  0.00     0.108 A 
HETATM    3  N   UNL     1     -43.190 -52.822  12.031  1.00  0.00    -0.342 N 
ATOM      4  HN  UNL     1     -43.145 -53.521  11.291  1.00  0.00     0.167 HD
HETATM    5  C   UNL     1     -44.287 -52.477  12.776  1.00  0.00     0.060 A 
HETATM    6  C   UNL     1     -45.581 -53.017  12.765  1.00  0.00     0.032 A 
HETATM    7  C   UNL     1     -46.537 -52.505  13.647  1.00  0.00     0.002 A 
HETATM    8  C   UNL     1     -46.222 -51.458  14.513  1.00  0.00     0.002 A 
HETATM    9  C   UNL     1     -44.939 -50.898  14.529  1.00  0.00     0.032 A 
HETATM   10  C   UNL     1     -43.989 -51.439  13.654  1.00  0.00     0.062 A 
ENDROOT
BRANCH   1  11
HETATM   11  C   UNL     1     -41.862 -50.201  14.171  1.00  0.00     0.164 C 
BRANCH  11  12
HETATM   12  C   UNL     1     -41.554 -50.657  15.606  1.00  0.00     0.164 C 
BRANCH  12  13
HETATM   13  C   UNL     1     -40.406 -51.705  15.664  1.00  0.00     0.305 C 
BRANCH  13  14
HETATM   14  N   UNL     1     -40.896 -53.104  15.613  1.00  0.00     0.096 N 
HETATM   15  C   UNL     1     -42.182 -53.258  16.331  1.00  0.00     0.303 C 
HETATM   16  C   UNL     1     -42.677 -54.727  16.377  1.00  0.00     0.146 C 
HETATM   17  C   UNL     1     -43.168 -55.246  15.026  1.00  0.00     0.041 C 
HETATM   18  O   UNL     1     -41.672 -55.595  16.932  1.00  0.00    -0.378 OA
HETATM   19  C   UNL     1     -40.423 -55.495  16.234  1.00  0.00     0.146 C 
HETATM   20  C   UNL     1     -39.918 -54.040  16.212  1.00  0.00     0.303 C 
HETATM   21  C   UNL     1     -39.408 -56.385  16.942  1.00  0.00     0.041 C 
ENDBRANCH  13  14
ENDBRANCH  12  13
BRANCH  12  22
HETATM   22  O   UNL     1     -41.220 -49.529  16.424  1.00  0.00    -0.392 OA
HETATM   23  H   UNL     1     -41.330 -49.781  17.356  1.00  0.00     0.210 HD
ENDBRANCH  12  22
ENDBRANCH  11  12
ENDBRANCH   1  11
BRANCH   2  24
HETATM   24  C   UNL     1     -40.809 -52.131  11.958  1.00  0.00     0.240 C 
BRANCH  24  25
HETATM   25  O   UNL     1     -40.599 -53.460  11.498  1.00  0.00    -0.393 OA
HETATM   26  H   UNL     1     -39.681 -53.469  11.162  1.00  0.00     0.209 HD
ENDBRANCH  24  25
ENDBRANCH   2  24
TORSDOF 7
ENDMDL
