MODEL 1
REMARK VINA RESULT:      -5.8      0.000      0.000
REMARK  5 active torsions:
REMARK  status: ('A' for Active; 'I' for Inactive)
REMARK    1  A    between atoms: C_2  and  S_3 
REMARK    2  A    between atoms: S_3  and  C_4 
REMARK    3  A    between atoms: C_8  and  N_9 
REMARK       I    between atoms: N_9  and  C_10 
REMARK       I    between atoms: C_10  and  N_12 
REMARK    4  A    between atoms: N_12  and  C_13 
REMARK    5  A    between atoms: C_15  and  C_16 
ROOT
HETATM    1  N   UNL     1     -44.176 -50.643  13.207  1.00  0.00    -0.337 N 
HETATM    2  C   UNL     1     -43.231 -49.680  13.124  1.00  0.00     0.322 C 
HETATM    3  O   UNL     1     -42.474 -49.278  13.985  1.00  0.00    -0.247 OA
HETATM    4  N   UNL     1     -43.095 -49.185  11.799  1.00  0.00    -0.293 N 
HETATM    5  H   UNL     1     -44.822 -50.752  12.439  1.00  0.00     0.164 HD
HETATM    6  H   UNL     1     -43.491 -49.700  11.031  1.00  0.00     0.172 HD
ENDROOT
BRANCH   1   7
HETATM    7  C   UNL     1     -44.483 -51.439  14.404  1.00  0.00     0.100 C 
HETATM    8  C   UNL     1     -44.975 -52.872  14.099  1.00  0.00     0.070 C 
HETATM    9  C   UNL     1     -46.494 -52.739  13.937  1.00  0.00     0.017 C 
HETATM   10  C   UNL     1     -46.895 -51.476  14.698  1.00  0.00     0.003 C 
HETATM   11  C   UNL     1     -45.607 -50.926  15.311  1.00  0.00     0.026 C 
BRANCH   8  12
HETATM   12  S   UNL     1     -44.229 -53.682  12.644  1.00  0.00    -0.163 SA
BRANCH  12  13
HETATM   13  C   UNL     1     -42.541 -53.959  13.264  1.00  0.00     0.070 C 
HETATM   14  C   UNL     1     -42.617 -54.699  14.589  1.00  0.00     0.016 C 
ENDBRANCH  12  13
ENDBRANCH   8  12
ENDBRANCH   1   7
BRANCH   4  15
HETATM   15  C   UNL     1     -42.077 -48.277  11.541  1.00  0.00     0.127 A 
HETATM   16  C   UNL     1     -42.260 -46.916  11.499  1.00  0.00     0.076 A 
HETATM   17  C   UNL     1     -41.033 -46.397  11.022  1.00  0.00     0.029 A 
HETATM   18  N   UNL     1     -40.110 -47.357  10.882  1.00  0.00    -0.301 N 
HETATM   19  N   UNL     1     -40.761 -48.494  11.197  1.00  0.00    -0.281 N 
ATOM     20  HN  UNL     1     -39.136 -47.251  10.600  1.00  0.00     0.187 HD
HETATM   21  C   UNL     1     -40.002 -49.718  11.316  1.00  0.00     0.179 C 
BRANCH  17  22
HETATM   22  C   UNL     1     -40.704 -44.985  10.669  1.00  0.00     0.054 C 
HETATM   23  C   UNL     1     -39.386 -44.864   9.916  1.00  0.00     0.011 C 
ENDBRANCH  17  22
ENDBRANCH   4  15
TORSDOF 5
ENDMDL
MODEL 2
REMARK VINA RESULT:      -5.8      1.550      1.959
REMARK  5 active torsions:
REMARK  status: ('A' for Active; 'I' for Inactive)
REMARK    1  A    between atoms: C_2  and  S_3 
REMARK    2  A    between atoms: S_3  and  C_4 
REMARK    3  A    between atoms: C_8  and  N_9 
REMARK       I    between atoms: N_9  and  C_10 
REMARK       I    between atoms: C_10  and  N_12 
REMARK    4  A    between atoms: N_12  and  C_13 
REMARK    5  A    between atoms: C_15  and  C_16 
ROOT
HETATM    1  N   UNL     1     -42.911 -50.907  12.496  1.00  0.00    -0.337 N 
HETATM    2  C   UNL     1     -42.758 -49.600  12.189  1.00  0.00     0.322 C 
HETATM    3  O   UNL     1     -43.217 -48.626  12.751  1.00  0.00    -0.247 OA
HETATM    4  N   UNL     1     -41.849 -49.412  11.113  1.00  0.00    -0.293 N 
HETATM    5  H   UNL     1     -42.584 -51.599  11.836  1.00  0.00     0.164 HD
HETATM    6  H   UNL     1     -41.242 -50.164  10.836  1.00  0.00     0.172 HD
ENDROOT
BRANCH   1   7
HETATM    7  C   UNL     1     -43.687 -51.435  13.627  1.00  0.00     0.100 C 
HETATM    8  C   UNL     1     -43.612 -52.971  13.782  1.00  0.00     0.070 C 
HETATM    9  C   UNL     1     -44.745 -53.510  12.900  1.00  0.00     0.017 C 
HETATM   10  C   UNL     1     -45.756 -52.372  12.762  1.00  0.00     0.003 C 
HETATM   11  C   UNL     1     -45.204 -51.215  13.593  1.00  0.00     0.026 C 
BRANCH   8  12
HETATM   12  S   UNL     1     -42.017 -53.743  13.344  1.00  0.00    -0.163 SA
BRANCH  12  13
HETATM   13  C   UNL     1     -41.564 -54.470  14.949  1.00  0.00     0.070 C 
HETATM   14  C   UNL     1     -42.731 -55.294  15.465  1.00  0.00     0.016 C 
ENDBRANCH  12  13
ENDBRANCH   8  12
ENDBRANCH   1   7
BRANCH   4  15
HETATM   15  C   UNL     1     -41.502 -48.113  10.768  1.00  0.00     0.127 A 
HETATM   16  C   UNL     1     -40.408 -47.453  11.273  1.00  0.00     0.076 A 
HETATM   17  C   UNL     1     -40.542 -46.121  10.816  1.00  0.00     0.029 A 
HETATM   18  N   UNL     1     -41.586 -45.983   9.989  1.00  0.00    -0.301 N 
HETATM   19  N   UNL     1     -42.162 -47.201   9.973  1.00  0.00    -0.281 N 
ATOM     20  HN  UNL     1     -41.878 -45.145   9.486  1.00  0.00     0.187 HD
HETATM   21  C   UNL     1     -43.232 -47.450   9.035  1.00  0.00     0.179 C 
BRANCH  17  22
HETATM   22  C   UNL     1     -39.698 -44.939  11.159  1.00  0.00     0.054 C 
HETATM   23  C   UNL     1     -40.486 -43.636  11.152  1.00  0.00     0.011 C 
ENDBRANCH  17  22
ENDBRANCH   4  15
TORSDOF 5
ENDMDL
MODEL 3
REMARK VINA RESULT:      -5.6      1.773      2.869
REMARK  5 active torsions:
REMARK  status: ('A' for Active; 'I' for Inactive)
REMARK    1  A    between atoms: C_2  and  S_3 
REMARK    2  A    between atoms: S_3  and  C_4 
REMARK    3  A    between atoms: C_8  and  N_9 
REMARK       I    between atoms: N_9  and  C_10 
REMARK       I    between atoms: C_10  and  N_12 
REMARK    4  A    between atoms: N_12  and  C_13 
REMARK    5  A    between atoms: C_15  and  C_16 
ROOT
HETATM    1  N   UNL     1     -44.296 -51.263  13.504  1.00  0.00    -0.337 N 
HETATM    2  C   UNL     1     -43.203 -50.504  13.265  1.00  0.00     0.322 C 
HETATM    3  O   UNL     1     -42.702 -49.647  13.965  1.00  0.00    -0.247 OA
HETATM    4  N   UNL     1     -42.550 -50.881  12.061  1.00  0.00    -0.293 N 
HETATM    5  H   UNL     1     -44.667 -51.826  12.752  1.00  0.00     0.164 HD
HETATM    6  H   UNL     1     -42.770 -51.763  11.629  1.00  0.00     0.172 HD
ENDROOT
BRANCH   1   7
HETATM    7  C   UNL     1     -45.125 -51.210  14.717  1.00  0.00     0.100 C 
HETATM    8  C   UNL     1     -44.837 -52.342  15.729  1.00  0.00     0.070 C 
HETATM    9  C   UNL     1     -45.746 -53.498  15.294  1.00  0.00     0.017 C 
HETATM   10  C   UNL     1     -46.892 -52.866  14.505  1.00  0.00     0.003 C 
HETATM   11  C   UNL     1     -46.640 -51.359  14.530  1.00  0.00     0.026 C 
BRANCH   8  12
HETATM   12  S   UNL     1     -43.098 -52.885  15.849  1.00  0.00    -0.163 SA
BRANCH  12  13
HETATM   13  C   UNL     1     -43.158 -54.376  14.807  1.00  0.00     0.070 C 
HETATM   14  C   UNL     1     -42.160 -54.227  13.673  1.00  0.00     0.016 C 
ENDBRANCH  12  13
ENDBRANCH   8  12
ENDBRANCH   1   7
BRANCH   4  15
HETATM   15  C   UNL     1     -41.345 -50.267  11.749  1.00  0.00     0.127 A 
HETATM   16  C   UNL     1     -40.115 -50.810  12.031  1.00  0.00     0.076 A 
HETATM   17  C   UNL     1     -39.186 -49.787  11.727  1.00  0.00     0.029 A 
HETATM   18  N   UNL     1     -39.784 -48.719  11.187  1.00  0.00    -0.301 N 
HETATM   19  N   UNL     1     -41.097 -49.024  11.210  1.00  0.00    -0.281 N 
ATOM     20  HN  UNL     1     -39.346 -47.867  10.837  1.00  0.00     0.187 HD
HETATM   21  C   UNL     1     -42.026 -48.146  10.536  1.00  0.00     0.179 C 
BRANCH  17  22
HETATM   22  C   UNL     1     -37.711 -49.783  11.955  1.00  0.00     0.054 C 
HETATM   23  C   UNL     1     -37.247 -50.966  12.793  1.00  0.00     0.011 C 
ENDBRANCH  17  22
ENDBRANCH   4  15
TORSDOF 5
ENDMDL
MODEL 4
REMARK VINA RESULT:      -5.5      2.679      7.245
REMARK  5 active torsions:
REMARK  status: ('A' for Active; 'I' for Inactive)
REMARK    1  A    between atoms: C_2  and  S_3 
REMARK    2  A    between atoms: S_3  and  C_4 
REMARK    3  A    between atoms: C_8  and  N_9 
REMARK       I    between atoms: N_9  and  C_10 
REMARK       I    between atoms: C_10  and  N_12 
REMARK    4  A    between atoms: N_12  and  C_13 
REMARK    5  A    between atoms: C_15  and  C_16 
ROOT
HETATM    1  N   UNL     1     -42.157 -49.311  11.846  1.00  0.00    -0.337 N 
HETATM    2  C   UNL     1     -42.501 -50.368  12.615  1.00  0.00     0.322 C 
HETATM    3  O   UNL     1     -42.942 -50.375  13.747  1.00  0.00    -0.247 OA
HETATM    4  N   UNL     1     -42.397 -51.595  11.907  1.00  0.00    -0.293 N 
HETATM    5  H   UNL     1     -41.664 -49.484  10.981  1.00  0.00     0.164 HD
HETATM    6  H   UNL     1     -42.322 -51.587  10.904  1.00  0.00     0.172 HD
ENDROOT
BRANCH   1   7
HETATM    7  C   UNL     1     -42.265 -47.897  12.235  1.00  0.00     0.100 C 
HETATM    8  C   UNL     1     -42.240 -46.911  11.046  1.00  0.00     0.070 C 
HETATM    9  C   UNL     1     -40.754 -46.616  10.811  1.00  0.00     0.017 C 
HETATM   10  C   UNL     1     -40.047 -46.907  12.135  1.00  0.00     0.003 C 
HETATM   11  C   UNL     1     -41.143 -47.331  13.113  1.00  0.00     0.026 C 
BRANCH   8  12
HETATM   12  S   UNL     1     -43.044 -47.487   9.512  1.00  0.00    -0.163 SA
BRANCH  12  13
HETATM   13  C   UNL     1     -44.773 -47.579  10.073  1.00  0.00     0.070 C 
HETATM   14  C   UNL     1     -45.679 -47.065   8.967  1.00  0.00     0.016 C 
ENDBRANCH  12  13
ENDBRANCH   8  12
ENDBRANCH   1   7
BRANCH   4  15
HETATM   15  C   UNL     1     -42.833 -52.753  12.535  1.00  0.00     0.127 A 
HETATM   16  C   UNL     1     -44.115 -53.237  12.441  1.00  0.00     0.076 A 
HETATM   17  C   UNL     1     -44.172 -54.302  13.372  1.00  0.00     0.029 A 
HETATM   18  N   UNL     1     -42.978 -54.539  13.928  1.00  0.00    -0.301 N 
HETATM   19  N   UNL     1     -42.175 -53.587  13.413  1.00  0.00    -0.281 N 
ATOM     20  HN  UNL     1     -42.732 -55.273  14.591  1.00  0.00     0.187 HD
HETATM   21  C   UNL     1     -40.756 -53.659  13.676  1.00  0.00     0.179 C 
BRANCH  17  22
HETATM   22  C   UNL     1     -45.359 -55.112  13.774  1.00  0.00     0.054 C 
HETATM   23  C   UNL     1     -46.321 -54.336  14.663  1.00  0.00     0.011 C 
ENDBRANCH  17  22
ENDBRANCH   4  15
TORSDOF 5
ENDMDL
MODEL 5
REMARK VINA RESULT:      -5.3      2.863      6.944
REMARK  5 active torsions:
REMARK  status: ('A' for Active; 'I' for Inactive)
REMARK    1  A    between atoms: C_2  and  S_3 
REMARK    2  A    between atoms: S_3  and  C_4 
REMARK    3  A    between atoms: C_8  and  N_9 
REMARK       I    between atoms: N_9  and  C_10 
REMARK       I    between atoms: C_10  and  N_12 
REMARK    4  A    between atoms: N_12  and  C_13 
REMARK    5  A    between atoms: C_15  and  C_16 
ROOT
HETATM    1  N   UNL     1     -42.703 -48.833  11.324  1.00  0.00    -0.337 N 
HETATM    2  C   UNL     1     -42.652 -49.780  12.286  1.00  0.00     0.322 C 
HETATM    3  O   UNL     1     -43.121 -49.755  13.407  1.00  0.00    -0.247 OA
HETATM    4  N   UNL     1     -42.038 -50.974  11.822  1.00  0.00    -0.293 N 
HETATM    5  H   UNL     1     -42.133 -48.952  10.498  1.00  0.00     0.164 HD
HETATM    6  H   UNL     1     -41.915 -51.120  10.834  1.00  0.00     0.172 HD
ENDROOT
BRANCH   1   7
HETATM    7  C   UNL     1     -43.376 -47.531  11.440  1.00  0.00     0.100 C 
HETATM    8  C   UNL     1     -43.368 -46.699  10.137  1.00  0.00     0.070 C 
HETATM    9  C   UNL     1     -42.060 -45.901  10.189  1.00  0.00     0.017 C 
HETATM   10  C   UNL     1     -41.673 -45.811  11.665  1.00  0.00     0.003 C 
HETATM   11  C   UNL     1     -42.781 -46.528  12.435  1.00  0.00     0.026 C 
BRANCH   8  12
HETATM   12  S   UNL     1     -43.498 -47.645   8.582  1.00  0.00    -0.163 SA
BRANCH  12  13
HETATM   13  C   UNL     1     -45.296 -47.921   8.527  1.00  0.00     0.070 C 
HETATM   14  C   UNL     1     -46.003 -46.670   9.019  1.00  0.00     0.016 C 
ENDBRANCH  12  13
ENDBRANCH   8  12
ENDBRANCH   1   7
BRANCH   4  15
HETATM   15  C   UNL     1     -42.024 -52.075  12.667  1.00  0.00     0.127 A 
HETATM   16  C   UNL     1     -40.967 -52.400  13.482  1.00  0.00     0.076 A 
HETATM   17  C   UNL     1     -41.291 -53.673  14.010  1.00  0.00     0.029 A 
HETATM   18  N   UNL     1     -42.515 -54.066  13.639  1.00  0.00    -0.301 N 
HETATM   19  N   UNL     1     -42.947 -53.087  12.820  1.00  0.00    -0.281 N 
ATOM     20  HN  UNL     1     -43.009 -54.914  13.915  1.00  0.00     0.187 HD
HETATM   21  C   UNL     1     -44.320 -53.113  12.370  1.00  0.00     0.179 C 
BRANCH  17  22
HETATM   22  C   UNL     1     -40.447 -54.558  14.864  1.00  0.00     0.054 C 
HETATM   23  C   UNL     1     -38.991 -54.584  14.419  1.00  0.00     0.011 C 
ENDBRANCH  17  22
ENDBRANCH   4  15
TORSDOF 5
ENDMDL
MODEL 6
REMARK VINA RESULT:      -5.3      1.872      3.128
REMARK  5 active torsions:
REMARK  status: ('A' for Active; 'I' for Inactive)
REMARK    1  A    between atoms: C_2  and  S_3 
REMARK    2  A    between atoms: S_3  and  C_4 
REMARK    3  A    between atoms: C_8  and  N_9 
REMARK       I    between atoms: N_9  and  C_10 
REMARK       I    between atoms: C_10  and  N_12 
REMARK    4  A    between atoms: N_12  and  C_13 
REMARK    5  A    between atoms: C_15  and  C_16 
ROOT
HETATM    1  N   UNL     1     -42.102 -51.169  12.328  1.00  0.00    -0.337 N 
HETATM    2  C   UNL     1     -41.451 -50.136  11.748  1.00  0.00     0.322 C 
HETATM    3  O   UNL     1     -40.417 -50.149  11.109  1.00  0.00    -0.247 OA
HETATM    4  N   UNL     1     -42.180 -48.922  11.857  1.00  0.00    -0.293 N 
HETATM    5  H   UNL     1     -42.872 -50.966  12.950  1.00  0.00     0.164 HD
HETATM    6  H   UNL     1     -43.153 -48.945  12.113  1.00  0.00     0.172 HD
ENDROOT
BRANCH   1   7
HETATM    7  C   UNL     1     -41.679 -52.576  12.291  1.00  0.00     0.100 C 
HETATM    8  C   UNL     1     -42.714 -53.562  12.880  1.00  0.00     0.070 C 
HETATM    9  C   UNL     1     -42.390 -53.622  14.377  1.00  0.00     0.017 C 
HETATM   10  C   UNL     1     -40.926 -53.205  14.515  1.00  0.00     0.003 C 
HETATM   11  C   UNL     1     -40.427 -52.947  13.093  1.00  0.00     0.026 C 
BRANCH   8  12
HETATM   12  S   UNL     1     -44.468 -53.140  12.605  1.00  0.00    -0.163 SA
BRANCH  12  13
HETATM   13  C   UNL     1     -45.205 -53.843  14.113  1.00  0.00     0.070 C 
HETATM   14  C   UNL     1     -45.619 -55.279  13.837  1.00  0.00     0.016 C 
ENDBRANCH  12  13
ENDBRANCH   8  12
ENDBRANCH   1   7
BRANCH   4  15
HETATM   15  C   UNL     1     -41.689 -47.801  11.202  1.00  0.00     0.127 A 
HETATM   16  C   UNL     1     -40.622 -47.061  11.650  1.00  0.00     0.076 A 
HETATM   17  C   UNL     1     -40.587 -45.924  10.807  1.00  0.00     0.029 A 
HETATM   18  N   UNL     1     -41.497 -46.004   9.829  1.00  0.00    -0.301 N 
HETATM   19  N   UNL     1     -42.162 -47.149  10.085  1.00  0.00    -0.281 N 
ATOM     20  HN  UNL     1     -41.653 -45.348   9.064  1.00  0.00     0.187 HD
HETATM   21  C   UNL     1     -43.115 -47.631   9.111  1.00  0.00     0.179 C 
BRANCH  17  22
HETATM   22  C   UNL     1     -39.704 -44.726  10.911  1.00  0.00     0.054 C 
HETATM   23  C   UNL     1     -39.362 -44.377  12.353  1.00  0.00     0.011 C 
ENDBRANCH  17  22
ENDBRANCH   4  15
TORSDOF 5
ENDMDL
MODEL 7
REMARK VINA RESULT:      -5.3      1.864      3.243
REMARK  5 active torsions:
REMARK  status: ('A' for Active; 'I' for Inactive)
REMARK    1  A    between atoms: C_2  and  S_3 
REMARK    2  A    between atoms: S_3  and  C_4 
REMARK    3  A    between atoms: C_8  and  N_9 
REMARK       I    between atoms: N_9  and  C_10 
REMARK       I    between atoms: C_10  and  N_12 
REMARK    4  A    between atoms: N_12  and  C_13 
REMARK    5  A    between atoms: C_15  and  C_16 
ROOT
HETATM    1  N   UNL     1     -41.737 -51.952  13.636  1.00  0.00    -0.337 N 
HETATM    2  C   UNL     1     -41.544 -51.084  12.618  1.00  0.00     0.322 C 
HETATM    3  O   UNL     1     -41.183 -51.311  11.480  1.00  0.00    -0.247 OA
HETATM    4  N   UNL     1     -41.927 -49.762  12.970  1.00  0.00    -0.293 N 
HETATM    5  H   UNL     1     -41.895 -51.582  14.563  1.00  0.00     0.164 HD
HETATM    6  H   UNL     1     -42.495 -49.607  13.786  1.00  0.00     0.172 HD
ENDROOT
BRANCH   1   7
HETATM    7  C   UNL     1     -41.553 -53.409  13.565  1.00  0.00     0.100 C 
HETATM    8  C   UNL     1     -42.873 -54.209  13.504  1.00  0.00     0.070 C 
HETATM    9  C   UNL     1     -43.258 -54.444  14.970  1.00  0.00     0.017 C 
HETATM   10  C   UNL     1     -41.961 -54.338  15.773  1.00  0.00     0.003 C 
HETATM   11  C   UNL     1     -40.853 -54.080  14.753  1.00  0.00     0.026 C 
BRANCH   8  12
HETATM   12  S   UNL     1     -44.242 -53.428  12.585  1.00  0.00    -0.163 SA
BRANCH  12  13
HETATM   13  C   UNL     1     -45.208 -52.749  13.969  1.00  0.00     0.070 C 
HETATM   14  C   UNL     1     -45.374 -51.252  13.768  1.00  0.00     0.016 C 
ENDBRANCH  12  13
ENDBRANCH   8  12
ENDBRANCH   1   7
BRANCH   4  15
HETATM   15  C   UNL     1     -41.897 -48.786  11.983  1.00  0.00     0.127 A 
HETATM   16  C   UNL     1     -43.016 -48.310  11.346  1.00  0.00     0.076 A 
HETATM   17  C   UNL     1     -42.521 -47.490  10.303  1.00  0.00     0.029 A 
HETATM   18  N   UNL     1     -41.189 -47.373  10.355  1.00  0.00    -0.301 N 
HETATM   19  N   UNL     1     -40.823 -48.170  11.379  1.00  0.00    -0.281 N 
ATOM     20  HN  UNL     1     -40.587 -46.809   9.755  1.00  0.00     0.187 HD
HETATM   21  C   UNL     1     -39.449 -48.143  11.823  1.00  0.00     0.179 C 
BRANCH  17  22
HETATM   22  C   UNL     1     -43.290 -46.811   9.220  1.00  0.00     0.054 C 
HETATM   23  C   UNL     1     -43.497 -47.702   8.002  1.00  0.00     0.011 C 
ENDBRANCH  17  22
ENDBRANCH   4  15
TORSDOF 5
ENDMDL
MODEL 8
REMARK VINA RESULT:      -5.2      2.227      3.875
REMARK  5 active torsions:
REMARK  status: ('A' for Active; 'I' for Inactive)
REMARK    1  A    between atoms: C_2  and  S_3 
REMARK    2  A    between atoms: S_3  and  C_4 
REMARK    3  A    between atoms: C_8  and  N_9 
REMARK       I    between atoms: N_9  and  C_10 
REMARK       I    between atoms: C_10  and  N_12 
REMARK    4  A    between atoms: N_12  and  C_13 
REMARK    5  A    between atoms: C_15  and  C_16 
ROOT
HETATM    1  N   UNL     1     -44.144 -51.783  13.101  1.00  0.00    -0.337 N 
HETATM    2  C   UNL     1     -42.923 -51.619  12.546  1.00  0.00     0.322 C 
HETATM    3  O   UNL     1     -42.302 -52.380  11.830  1.00  0.00    -0.247 OA
HETATM    4  N   UNL     1     -42.397 -50.324  12.796  1.00  0.00    -0.293 N 
HETATM    5  H   UNL     1     -44.453 -51.115  13.793  1.00  0.00     0.164 HD
HETATM    6  H   UNL     1     -43.005 -49.593  13.124  1.00  0.00     0.172 HD
ENDROOT
BRANCH   1   7
HETATM    7  C   UNL     1     -45.010 -52.959  12.933  1.00  0.00     0.100 C 
HETATM    8  C   UNL     1     -46.105 -53.096  14.015  1.00  0.00     0.070 C 
HETATM    9  C   UNL     1     -45.441 -53.888  15.147  1.00  0.00     0.017 C 
HETATM   10  C   UNL     1     -44.292 -54.666  14.507  1.00  0.00     0.003 C 
HETATM   11  C   UNL     1     -44.338 -54.334  13.016  1.00  0.00     0.026 C 
BRANCH   8  12
HETATM   12  S   UNL     1     -46.816 -51.534  14.636  1.00  0.00    -0.163 SA
BRANCH  12  13
HETATM   13  C   UNL     1     -46.908 -51.912  16.414  1.00  0.00     0.070 C 
HETATM   14  C   UNL     1     -48.010 -51.075  17.041  1.00  0.00     0.016 C 
ENDBRANCH  12  13
ENDBRANCH   8  12
ENDBRANCH   1   7
BRANCH   4  15
HETATM   15  C   UNL     1     -41.201 -49.973  12.185  1.00  0.00     0.127 A 
HETATM   16  C   UNL     1     -39.993 -50.561  12.475  1.00  0.00     0.076 A 
HETATM   17  C   UNL     1     -39.034 -49.785  11.782  1.00  0.00     0.029 A 
HETATM   18  N   UNL     1     -39.611 -48.846  11.022  1.00  0.00    -0.301 N 
HETATM   19  N   UNL     1     -40.928 -48.971  11.280  1.00  0.00    -0.281 N 
ATOM     20  HN  UNL     1     -39.157 -48.187  10.390  1.00  0.00     0.187 HD
HETATM   21  C   UNL     1     -41.866 -48.211  10.486  1.00  0.00     0.179 C 
BRANCH  17  22
HETATM   22  C   UNL     1     -37.547 -49.897  11.832  1.00  0.00     0.054 C 
HETATM   23  C   UNL     1     -37.078 -51.071  12.681  1.00  0.00     0.011 C 
ENDBRANCH  17  22
ENDBRANCH   4  15
TORSDOF 5
ENDMDL
MODEL 9
REMARK VINA RESULT:      -5.2      2.366      3.091
REMARK  5 active torsions:
REMARK  status: ('A' for Active; 'I' for Inactive)
REMARK    1  A    between atoms: C_2  and  S_3 
REMARK    2  A    between atoms: S_3  and  C_4 
REMARK    3  A    between atoms: C_8  and  N_9 
REMARK       I    between atoms: N_9  and  C_10 
REMARK       I    between atoms: C_10  and  N_12 
REMARK    4  A    between atoms: N_12  and  C_13 
REMARK    5  A    between atoms: C_15  and  C_16 
ROOT
HETATM    1  N   UNL     1     -42.013 -51.232  12.932  1.00  0.00    -0.337 N 
HETATM    2  C   UNL     1     -42.348 -49.970  12.586  1.00  0.00     0.322 C 
HETATM    3  O   UNL     1     -42.896 -49.116  13.255  1.00  0.00    -0.247 OA
HETATM    4  N   UNL     1     -41.881 -49.635  11.287  1.00  0.00    -0.293 N 
HETATM    5  H   UNL     1     -41.697 -51.864  12.209  1.00  0.00     0.164 HD
HETATM    6  H   UNL     1     -41.183 -50.210  10.845  1.00  0.00     0.172 HD
ENDROOT
BRANCH   1   7
HETATM    7  C   UNL     1     -42.242 -51.849  14.247  1.00  0.00     0.100 C 
HETATM    8  C   UNL     1     -41.382 -53.105  14.514  1.00  0.00     0.070 C 
HETATM    9  C   UNL     1     -42.204 -54.270  13.950  1.00  0.00     0.017 C 
HETATM   10  C   UNL     1     -43.659 -53.800  13.939  1.00  0.00     0.003 C 
HETATM   11  C   UNL     1     -43.649 -52.389  14.526  1.00  0.00     0.026 C 
BRANCH   8  12
HETATM   12  S   UNL     1     -39.700 -53.088  13.806  1.00  0.00    -0.163 SA
BRANCH  12  13
HETATM   13  C   UNL     1     -39.161 -54.775  14.227  1.00  0.00     0.070 C 
HETATM   14  C   UNL     1     -38.852 -54.839  15.713  1.00  0.00     0.016 C 
ENDBRANCH  12  13
ENDBRANCH   8  12
ENDBRANCH   1   7
BRANCH   4  15
HETATM   15  C   UNL     1     -42.048 -48.329  10.847  1.00  0.00     0.127 A 
HETATM   16  C   UNL     1     -43.193 -47.867  10.246  1.00  0.00     0.076 A 
HETATM   17  C   UNL     1     -42.867 -46.566   9.792  1.00  0.00     0.029 A 
HETATM   18  N   UNL     1     -41.640 -46.198  10.181  1.00  0.00    -0.301 N 
HETATM   19  N   UNL     1     -41.153 -47.282  10.818  1.00  0.00    -0.281 N 
ATOM     20  HN  UNL     1     -41.179 -45.302  10.030  1.00  0.00     0.187 HD
HETATM   21  C   UNL     1     -39.896 -47.168  11.521  1.00  0.00     0.179 C 
BRANCH  17  22
HETATM   22  C   UNL     1     -43.697 -45.643   8.965  1.00  0.00     0.054 C 
HETATM   23  C   UNL     1     -45.150 -46.088   8.874  1.00  0.00     0.011 C 
ENDBRANCH  17  22
ENDBRANCH   4  15
TORSDOF 5
ENDMDL
