MODEL 1
REMARK VINA RESULT:      -5.9      0.000      0.000
REMARK  5 active torsions:
REMARK  status: ('A' for Active; 'I' for Inactive)
REMARK    1  A    between atoms: N_1  and  C_2 
REMARK    2  A    between atoms: C_7  and  O_18 
REMARK    3  A    between atoms: C_11  and  C_21 
REMARK    4  A    between atoms: C_12  and  N_20 
REMARK    5  A    between atoms: C_21  and  O_22 
ROOT
HETATM    1  N   UNL     1     -42.452 -53.655  13.607  1.00  0.00    -0.297 N 
HETATM    2  C   UNL     1     -43.756 -53.389  13.285  1.00  0.00     0.142 A 
HETATM    3  C   UNL     1     -44.499 -54.277  14.044  1.00  0.00     0.122 A 
HETATM    4  N   UNL     1     -43.673 -55.105  14.779  1.00  0.00    -0.346 N 
ATOM      5  HN  UNL     1     -43.948 -55.864  15.403  1.00  0.00     0.167 HD
HETATM    6  C   UNL     1     -42.451 -54.697  14.497  1.00  0.00     0.188 A 
HETATM    7  C   UNL     1     -45.897 -54.180  13.936  1.00  0.00     0.131 A 
HETATM    8  N   UNL     1     -44.219 -52.457  12.441  1.00  0.00    -0.336 N 
ATOM      9  HN  UNL     1     -43.631 -51.814  11.910  1.00  0.00     0.168 HD
HETATM   10  N   UNL     1     -46.417 -53.278  13.072  1.00  0.00    -0.337 N 
ATOM     11  HN  UNL     1     -47.426 -53.200  12.942  1.00  0.00     0.168 HD
HETATM   12  C   UNL     1     -45.567 -52.484  12.386  1.00  0.00     0.183 A 
ENDROOT
BRANCH   1  13
HETATM   13  C   UNL     1     -41.311 -52.905  13.134  1.00  0.00     0.262 C 
HETATM   14  C   UNL     1     -40.019 -53.164  13.908  1.00  0.00     0.204 C 
HETATM   15  C   UNL     1     -39.337 -51.802  13.958  1.00  0.00     0.234 C 
HETATM   16  F   UNL     1     -38.169 -51.849  13.264  1.00  0.00    -0.244 F 
HETATM   17  C   UNL     1     -40.313 -50.828  13.316  1.00  0.00     0.184 C 
HETATM   18  O   UNL     1     -41.590 -51.497  13.265  1.00  0.00    -0.353 OA
BRANCH  14  19
HETATM   19  O   UNL     1     -39.194 -54.146  13.278  1.00  0.00    -0.388 OA
HETATM   20  H   UNL     1     -38.274 -53.809  13.273  1.00  0.00     0.210 HD
ENDBRANCH  14  19
BRANCH  17  21
HETATM   21  C   UNL     1     -39.914 -50.447  11.885  1.00  0.00     0.199 C 
BRANCH  21  22
HETATM   22  O   UNL     1     -41.079 -50.125  11.128  1.00  0.00    -0.398 OA
HETATM   23  H   UNL     1     -41.850 -50.344  11.687  1.00  0.00     0.209 HD
ENDBRANCH  21  22
ENDBRANCH  17  21
ENDBRANCH   1  13
BRANCH   7  24
HETATM   24  N   UNL     1     -46.771 -54.971  14.670  1.00  0.00    -0.383 N 
HETATM   25  H   UNL     1     -47.550 -55.326  14.131  1.00  0.00     0.157 HD
HETATM   26  H   UNL     1     -46.957 -54.591  15.588  1.00  0.00     0.157 HD
ENDBRANCH   7  24
TORSDOF 5
ENDMDL
MODEL 2
REMARK VINA RESULT:      -5.9      4.960      6.514
REMARK  5 active torsions:
REMARK  status: ('A' for Active; 'I' for Inactive)
REMARK    1  A    between atoms: N_1  and  C_2 
REMARK    2  A    between atoms: C_7  and  O_18 
REMARK    3  A    between atoms: C_11  and  C_21 
REMARK    4  A    between atoms: C_12  and  N_20 
REMARK    5  A    between atoms: C_21  and  O_22 
ROOT
HETATM    1  N   UNL     1     -41.682 -47.865  11.215  1.00  0.00    -0.297 N 
HETATM    2  C   UNL     1     -42.419 -47.617  10.089  1.00  0.00     0.142 A 
HETATM    3  C   UNL     1     -43.032 -46.398  10.325  1.00  0.00     0.122 A 
HETATM    4  N   UNL     1     -42.722 -45.929  11.587  1.00  0.00    -0.346 N 
ATOM      5  HN  UNL     1     -43.053 -45.073  12.031  1.00  0.00     0.167 HD
HETATM    6  C   UNL     1     -41.903 -46.833  12.089  1.00  0.00     0.188 A 
HETATM    7  C   UNL     1     -43.824 -45.880   9.285  1.00  0.00     0.131 A 
HETATM    8  N   UNL     1     -42.511 -48.371   8.985  1.00  0.00    -0.336 N 
ATOM      9  HN  UNL     1     -42.029 -49.260   8.850  1.00  0.00     0.168 HD
HETATM   10  N   UNL     1     -43.977 -46.617   8.161  1.00  0.00    -0.337 N 
ATOM     11  HN  UNL     1     -44.570 -46.290   7.398  1.00  0.00     0.168 HD
HETATM   12  C   UNL     1     -43.327 -47.798   8.076  1.00  0.00     0.183 A 
ENDROOT
BRANCH   1  13
HETATM   13  C   UNL     1     -40.786 -48.986  11.390  1.00  0.00     0.262 C 
HETATM   14  C   UNL     1     -41.286 -50.048  12.369  1.00  0.00     0.204 C 
HETATM   15  C   UNL     1     -40.026 -50.513  13.088  1.00  0.00     0.234 C 
HETATM   16  F   UNL     1     -39.787 -51.819  12.798  1.00  0.00    -0.244 F 
HETATM   17  C   UNL     1     -38.904 -49.626  12.570  1.00  0.00     0.184 C 
HETATM   18  O   UNL     1     -39.534 -48.504  11.916  1.00  0.00    -0.353 OA
BRANCH  14  19
HETATM   19  O   UNL     1     -41.948 -51.129  11.708  1.00  0.00    -0.388 OA
HETATM   20  H   UNL     1     -41.515 -51.261  10.839  1.00  0.00     0.210 HD
ENDBRANCH  14  19
BRANCH  17  21
HETATM   21  C   UNL     1     -38.011 -50.338  11.546  1.00  0.00     0.199 C 
BRANCH  21  22
HETATM   22  O   UNL     1     -37.537 -49.399  10.582  1.00  0.00    -0.398 OA
HETATM   23  H   UNL     1     -36.829 -49.845  10.077  1.00  0.00     0.209 HD
ENDBRANCH  21  22
ENDBRANCH  17  21
ENDBRANCH   1  13
BRANCH   7  24
HETATM   24  N   UNL     1     -44.462 -44.649   9.360  1.00  0.00    -0.383 N 
HETATM   25  H   UNL     1     -44.022 -43.929   8.801  1.00  0.00     0.157 HD
HETATM   26  H   UNL     1     -44.746 -44.418  10.302  1.00  0.00     0.157 HD
ENDBRANCH   7  24
TORSDOF 5
ENDMDL
MODEL 3
REMARK VINA RESULT:      -5.7      3.366      5.701
REMARK  5 active torsions:
REMARK  status: ('A' for Active; 'I' for Inactive)
REMARK    1  A    between atoms: N_1  and  C_2 
REMARK    2  A    between atoms: C_7  and  O_18 
REMARK    3  A    between atoms: C_11  and  C_21 
REMARK    4  A    between atoms: C_12  and  N_20 
REMARK    5  A    between atoms: C_21  and  O_22 
ROOT
HETATM    1  N   UNL     1     -41.418 -52.106  13.536  1.00  0.00    -0.297 N 
HETATM    2  C   UNL     1     -40.922 -51.233  12.605  1.00  0.00     0.142 A 
HETATM    3  C   UNL     1     -39.548 -51.281  12.769  1.00  0.00     0.122 A 
HETATM    4  N   UNL     1     -39.206 -52.123  13.808  1.00  0.00    -0.346 N 
ATOM      5  HN  UNL     1     -38.271 -52.327  14.163  1.00  0.00     0.167 HD
HETATM    6  C   UNL     1     -40.355 -52.607  14.241  1.00  0.00     0.188 A 
HETATM    7  C   UNL     1     -38.782 -50.499  11.886  1.00  0.00     0.131 A 
HETATM    8  N   UNL     1     -41.609 -50.509  11.711  1.00  0.00    -0.336 N 
ATOM      9  HN  UNL     1     -42.624 -50.516  11.619  1.00  0.00     0.168 HD
HETATM   10  N   UNL     1     -39.427 -49.723  10.985  1.00  0.00    -0.337 N 
ATOM     11  HN  UNL     1     -38.907 -49.118  10.349  1.00  0.00     0.168 HD
HETATM   12  C   UNL     1     -40.776 -49.769  10.949  1.00  0.00     0.183 A 
ENDROOT
BRANCH   1  13
HETATM   13  C   UNL     1     -42.810 -52.466  13.676  1.00  0.00     0.262 C 
HETATM   14  C   UNL     1     -43.055 -53.746  14.475  1.00  0.00     0.204 C 
HETATM   15  C   UNL     1     -44.230 -54.408  13.766  1.00  0.00     0.234 C 
HETATM   16  F   UNL     1     -45.303 -54.452  14.598  1.00  0.00    -0.244 F 
HETATM   17  C   UNL     1     -44.520 -53.541  12.549  1.00  0.00     0.184 C 
HETATM   18  O   UNL     1     -43.368 -52.691  12.366  1.00  0.00    -0.353 OA
BRANCH  14  19
HETATM   19  O   UNL     1     -43.346 -53.483  15.849  1.00  0.00    -0.388 OA
HETATM   20  H   UNL     1     -42.701 -53.979  16.394  1.00  0.00     0.210 HD
ENDBRANCH  14  19
BRANCH  17  21
HETATM   21  C   UNL     1     -45.751 -52.646  12.740  1.00  0.00     0.199 C 
BRANCH  21  22
HETATM   22  O   UNL     1     -46.513 -52.610  11.535  1.00  0.00    -0.398 OA
HETATM   23  H   UNL     1     -46.903 -53.499  11.419  1.00  0.00     0.209 HD
ENDBRANCH  21  22
ENDBRANCH  17  21
ENDBRANCH   1  13
BRANCH   7  24
HETATM   24  N   UNL     1     -37.394 -50.482  11.899  1.00  0.00    -0.383 N 
HETATM   25  H   UNL     1     -36.999 -50.096  12.747  1.00  0.00     0.157 HD
HETATM   26  H   UNL     1     -37.003 -50.191  11.013  1.00  0.00     0.157 HD
ENDBRANCH   7  24
TORSDOF 5
ENDMDL
MODEL 4
REMARK VINA RESULT:      -5.7      3.779      5.919
REMARK  5 active torsions:
REMARK  status: ('A' for Active; 'I' for Inactive)
REMARK    1  A    between atoms: N_1  and  C_2 
REMARK    2  A    between atoms: C_7  and  O_18 
REMARK    3  A    between atoms: C_11  and  C_21 
REMARK    4  A    between atoms: C_12  and  N_20 
REMARK    5  A    between atoms: C_21  and  O_22 
ROOT
HETATM    1  N   UNL     1     -40.723 -49.967  12.256  1.00  0.00    -0.297 N 
HETATM    2  C   UNL     1     -41.615 -49.029  11.813  1.00  0.00     0.142 A 
HETATM    3  C   UNL     1     -40.838 -48.051  11.216  1.00  0.00     0.122 A 
HETATM    4  N   UNL     1     -39.495 -48.353  11.332  1.00  0.00    -0.346 N 
ATOM      5  HN  UNL     1     -38.702 -47.800  11.006  1.00  0.00     0.167 HD
HETATM    6  C   UNL     1     -39.464 -49.515  11.956  1.00  0.00     0.188 A 
HETATM    7  C   UNL     1     -41.524 -46.976  10.625  1.00  0.00     0.131 A 
HETATM    8  N   UNL     1     -42.952 -49.057  11.910  1.00  0.00    -0.336 N 
ATOM      9  HN  UNL     1     -43.484 -49.808  12.350  1.00  0.00     0.168 HD
HETATM   10  N   UNL     1     -42.873 -46.938  10.723  1.00  0.00    -0.337 N 
ATOM     11  HN  UNL     1     -43.404 -46.158  10.335  1.00  0.00     0.168 HD
HETATM   12  C   UNL     1     -43.499 -47.959  11.348  1.00  0.00     0.183 A 
ENDROOT
BRANCH   1  13
HETATM   13  C   UNL     1     -41.079 -51.230  12.862  1.00  0.00     0.262 C 
HETATM   14  C   UNL     1     -41.602 -52.278  11.880  1.00  0.00     0.204 C 
HETATM   15  C   UNL     1     -42.694 -53.003  12.657  1.00  0.00     0.234 C 
HETATM   16  F   UNL     1     -42.336 -54.300  12.848  1.00  0.00    -0.244 F 
HETATM   17  C   UNL     1     -42.813 -52.269  13.984  1.00  0.00     0.184 C 
HETATM   18  O   UNL     1     -42.133 -51.008  13.820  1.00  0.00    -0.353 OA
BRANCH  14  19
HETATM   19  O   UNL     1     -40.579 -53.174  11.443  1.00  0.00    -0.388 OA
HETATM   20  H   UNL     1     -40.490 -53.881  12.115  1.00  0.00     0.210 HD
ENDBRANCH  14  19
BRANCH  17  21
HETATM   21  C   UNL     1     -42.146 -53.026  15.140  1.00  0.00     0.199 C 
BRANCH  21  22
HETATM   22  O   UNL     1     -43.132 -53.739  15.884  1.00  0.00    -0.398 OA
HETATM   23  H   UNL     1     -44.004 -53.442  15.557  1.00  0.00     0.209 HD
ENDBRANCH  21  22
ENDBRANCH  17  21
ENDBRANCH   1  13
BRANCH   7  24
HETATM   24  N   UNL     1     -40.882 -45.946   9.950  1.00  0.00    -0.383 N 
HETATM   25  H   UNL     1     -40.053 -46.242   9.451  1.00  0.00     0.157 HD
HETATM   26  H   UNL     1     -40.836 -45.097  10.496  1.00  0.00     0.157 HD
ENDBRANCH   7  24
TORSDOF 5
ENDMDL
MODEL 5
REMARK VINA RESULT:      -5.7      7.012      9.012
REMARK  5 active torsions:
REMARK  status: ('A' for Active; 'I' for Inactive)
REMARK    1  A    between atoms: N_1  and  C_2 
REMARK    2  A    between atoms: C_7  and  O_18 
REMARK    3  A    between atoms: C_11  and  C_21 
REMARK    4  A    between atoms: C_12  and  N_20 
REMARK    5  A    between atoms: C_21  and  O_22 
ROOT
HETATM    1  N   UNL     1     -41.162 -45.176  11.319  1.00  0.00    -0.297 N 
HETATM    2  C   UNL     1     -41.854 -46.356  11.308  1.00  0.00     0.142 A 
HETATM    3  C   UNL     1     -40.962 -47.288  10.806  1.00  0.00     0.122 A 
HETATM    4  N   UNL     1     -39.764 -46.689  10.467  1.00  0.00    -0.346 N 
ATOM      5  HN  UNL     1     -38.942 -47.130  10.055  1.00  0.00     0.167 HD
HETATM    6  C   UNL     1     -39.919 -45.421  10.796  1.00  0.00     0.188 A 
HETATM    7  C   UNL     1     -41.415 -48.617  10.735  1.00  0.00     0.131 A 
HETATM    8  N   UNL     1     -43.111 -46.574  11.717  1.00  0.00    -0.336 N 
ATOM      9  HN  UNL     1     -43.730 -45.855  12.093  1.00  0.00     0.168 HD
HETATM   10  N   UNL     1     -42.688 -48.887  11.104  1.00  0.00    -0.337 N 
ATOM     11  HN  UNL     1     -43.063 -49.833  11.037  1.00  0.00     0.168 HD
HETATM   12  C   UNL     1     -43.450 -47.871  11.564  1.00  0.00     0.183 A 
ENDROOT
BRANCH   1  13
HETATM   13  C   UNL     1     -41.655 -43.929  11.858  1.00  0.00     0.262 C 
HETATM   14  C   UNL     1     -40.843 -42.699  11.453  1.00  0.00     0.204 C 
HETATM   15  C   UNL     1     -40.858 -41.818  12.696  1.00  0.00     0.234 C 
HETATM   16  F   UNL     1     -41.525 -40.664  12.433  1.00  0.00    -0.244 F 
HETATM   17  C   UNL     1     -41.571 -42.628  13.768  1.00  0.00     0.184 C 
HETATM   18  O   UNL     1     -41.608 -43.991  13.297  1.00  0.00    -0.353 OA
BRANCH  14  19
HETATM   19  O   UNL     1     -41.401 -42.027  10.321  1.00  0.00    -0.388 OA
HETATM   20  H   UNL     1     -40.926 -42.337   9.522  1.00  0.00     0.210 HD
ENDBRANCH  14  19
BRANCH  17  21
HETATM   21  C   UNL     1     -43.014 -42.162  14.000  1.00  0.00     0.199 C 
BRANCH  21  22
HETATM   22  O   UNL     1     -43.681 -43.071  14.872  1.00  0.00    -0.398 OA
HETATM   23  H   UNL     1     -44.053 -42.541  15.604  1.00  0.00     0.209 HD
ENDBRANCH  21  22
ENDBRANCH  17  21
ENDBRANCH   1  13
BRANCH   7  24
HETATM   24  N   UNL     1     -40.618 -49.667  10.298  1.00  0.00    -0.383 N 
HETATM   25  H   UNL     1     -40.864 -50.561  10.702  1.00  0.00     0.157 HD
HETATM   26  H   UNL     1     -39.640 -49.415  10.251  1.00  0.00     0.157 HD
ENDBRANCH   7  24
TORSDOF 5
ENDMDL
MODEL 6
REMARK VINA RESULT:      -5.7      4.143      6.375
REMARK  5 active torsions:
REMARK  status: ('A' for Active; 'I' for Inactive)
REMARK    1  A    between atoms: N_1  and  C_2 
REMARK    2  A    between atoms: C_7  and  O_18 
REMARK    3  A    between atoms: C_11  and  C_21 
REMARK    4  A    between atoms: C_12  and  N_20 
REMARK    5  A    between atoms: C_21  and  O_22 
ROOT
HETATM    1  N   UNL     1     -40.903 -49.394  12.047  1.00  0.00    -0.297 N 
HETATM    2  C   UNL     1     -41.492 -48.461  11.237  1.00  0.00     0.142 A 
HETATM    3  C   UNL     1     -40.580 -47.422  11.168  1.00  0.00     0.122 A 
HETATM    4  N   UNL     1     -39.476 -47.684  11.956  1.00  0.00    -0.346 N 
ATOM      5  HN  UNL     1     -38.665 -47.086  12.111  1.00  0.00     0.167 HD
HETATM    6  C   UNL     1     -39.702 -48.882  12.463  1.00  0.00     0.188 A 
HETATM    7  C   UNL     1     -40.925 -46.336  10.345  1.00  0.00     0.131 A 
HETATM    8  N   UNL     1     -42.680 -48.541  10.622  1.00  0.00    -0.336 N 
ATOM      9  HN  UNL     1     -43.316 -49.336  10.693  1.00  0.00     0.168 HD
HETATM   10  N   UNL     1     -42.128 -46.350   9.727  1.00  0.00    -0.337 N 
ATOM     11  HN  UNL     1     -42.428 -45.566   9.147  1.00  0.00     0.168 HD
HETATM   12  C   UNL     1     -42.923 -47.429   9.897  1.00  0.00     0.183 A 
ENDROOT
BRANCH   1  13
HETATM   13  C   UNL     1     -41.443 -50.704  12.333  1.00  0.00     0.262 C 
HETATM   14  C   UNL     1     -42.608 -50.705  13.324  1.00  0.00     0.204 C 
HETATM   15  C   UNL     1     -42.393 -51.969  14.147  1.00  0.00     0.234 C 
HETATM   16  F   UNL     1     -43.419 -52.835  13.933  1.00  0.00    -0.244 F 
HETATM   17  C   UNL     1     -41.075 -52.557  13.666  1.00  0.00     0.184 C 
HETATM   18  O   UNL     1     -40.408 -51.518  12.920  1.00  0.00    -0.353 OA
BRANCH  14  19
HETATM   19  O   UNL     1     -43.878 -50.708  12.670  1.00  0.00    -0.388 OA
HETATM   20  H   UNL     1     -43.720 -50.690  11.703  1.00  0.00     0.210 HD
ENDBRANCH  14  19
BRANCH  17  21
HETATM   21  C   UNL     1     -41.269 -53.764  12.738  1.00  0.00     0.199 C 
BRANCH  21  22
HETATM   22  O   UNL     1     -40.465 -53.609  11.570  1.00  0.00    -0.398 OA
HETATM   23  H   UNL     1     -40.860 -54.174  10.877  1.00  0.00     0.209 HD
ENDBRANCH  21  22
ENDBRANCH  17  21
ENDBRANCH   1  13
BRANCH   7  24
HETATM   24  N   UNL     1     -40.091 -45.245  10.140  1.00  0.00    -0.383 N 
HETATM   25  H   UNL     1     -40.579 -44.359  10.111  1.00  0.00     0.157 HD
HETATM   26  H   UNL     1     -39.384 -45.426   9.441  1.00  0.00     0.157 HD
ENDBRANCH   7  24
TORSDOF 5
ENDMDL
MODEL 7
REMARK VINA RESULT:      -5.6      5.127      7.233
REMARK  5 active torsions:
REMARK  status: ('A' for Active; 'I' for Inactive)
REMARK    1  A    between atoms: N_1  and  C_2 
REMARK    2  A    between atoms: C_7  and  O_18 
REMARK    3  A    between atoms: C_11  and  C_21 
REMARK    4  A    between atoms: C_12  and  N_20 
REMARK    5  A    between atoms: C_21  and  O_22 
ROOT
HETATM    1  N   UNL     1     -41.542 -47.637  11.862  1.00  0.00    -0.297 N 
HETATM    2  C   UNL     1     -40.610 -48.639  11.836  1.00  0.00     0.142 A 
HETATM    3  C   UNL     1     -41.344 -49.806  11.710  1.00  0.00     0.122 A 
HETATM    4  N   UNL     1     -42.699 -49.536  11.707  1.00  0.00    -0.346 N 
ATOM      5  HN  UNL     1     -43.467 -50.205  11.651  1.00  0.00     0.167 HD
HETATM    6  C   UNL     1     -42.780 -48.222  11.793  1.00  0.00     0.188 A 
HETATM    7  C   UNL     1     -40.612 -51.001  11.609  1.00  0.00     0.131 A 
HETATM    8  N   UNL     1     -39.277 -48.520  11.895  1.00  0.00    -0.336 N 
ATOM      9  HN  UNL     1     -38.778 -47.635  11.976  1.00  0.00     0.168 HD
HETATM   10  N   UNL     1     -39.263 -50.942  11.696  1.00  0.00    -0.337 N 
ATOM     11  HN  UNL     1     -38.699 -51.791  11.659  1.00  0.00     0.168 HD
HETATM   12  C   UNL     1     -38.682 -49.731  11.832  1.00  0.00     0.183 A 
ENDROOT
BRANCH   1  13
HETATM   13  C   UNL     1     -41.241 -46.224  11.885  1.00  0.00     0.262 C 
HETATM   14  C   UNL     1     -40.846 -45.639  10.528  1.00  0.00     0.204 C 
HETATM   15  C   UNL     1     -39.765 -44.619  10.864  1.00  0.00     0.234 C 
HETATM   16  F   UNL     1     -40.200 -43.371  10.549  1.00  0.00    -0.244 F 
HETATM   17  C   UNL     1     -39.523 -44.751  12.360  1.00  0.00     0.184 C 
HETATM   18  O   UNL     1     -40.123 -45.998  12.766  1.00  0.00    -0.353 OA
BRANCH  14  19
HETATM   19  O   UNL     1     -41.951 -45.037   9.852  1.00  0.00    -0.388 OA
HETATM   20  H   UNL     1     -42.747 -45.155  10.411  1.00  0.00     0.210 HD
ENDBRANCH  14  19
BRANCH  17  21
HETATM   21  C   UNL     1     -40.175 -43.621  13.167  1.00  0.00     0.199 C 
BRANCH  21  22
HETATM   22  O   UNL     1     -39.240 -42.562  13.361  1.00  0.00    -0.398 OA
HETATM   23  H   UNL     1     -39.466 -41.862  12.717  1.00  0.00     0.209 HD
ENDBRANCH  21  22
ENDBRANCH  17  21
ENDBRANCH   1  13
BRANCH   7  24
HETATM   24  N   UNL     1     -41.208 -52.243  11.430  1.00  0.00    -0.383 N 
HETATM   25  H   UNL     1     -42.132 -52.312  11.837  1.00  0.00     0.157 HD
HETATM   26  H   UNL     1     -40.562 -53.006  11.575  1.00  0.00     0.157 HD
ENDBRANCH   7  24
TORSDOF 5
ENDMDL
MODEL 8
REMARK VINA RESULT:      -5.6      3.645      5.914
REMARK  5 active torsions:
REMARK  status: ('A' for Active; 'I' for Inactive)
REMARK    1  A    between atoms: N_1  and  C_2 
REMARK    2  A    between atoms: C_7  and  O_18 
REMARK    3  A    between atoms: C_11  and  C_21 
REMARK    4  A    between atoms: C_12  and  N_20 
REMARK    5  A    between atoms: C_21  and  O_22 
ROOT
HETATM    1  N   UNL     1     -42.289 -51.875  13.118  1.00  0.00    -0.297 N 
HETATM    2  C   UNL     1     -41.975 -50.750  12.405  1.00  0.00     0.142 A 
HETATM    3  C   UNL     1     -40.642 -50.905  12.063  1.00  0.00     0.122 A 
HETATM    4  N   UNL     1     -40.132 -52.074  12.594  1.00  0.00    -0.346 N 
ATOM      5  HN  UNL     1     -39.178 -52.427  12.522  1.00  0.00     0.167 HD
HETATM    6  C   UNL     1     -41.153 -52.634  13.216  1.00  0.00     0.188 A 
HETATM    7  C   UNL     1     -40.074 -49.893  11.271  1.00  0.00     0.131 A 
HETATM    8  N   UNL     1     -42.782 -49.730  12.083  1.00  0.00    -0.336 N 
ATOM      9  HN  UNL     1     -43.764 -49.664  12.348  1.00  0.00     0.168 HD
HETATM   10  N   UNL     1     -40.835 -48.823  10.945  1.00  0.00    -0.337 N 
ATOM     11  HN  UNL     1     -40.449 -48.053  10.399  1.00  0.00     0.168 HD
HETATM   12  C   UNL     1     -42.120 -48.801  11.361  1.00  0.00     0.183 A 
ENDROOT
BRANCH   1  13
HETATM   13  C   UNL     1     -43.609 -52.207  13.604  1.00  0.00     0.262 C 
HETATM   14  C   UNL     1     -44.552 -52.770  12.540  1.00  0.00     0.204 C 
HETATM   15  C   UNL     1     -45.911 -52.185  12.900  1.00  0.00     0.234 C 
HETATM   16  F   UNL     1     -46.761 -53.183  13.257  1.00  0.00    -0.244 F 
HETATM   17  C   UNL     1     -45.659 -51.242  14.067  1.00  0.00     0.184 C 
HETATM   18  O   UNL     1     -44.235 -51.011  14.110  1.00  0.00    -0.353 OA
BRANCH  14  19
HETATM   19  O   UNL     1     -44.575 -54.199  12.535  1.00  0.00    -0.388 OA
HETATM   20  H   UNL     1     -43.735 -54.513  12.140  1.00  0.00     0.210 HD
ENDBRANCH  14  19
BRANCH  17  21
HETATM   21  C   UNL     1     -46.088 -51.838  15.414  1.00  0.00     0.199 C 
BRANCH  21  22
HETATM   22  O   UNL     1     -47.369 -51.332  15.781  1.00  0.00    -0.398 OA
HETATM   23  H   UNL     1     -47.490 -50.490  15.300  1.00  0.00     0.209 HD
ENDBRANCH  21  22
ENDBRANCH  17  21
ENDBRANCH   1  13
BRANCH   7  24
HETATM   24  N   UNL     1     -38.764 -49.935  10.812  1.00  0.00    -0.383 N 
HETATM   25  H   UNL     1     -38.468 -50.855  10.510  1.00  0.00     0.157 HD
HETATM   26  H   UNL     1     -38.135 -49.395  11.389  1.00  0.00     0.157 HD
ENDBRANCH   7  24
TORSDOF 5
ENDMDL
MODEL 9
REMARK VINA RESULT:      -5.6      4.195      6.115
REMARK  5 active torsions:
REMARK  status: ('A' for Active; 'I' for Inactive)
REMARK    1  A    between atoms: N_1  and  C_2 
REMARK    2  A    between atoms: C_7  and  O_18 
REMARK    3  A    between atoms: C_11  and  C_21 
REMARK    4  A    between atoms: C_12  and  N_20 
REMARK    5  A    between atoms: C_21  and  O_22 
ROOT
HETATM    1  N   UNL     1     -40.284 -49.174  11.860  1.00  0.00    -0.297 N 
HETATM    2  C   UNL     1     -40.505 -50.513  12.037  1.00  0.00     0.142 A 
HETATM    3  C   UNL     1     -39.651 -50.882  13.063  1.00  0.00     0.122 A 
HETATM    4  N   UNL     1     -38.886 -49.809  13.476  1.00  0.00    -0.346 N 
ATOM      5  HN  UNL     1     -38.162 -49.800  14.194  1.00  0.00     0.167 HD
HETATM    6  C   UNL     1     -39.299 -48.798  12.735  1.00  0.00     0.188 A 
HETATM    7  C   UNL     1     -39.715 -52.223  13.482  1.00  0.00     0.131 A 
HETATM    8  N   UNL     1     -41.373 -51.296  11.382  1.00  0.00    -0.336 N 
ATOM      9  HN  UNL     1     -41.993 -50.975  10.639  1.00  0.00     0.168 HD
HETATM   10  N   UNL     1     -40.551 -53.064  12.833  1.00  0.00    -0.337 N 
ATOM     11  HN  UNL     1     -40.602 -54.051  13.087  1.00  0.00     0.168 HD
HETATM   12  C   UNL     1     -41.317 -52.565  11.839  1.00  0.00     0.183 A 
ENDROOT
BRANCH   1  13
HETATM   13  C   UNL     1     -41.024 -48.324  10.956  1.00  0.00     0.262 C 
HETATM   14  C   UNL     1     -40.807 -46.827  11.174  1.00  0.00     0.204 C 
HETATM   15  C   UNL     1     -42.175 -46.210  10.911  1.00  0.00     0.234 C 
HETATM   16  F   UNL     1     -42.112 -45.403   9.819  1.00  0.00    -0.244 F 
HETATM   17  C   UNL     1     -43.116 -47.381  10.669  1.00  0.00     0.184 C 
HETATM   18  O   UNL     1     -42.434 -48.562  11.140  1.00  0.00    -0.353 OA
BRANCH  14  19
HETATM   19  O   UNL     1     -39.808 -46.290  10.305  1.00  0.00    -0.388 OA
HETATM   20  H   UNL     1     -39.049 -46.910  10.298  1.00  0.00     0.210 HD
ENDBRANCH  14  19
BRANCH  17  21
HETATM   21  C   UNL     1     -43.445 -47.579   9.184  1.00  0.00     0.199 C 
BRANCH  21  22
HETATM   22  O   UNL     1     -44.803 -47.990   9.040  1.00  0.00    -0.398 OA
HETATM   23  H   UNL     1     -45.320 -47.500   9.709  1.00  0.00     0.209 HD
ENDBRANCH  21  22
ENDBRANCH  17  21
ENDBRANCH   1  13
BRANCH   7  24
HETATM   24  N   UNL     1     -38.954 -52.726  14.530  1.00  0.00    -0.383 N 
HETATM   25  H   UNL     1     -39.331 -52.514  15.445  1.00  0.00     0.157 HD
HETATM   26  H   UNL     1     -37.962 -52.603  14.380  1.00  0.00     0.157 HD
ENDBRANCH   7  24
TORSDOF 5
ENDMDL
