MODEL 1
REMARK VINA RESULT:      -6.0      0.000      0.000
REMARK  5 active torsions:
REMARK  status: ('A' for Active; 'I' for Inactive)
REMARK       I    between atoms: N_2  and  C_3 
REMARK    1  A    between atoms: C_3  and  C_5 
REMARK    2  A    between atoms: C_5  and  N_6 
REMARK    3  A    between atoms: C_9  and  N_12 
REMARK       I    between atoms: N_12  and  C_13 
REMARK       I    between atoms: C_13  and  N_15 
REMARK    4  A    between atoms: N_15  and  C_16 
REMARK    5  A    between atoms: C_19  and  O_20 
ROOT
HETATM    1  N   UNL     1     -42.781 -50.033  12.142  1.00  0.00    -0.338 N 
HETATM    2  C   UNL     1     -42.959 -50.952  13.151  1.00  0.00     0.321 C 
HETATM    3  O   UNL     1     -43.331 -50.652  14.277  1.00  0.00    -0.247 OA
HETATM    4  N   UNL     1     -42.581 -52.215  12.741  1.00  0.00    -0.308 N 
HETATM    5  H   UNL     1     -43.014 -50.373  11.219  1.00  0.00     0.164 HD
HETATM    6  H   UNL     1     -41.832 -52.206  12.061  1.00  0.00     0.170 HD
ENDROOT
BRANCH   1   7
HETATM    7  C   UNL     1     -42.930 -48.600  12.400  1.00  0.00     0.089 C 
HETATM    8  C   UNL     1     -43.384 -47.816  11.171  1.00  0.00     0.055 C 
HETATM    9  C   UNL     1     -42.258 -47.619  10.158  1.00  0.00     0.275 C 
HETATM   10  N   UNL     1     -41.014 -47.049  10.711  1.00  0.00     0.097 N 
HETATM   11  C   UNL     1     -40.566 -47.840  11.873  1.00  0.00     0.275 C 
HETATM   12  C   UNL     1     -41.629 -48.023  12.961  1.00  0.00     0.055 C 
BRANCH  10  13
HETATM   13  C   UNL     1     -41.136 -45.616  11.092  1.00  0.00     0.374 C 
BRANCH  13  14
HETATM   14  C   UNL     1     -40.229 -44.677  10.291  1.00  0.00     0.245 C 
HETATM   15  N   UNL     1     -39.318 -45.294   9.467  1.00  0.00    -0.364 N 
HETATM   16  C   UNL     1     -38.381 -44.533   8.685  1.00  0.00     0.149 C 
HETATM   17  H   UNL     1     -39.374 -46.305   9.388  1.00  0.00     0.161 HD
HETATM   18  O   UNL     1     -40.271 -43.459  10.447  1.00  0.00    -0.272 OA
ENDBRANCH  13  14
ENDBRANCH  10  13
ENDBRANCH   1   7
BRANCH   4  19
HETATM   19  C   UNL     1     -42.638 -53.320  13.612  1.00  0.00     0.051 A 
HETATM   20  C   UNL     1     -41.511 -53.659  14.357  1.00  0.00     0.035 A 
HETATM   21  C   UNL     1     -41.591 -54.711  15.270  1.00  0.00     0.058 A 
HETATM   22  C   UNL     1     -42.777 -55.424  15.358  1.00  0.00     0.141 A 
HETATM   23  N   UNL     1     -43.870 -55.152  14.617  1.00  0.00    -0.345 N 
HETATM   24  C   UNL     1     -43.784 -54.093  13.778  1.00  0.00     0.119 A 
ATOM     25  HN  UNL     1     -44.718 -55.715  14.686  1.00  0.00     0.167 HD
BRANCH  22  26
HETATM   26  O   UNL     1     -42.808 -56.452  16.279  1.00  0.00    -0.341 OA
HETATM   27  C   UNL     1     -41.653 -56.481  17.112  1.00  0.00     0.211 C 
ENDBRANCH  22  26
ENDBRANCH   4  19
TORSDOF 5
ENDMDL
MODEL 2
REMARK VINA RESULT:      -5.8      1.532      9.357
REMARK  5 active torsions:
REMARK  status: ('A' for Active; 'I' for Inactive)
REMARK       I    between atoms: N_2  and  C_3 
REMARK    1  A    between atoms: C_3  and  C_5 
REMARK    2  A    between atoms: C_5  and  N_6 
REMARK    3  A    between atoms: C_9  and  N_12 
REMARK       I    between atoms: N_12  and  C_13 
REMARK       I    between atoms: C_13  and  N_15 
REMARK    4  A    between atoms: N_15  and  C_16 
REMARK    5  A    between atoms: C_19  and  O_20 
ROOT
HETATM    1  N   UNL     1     -42.413 -51.319  12.200  1.00  0.00    -0.338 N 
HETATM    2  C   UNL     1     -42.288 -49.948  12.199  1.00  0.00     0.321 C 
HETATM    3  O   UNL     1     -42.828 -49.222  13.022  1.00  0.00    -0.247 OA
HETATM    4  N   UNL     1     -41.558 -49.519  11.109  1.00  0.00    -0.308 N 
HETATM    5  H   UNL     1     -41.585 -51.814  11.900  1.00  0.00     0.164 HD
HETATM    6  H   UNL     1     -41.664 -50.113  10.298  1.00  0.00     0.170 HD
ENDROOT
BRANCH   1   7
HETATM    7  C   UNL     1     -43.305 -51.987  13.148  1.00  0.00     0.089 C 
HETATM    8  C   UNL     1     -42.871 -51.813  14.601  1.00  0.00     0.055 C 
HETATM    9  C   UNL     1     -41.671 -52.688  14.959  1.00  0.00     0.275 C 
HETATM   10  N   UNL     1     -41.821 -54.119  14.625  1.00  0.00     0.097 N 
HETATM   11  C   UNL     1     -42.202 -54.273  13.209  1.00  0.00     0.275 C 
HETATM   12  C   UNL     1     -43.440 -53.470  12.796  1.00  0.00     0.055 C 
BRANCH  10  13
HETATM   13  C   UNL     1     -42.800 -54.830  15.492  1.00  0.00     0.374 C 
BRANCH  13  14
HETATM   14  C   UNL     1     -42.159 -55.780  16.508  1.00  0.00     0.245 C 
HETATM   15  N   UNL     1     -40.796 -55.930  16.402  1.00  0.00    -0.364 N 
HETATM   16  C   UNL     1     -40.071 -56.818  17.270  1.00  0.00     0.149 C 
HETATM   17  H   UNL     1     -40.316 -55.342  15.727  1.00  0.00     0.161 HD
HETATM   18  O   UNL     1     -42.840 -56.419  17.306  1.00  0.00    -0.272 OA
ENDBRANCH  13  14
ENDBRANCH  10  13
ENDBRANCH   1   7
BRANCH   4  19
HETATM   19  C   UNL     1     -41.325 -48.151  10.870  1.00  0.00     0.051 A 
HETATM   20  C   UNL     1     -40.212 -47.539  11.441  1.00  0.00     0.035 A 
HETATM   21  C   UNL     1     -39.945 -46.202  11.148  1.00  0.00     0.058 A 
HETATM   22  C   UNL     1     -40.836 -45.509  10.342  1.00  0.00     0.141 A 
HETATM   23  N   UNL     1     -41.948 -46.058   9.813  1.00  0.00    -0.345 N 
HETATM   24  C   UNL     1     -42.156 -47.372  10.070  1.00  0.00     0.119 A 
ATOM     25  HN  UNL     1     -42.599 -45.512   9.249  1.00  0.00     0.167 HD
BRANCH  22  26
HETATM   26  O   UNL     1     -40.526 -44.190  10.076  1.00  0.00    -0.341 OA
HETATM   27  C   UNL     1     -40.518 -43.380  11.247  1.00  0.00     0.211 C 
ENDBRANCH  22  26
ENDBRANCH   4  19
TORSDOF 5
ENDMDL
MODEL 3
REMARK VINA RESULT:      -5.7      2.418      9.264
REMARK  5 active torsions:
REMARK  status: ('A' for Active; 'I' for Inactive)
REMARK       I    between atoms: N_2  and  C_3 
REMARK    1  A    between atoms: C_3  and  C_5 
REMARK    2  A    between atoms: C_5  and  N_6 
REMARK    3  A    between atoms: C_9  and  N_12 
REMARK       I    between atoms: N_12  and  C_13 
REMARK       I    between atoms: C_13  and  N_15 
REMARK    4  A    between atoms: N_15  and  C_16 
REMARK    5  A    between atoms: C_19  and  O_20 
ROOT
HETATM    1  N   UNL     1     -42.106 -50.955  12.155  1.00  0.00    -0.338 N 
HETATM    2  C   UNL     1     -42.509 -49.638  12.150  1.00  0.00     0.321 C 
HETATM    3  O   UNL     1     -43.146 -49.126  13.059  1.00  0.00    -0.247 OA
HETATM    4  N   UNL     1     -42.175 -49.025  10.959  1.00  0.00    -0.308 N 
HETATM    5  H   UNL     1     -41.210 -51.120  11.717  1.00  0.00     0.164 HD
HETATM    6  H   UNL     1     -42.176 -49.657  10.170  1.00  0.00     0.170 HD
ENDROOT
BRANCH   1   7
HETATM    7  C   UNL     1     -42.520 -51.859  13.229  1.00  0.00     0.089 C 
HETATM    8  C   UNL     1     -41.768 -51.617  14.536  1.00  0.00     0.055 C 
HETATM    9  C   UNL     1     -40.340 -52.157  14.494  1.00  0.00     0.275 C 
HETATM   10  N   UNL     1     -40.219 -53.567  14.075  1.00  0.00     0.097 N 
HETATM   11  C   UNL     1     -40.916 -53.777  12.792  1.00  0.00     0.275 C 
HETATM   12  C   UNL     1     -42.376 -53.315  12.783  1.00  0.00     0.055 C 
BRANCH  10  13
HETATM   13  C   UNL     1     -40.724 -54.533  15.088  1.00  0.00     0.374 C 
BRANCH  13  14
HETATM   14  C   UNL     1     -39.639 -55.431  15.691  1.00  0.00     0.245 C 
HETATM   15  N   UNL     1     -39.922 -55.951  16.932  1.00  0.00    -0.364 N 
HETATM   16  C   UNL     1     -38.977 -56.781  17.629  1.00  0.00     0.149 C 
HETATM   17  H   UNL     1     -40.848 -55.773  17.309  1.00  0.00     0.161 HD
HETATM   18  O   UNL     1     -38.561 -55.600  15.126  1.00  0.00    -0.272 OA
ENDBRANCH  13  14
ENDBRANCH  10  13
ENDBRANCH   1   7
BRANCH   4  19
HETATM   19  C   UNL     1     -42.515 -47.683  10.701  1.00  0.00     0.051 A 
HETATM   20  C   UNL     1     -41.647 -46.671  11.103  1.00  0.00     0.035 A 
HETATM   21  C   UNL     1     -41.953 -45.347  10.785  1.00  0.00     0.058 A 
HETATM   22  C   UNL     1     -43.147 -45.080  10.132  1.00  0.00     0.141 A 
HETATM   23  N   UNL     1     -44.032 -46.032   9.773  1.00  0.00    -0.345 N 
HETATM   24  C   UNL     1     -43.686 -47.313  10.045  1.00  0.00     0.119 A 
ATOM     25  HN  UNL     1     -44.915 -45.799   9.320  1.00  0.00     0.167 HD
BRANCH  22  26
HETATM   26  O   UNL     1     -43.402 -43.757   9.835  1.00  0.00    -0.341 OA
HETATM   27  C   UNL     1     -43.075 -42.879  10.908  1.00  0.00     0.211 C 
ENDBRANCH  22  26
ENDBRANCH   4  19
TORSDOF 5
ENDMDL
MODEL 4
REMARK VINA RESULT:      -5.6      3.011      3.564
REMARK  5 active torsions:
REMARK  status: ('A' for Active; 'I' for Inactive)
REMARK       I    between atoms: N_2  and  C_3 
REMARK    1  A    between atoms: C_3  and  C_5 
REMARK    2  A    between atoms: C_5  and  N_6 
REMARK    3  A    between atoms: C_9  and  N_12 
REMARK       I    between atoms: N_12  and  C_13 
REMARK       I    between atoms: C_13  and  N_15 
REMARK    4  A    between atoms: N_15  and  C_16 
REMARK    5  A    between atoms: C_19  and  O_20 
ROOT
HETATM    1  N   UNL     1     -40.313 -49.504  13.224  1.00  0.00    -0.338 N 
HETATM    2  C   UNL     1     -40.422 -50.761  13.774  1.00  0.00     0.321 C 
HETATM    3  O   UNL     1     -41.486 -51.253  14.125  1.00  0.00    -0.247 OA
HETATM    4  N   UNL     1     -39.178 -51.333  13.950  1.00  0.00    -0.308 N 
HETATM    5  H   UNL     1     -39.595 -49.417  12.518  1.00  0.00     0.164 HD
HETATM    6  H   UNL     1     -38.451 -50.657  14.136  1.00  0.00     0.170 HD
ENDROOT
BRANCH   1   7
HETATM    7  C   UNL     1     -41.481 -48.627  13.125  1.00  0.00     0.089 C 
HETATM    8  C   UNL     1     -42.308 -48.877  11.866  1.00  0.00     0.055 C 
HETATM    9  C   UNL     1     -41.648 -48.307  10.613  1.00  0.00     0.275 C 
HETATM   10  N   UNL     1     -41.253 -46.887  10.706  1.00  0.00     0.097 N 
HETATM   11  C   UNL     1     -40.422 -46.669  11.905  1.00  0.00     0.275 C 
HETATM   12  C   UNL     1     -41.054 -47.161  13.211  1.00  0.00     0.055 C 
BRANCH  10  13
HETATM   13  C   UNL     1     -42.409 -45.950  10.716  1.00  0.00     0.374 C 
BRANCH  13  14
HETATM   14  C   UNL     1     -43.410 -46.180   9.579  1.00  0.00     0.245 C 
HETATM   15  N   UNL     1     -44.613 -46.730   9.952  1.00  0.00    -0.364 N 
HETATM   16  C   UNL     1     -45.631 -47.033   8.981  1.00  0.00     0.149 C 
HETATM   17  H   UNL     1     -44.776 -46.859  10.946  1.00  0.00     0.161 HD
HETATM   18  O   UNL     1     -43.111 -45.957   8.409  1.00  0.00    -0.272 OA
ENDBRANCH  13  14
ENDBRANCH  10  13
ENDBRANCH   1   7
BRANCH   4  19
HETATM   19  C   UNL     1     -39.029 -52.608  14.531  1.00  0.00     0.051 A 
HETATM   20  C   UNL     1     -38.886 -52.713  15.912  1.00  0.00     0.035 A 
HETATM   21  C   UNL     1     -38.808 -53.979  16.492  1.00  0.00     0.058 A 
HETATM   22  C   UNL     1     -38.812 -55.091  15.663  1.00  0.00     0.141 A 
HETATM   23  N   UNL     1     -38.900 -55.021  14.319  1.00  0.00    -0.345 N 
HETATM   24  C   UNL     1     -39.029 -53.783  13.785  1.00  0.00     0.119 A 
ATOM     25  HN  UNL     1     -38.870 -55.856  13.736  1.00  0.00     0.167 HD
BRANCH  22  26
HETATM   26  O   UNL     1     -38.737 -56.321  16.284  1.00  0.00    -0.341 OA
HETATM   27  C   UNL     1     -37.899 -56.307  17.436  1.00  0.00     0.211 C 
ENDBRANCH  22  26
ENDBRANCH   4  19
TORSDOF 5
ENDMDL
MODEL 5
REMARK VINA RESULT:      -5.6      2.478      2.939
REMARK  5 active torsions:
REMARK  status: ('A' for Active; 'I' for Inactive)
REMARK       I    between atoms: N_2  and  C_3 
REMARK    1  A    between atoms: C_3  and  C_5 
REMARK    2  A    between atoms: C_5  and  N_6 
REMARK    3  A    between atoms: C_9  and  N_12 
REMARK       I    between atoms: N_12  and  C_13 
REMARK       I    between atoms: C_13  and  N_15 
REMARK    4  A    between atoms: N_15  and  C_16 
REMARK    5  A    between atoms: C_19  and  O_20 
ROOT
HETATM    1  N   UNL     1     -42.317 -49.313  11.349  1.00  0.00    -0.338 N 
HETATM    2  C   UNL     1     -41.952 -50.241  12.297  1.00  0.00     0.321 C 
HETATM    3  O   UNL     1     -42.279 -50.165  13.474  1.00  0.00    -0.247 OA
HETATM    4  N   UNL     1     -41.112 -51.194  11.758  1.00  0.00    -0.308 N 
HETATM    5  H   UNL     1     -42.487 -49.698  10.430  1.00  0.00     0.164 HD
HETATM    6  H   UNL     1     -40.531 -50.838  11.012  1.00  0.00     0.170 HD
ENDROOT
BRANCH   1   7
HETATM    7  C   UNL     1     -43.045 -48.101  11.728  1.00  0.00     0.089 C 
HETATM    8  C   UNL     1     -43.829 -47.489  10.570  1.00  0.00     0.055 C 
HETATM    9  C   UNL     1     -42.926 -46.758   9.579  1.00  0.00     0.275 C 
HETATM   10  N   UNL     1     -42.018 -45.761  10.180  1.00  0.00     0.097 N 
HETATM   11  C   UNL     1     -41.239 -46.377  11.271  1.00  0.00     0.275 C 
HETATM   12  C   UNL     1     -42.089 -47.075  12.338  1.00  0.00     0.055 C 
BRANCH  10  13
HETATM   13  C   UNL     1     -42.718 -44.547  10.682  1.00  0.00     0.374 C 
BRANCH  13  14
HETATM   14  C   UNL     1     -41.787 -43.499  11.298  1.00  0.00     0.245 C 
HETATM   15  N   UNL     1     -42.069 -43.148  12.597  1.00  0.00    -0.364 N 
HETATM   16  C   UNL     1     -41.296 -42.149  13.287  1.00  0.00     0.149 C 
HETATM   17  H   UNL     1     -42.805 -43.665  13.069  1.00  0.00     0.161 HD
HETATM   18  O   UNL     1     -40.903 -42.960  10.638  1.00  0.00    -0.272 OA
ENDBRANCH  13  14
ENDBRANCH  10  13
ENDBRANCH   1   7
BRANCH   4  19
HETATM   19  C   UNL     1     -40.575 -52.232  12.545  1.00  0.00     0.051 A 
HETATM   20  C   UNL     1     -41.204 -53.474  12.555  1.00  0.00     0.035 A 
HETATM   21  C   UNL     1     -40.633 -54.520  13.279  1.00  0.00     0.058 A 
HETATM   22  C   UNL     1     -39.485 -54.268  14.017  1.00  0.00     0.141 A 
HETATM   23  N   UNL     1     -38.878 -53.064  14.066  1.00  0.00    -0.345 N 
HETATM   24  C   UNL     1     -39.423 -52.080  13.312  1.00  0.00     0.119 A 
ATOM     25  HN  UNL     1     -38.052 -52.904  14.642  1.00  0.00     0.167 HD
BRANCH  22  26
HETATM   26  O   UNL     1     -38.954 -55.335  14.712  1.00  0.00    -0.341 OA
HETATM   27  C   UNL     1     -38.723 -55.037  16.085  1.00  0.00     0.211 C 
ENDBRANCH  22  26
ENDBRANCH   4  19
TORSDOF 5
ENDMDL
MODEL 6
REMARK VINA RESULT:      -5.6      3.146      4.283
REMARK  5 active torsions:
REMARK  status: ('A' for Active; 'I' for Inactive)
REMARK       I    between atoms: N_2  and  C_3 
REMARK    1  A    between atoms: C_3  and  C_5 
REMARK    2  A    between atoms: C_5  and  N_6 
REMARK    3  A    between atoms: C_9  and  N_12 
REMARK       I    between atoms: N_12  and  C_13 
REMARK       I    between atoms: C_13  and  N_15 
REMARK    4  A    between atoms: N_15  and  C_16 
REMARK    5  A    between atoms: C_19  and  O_20 
ROOT
HETATM    1  N   UNL     1     -39.522 -51.627  13.965  1.00  0.00    -0.338 N 
HETATM    2  C   UNL     1     -39.378 -52.965  14.252  1.00  0.00     0.321 C 
HETATM    3  O   UNL     1     -39.103 -53.809  13.410  1.00  0.00    -0.247 OA
HETATM    4  N   UNL     1     -39.672 -53.220  15.576  1.00  0.00    -0.308 N 
HETATM    5  H   UNL     1     -39.207 -51.005  14.697  1.00  0.00     0.164 HD
HETATM    6  H   UNL     1     -40.368 -52.595  15.959  1.00  0.00     0.170 HD
ENDROOT
BRANCH   1   7
HETATM    7  C   UNL     1     -39.454 -51.147  12.584  1.00  0.00     0.089 C 
HETATM    8  C   UNL     1     -38.897 -49.729  12.472  1.00  0.00     0.055 C 
HETATM    9  C   UNL     1     -39.912 -48.670  12.897  1.00  0.00     0.275 C 
HETATM   10  N   UNL     1     -41.229 -48.768  12.236  1.00  0.00     0.097 N 
HETATM   11  C   UNL     1     -41.772 -50.132  12.386  1.00  0.00     0.275 C 
HETATM   12  C   UNL     1     -40.827 -51.243  11.918  1.00  0.00     0.055 C 
BRANCH  10  13
HETATM   13  C   UNL     1     -41.200 -48.391  10.797  1.00  0.00     0.374 C 
BRANCH  13  14
HETATM   14  C   UNL     1     -42.546 -47.906  10.251  1.00  0.00     0.245 C 
HETATM   15  N   UNL     1     -42.724 -48.053   8.896  1.00  0.00    -0.364 N 
HETATM   16  C   UNL     1     -43.927 -47.607   8.245  1.00  0.00     0.149 C 
HETATM   17  H   UNL     1     -41.997 -48.543   8.383  1.00  0.00     0.161 HD
HETATM   18  O   UNL     1     -43.369 -47.352  10.976  1.00  0.00    -0.272 OA
ENDBRANCH  13  14
ENDBRANCH  10  13
ENDBRANCH   1   7
BRANCH   4  19
HETATM   19  C   UNL     1     -39.631 -54.526  16.102  1.00  0.00     0.051 A 
HETATM   20  C   UNL     1     -40.815 -55.250  16.219  1.00  0.00     0.035 A 
HETATM   21  C   UNL     1     -40.764 -56.568  16.675  1.00  0.00     0.058 A 
HETATM   22  C   UNL     1     -39.538 -57.091  17.055  1.00  0.00     0.141 A 
HETATM   23  N   UNL     1     -38.380 -56.401  17.000  1.00  0.00    -0.345 N 
HETATM   24  C   UNL     1     -38.449 -55.142  16.503  1.00  0.00     0.119 A 
ATOM     25  HN  UNL     1     -37.499 -56.806  17.315  1.00  0.00     0.167 HD
BRANCH  22  26
HETATM   26  O   UNL     1     -39.537 -58.400  17.494  1.00  0.00    -0.341 OA
HETATM   27  C   UNL     1     -38.944 -58.549  18.780  1.00  0.00     0.211 C 
ENDBRANCH  22  26
ENDBRANCH   4  19
TORSDOF 5
ENDMDL
MODEL 7
REMARK VINA RESULT:      -5.5      2.493      9.683
REMARK  5 active torsions:
REMARK  status: ('A' for Active; 'I' for Inactive)
REMARK       I    between atoms: N_2  and  C_3 
REMARK    1  A    between atoms: C_3  and  C_5 
REMARK    2  A    between atoms: C_5  and  N_6 
REMARK    3  A    between atoms: C_9  and  N_12 
REMARK       I    between atoms: N_12  and  C_13 
REMARK       I    between atoms: C_13  and  N_15 
REMARK    4  A    between atoms: N_15  and  C_16 
REMARK    5  A    between atoms: C_19  and  O_20 
ROOT
HETATM    1  N   UNL     1     -40.734 -51.745  13.824  1.00  0.00    -0.338 N 
HETATM    2  C   UNL     1     -41.074 -51.000  12.718  1.00  0.00     0.321 C 
HETATM    3  O   UNL     1     -41.089 -51.451  11.580  1.00  0.00    -0.247 OA
HETATM    4  N   UNL     1     -41.302 -49.682  13.060  1.00  0.00    -0.308 N 
HETATM    5  H   UNL     1     -41.244 -51.505  14.663  1.00  0.00     0.164 HD
HETATM    6  H   UNL     1     -40.747 -49.372  13.845  1.00  0.00     0.170 HD
ENDROOT
BRANCH   1   7
HETATM    7  C   UNL     1     -40.259 -53.121  13.681  1.00  0.00     0.089 C 
HETATM    8  C   UNL     1     -41.264 -54.154  14.184  1.00  0.00     0.055 C 
HETATM    9  C   UNL     1     -41.315 -54.223  15.709  1.00  0.00     0.275 C 
HETATM   10  N   UNL     1     -40.006 -54.403  16.369  1.00  0.00     0.097 N 
HETATM   11  C   UNL     1     -39.057 -53.374  15.903  1.00  0.00     0.275 C 
HETATM   12  C   UNL     1     -38.909 -53.294  14.380  1.00  0.00     0.055 C 
BRANCH  10  13
HETATM   13  C   UNL     1     -39.422 -55.757  16.169  1.00  0.00     0.374 C 
BRANCH  13  14
HETATM   14  C   UNL     1     -39.881 -56.793  17.199  1.00  0.00     0.245 C 
HETATM   15  N   UNL     1     -40.052 -56.321  18.479  1.00  0.00    -0.364 N 
HETATM   16  C   UNL     1     -40.447 -57.194  19.552  1.00  0.00     0.149 C 
HETATM   17  H   UNL     1     -39.948 -55.321  18.622  1.00  0.00     0.161 HD
HETATM   18  O   UNL     1     -40.006 -57.979  16.902  1.00  0.00    -0.272 OA
ENDBRANCH  13  14
ENDBRANCH  10  13
ENDBRANCH   1   7
BRANCH   4  19
HETATM   19  C   UNL     1     -41.632 -48.715  12.091  1.00  0.00     0.051 A 
HETATM   20  C   UNL     1     -42.969 -48.391  11.879  1.00  0.00     0.035 A 
HETATM   21  C   UNL     1     -43.289 -47.384  10.968  1.00  0.00     0.058 A 
HETATM   22  C   UNL     1     -42.262 -46.782  10.257  1.00  0.00     0.141 A 
HETATM   23  N   UNL     1     -40.961 -47.106  10.403  1.00  0.00    -0.345 N 
HETATM   24  C   UNL     1     -40.673 -48.049  11.332  1.00  0.00     0.119 A 
ATOM     25  HN  UNL     1     -40.232 -46.665   9.843  1.00  0.00     0.167 HD
BRANCH  22  26
HETATM   26  O   UNL     1     -42.627 -45.788   9.372  1.00  0.00    -0.341 OA
HETATM   27  C   UNL     1     -43.888 -46.036   8.756  1.00  0.00     0.211 C 
ENDBRANCH  22  26
ENDBRANCH   4  19
TORSDOF 5
ENDMDL
MODEL 8
REMARK VINA RESULT:      -5.5      5.032      6.322
REMARK  5 active torsions:
REMARK  status: ('A' for Active; 'I' for Inactive)
REMARK       I    between atoms: N_2  and  C_3 
REMARK    1  A    between atoms: C_3  and  C_5 
REMARK    2  A    between atoms: C_5  and  N_6 
REMARK    3  A    between atoms: C_9  and  N_12 
REMARK       I    between atoms: N_12  and  C_13 
REMARK       I    between atoms: C_13  and  N_15 
REMARK    4  A    between atoms: N_15  and  C_16 
REMARK    5  A    between atoms: C_19  and  O_20 
ROOT
HETATM    1  N   UNL     1     -40.080 -47.871  12.901  1.00  0.00    -0.338 N 
HETATM    2  C   UNL     1     -38.886 -48.254  13.470  1.00  0.00     0.321 C 
HETATM    3  O   UNL     1     -37.879 -48.497  12.820  1.00  0.00    -0.247 OA
HETATM    4  N   UNL     1     -39.016 -48.407  14.835  1.00  0.00    -0.308 N 
HETATM    5  H   UNL     1     -40.613 -47.211  13.451  1.00  0.00     0.164 HD
HETATM    6  H   UNL     1     -39.939 -48.706  15.118  1.00  0.00     0.170 HD
ENDROOT
BRANCH   1   7
HETATM    7  C   UNL     1     -40.239 -47.835  11.447  1.00  0.00     0.089 C 
HETATM    8  C   UNL     1     -40.371 -46.417  10.896  1.00  0.00     0.055 C 
HETATM    9  C   UNL     1     -41.749 -45.816  11.162  1.00  0.00     0.275 C 
HETATM   10  N   UNL     1     -42.888 -46.651  10.733  1.00  0.00     0.097 N 
HETATM   11  C   UNL     1     -42.767 -48.006  11.305  1.00  0.00     0.275 C 
HETATM   12  C   UNL     1     -41.429 -48.695  11.020  1.00  0.00     0.055 C 
BRANCH  10  13
HETATM   13  C   UNL     1     -43.036 -46.738   9.254  1.00  0.00     0.374 C 
BRANCH  13  14
HETATM   14  C   UNL     1     -44.404 -47.248   8.793  1.00  0.00     0.245 C 
HETATM   15  N   UNL     1     -45.487 -46.723   9.456  1.00  0.00    -0.364 N 
HETATM   16  C   UNL     1     -46.829 -47.141   9.147  1.00  0.00     0.149 C 
HETATM   17  H   UNL     1     -45.306 -45.985  10.130  1.00  0.00     0.161 HD
HETATM   18  O   UNL     1     -44.505 -48.127   7.940  1.00  0.00    -0.272 OA
ENDBRANCH  13  14
ENDBRANCH  10  13
ENDBRANCH   1   7
BRANCH   4  19
HETATM   19  C   UNL     1     -37.936 -48.829  15.636  1.00  0.00     0.051 A 
HETATM   20  C   UNL     1     -36.984 -47.897  16.040  1.00  0.00     0.035 A 
HETATM   21  C   UNL     1     -35.954 -48.303  16.889  1.00  0.00     0.058 A 
HETATM   22  C   UNL     1     -35.880 -49.640  17.251  1.00  0.00     0.141 A 
HETATM   23  N   UNL     1     -36.758 -50.576  16.838  1.00  0.00    -0.345 N 
HETATM   24  C   UNL     1     -37.779 -50.146  16.058  1.00  0.00     0.119 A 
ATOM     25  HN  UNL     1     -36.659 -51.557  17.098  1.00  0.00     0.167 HD
BRANCH  22  26
HETATM   26  O   UNL     1     -34.847 -49.992  18.096  1.00  0.00    -0.341 OA
HETATM   27  C   UNL     1     -35.086 -51.221  18.775  1.00  0.00     0.211 C 
ENDBRANCH  22  26
ENDBRANCH   4  19
TORSDOF 5
ENDMDL
MODEL 9
REMARK VINA RESULT:      -5.4      2.378      9.175
REMARK  5 active torsions:
REMARK  status: ('A' for Active; 'I' for Inactive)
REMARK       I    between atoms: N_2  and  C_3 
REMARK    1  A    between atoms: C_3  and  C_5 
REMARK    2  A    between atoms: C_5  and  N_6 
REMARK    3  A    between atoms: C_9  and  N_12 
REMARK       I    between atoms: N_12  and  C_13 
REMARK       I    between atoms: C_13  and  N_15 
REMARK    4  A    between atoms: N_15  and  C_16 
REMARK    5  A    between atoms: C_19  and  O_20 
ROOT
HETATM    1  N   UNL     1     -42.395 -51.166  12.128  1.00  0.00    -0.338 N 
HETATM    2  C   UNL     1     -41.891 -49.886  12.176  1.00  0.00     0.321 C 
HETATM    3  O   UNL     1     -41.483 -49.361  13.204  1.00  0.00    -0.247 OA
HETATM    4  N   UNL     1     -41.995 -49.267  10.947  1.00  0.00    -0.308 N 
HETATM    5  H   UNL     1     -42.188 -51.665  11.274  1.00  0.00     0.164 HD
HETATM    6  H   UNL     1     -42.793 -49.579  10.409  1.00  0.00     0.170 HD
ENDROOT
BRANCH   1   7
HETATM    7  C   UNL     1     -42.570 -51.948  13.352  1.00  0.00     0.089 C 
HETATM    8  C   UNL     1     -42.805 -53.433  13.083  1.00  0.00     0.055 C 
HETATM    9  C   UNL     1     -44.218 -53.716  12.580  1.00  0.00     0.275 C 
HETATM   10  N   UNL     1     -45.301 -53.158  13.414  1.00  0.00     0.097 N 
HETATM   11  C   UNL     1     -45.082 -51.716  13.633  1.00  0.00     0.275 C 
HETATM   12  C   UNL     1     -43.702 -51.365  14.199  1.00  0.00     0.055 C 
BRANCH  10  13
HETATM   13  C   UNL     1     -45.458 -53.850  14.723  1.00  0.00     0.374 C 
BRANCH  13  14
HETATM   14  C   UNL     1     -46.432 -53.159  15.682  1.00  0.00     0.245 C 
HETATM   15  N   UNL     1     -45.958 -52.945  16.955  1.00  0.00    -0.364 N 
HETATM   16  C   UNL     1     -46.780 -52.337  17.967  1.00  0.00     0.149 C 
HETATM   17  H   UNL     1     -44.985 -53.177  17.133  1.00  0.00     0.161 HD
HETATM   18  O   UNL     1     -47.583 -52.894  15.344  1.00  0.00    -0.272 OA
ENDBRANCH  13  14
ENDBRANCH  10  13
ENDBRANCH   1   7
BRANCH   4  19
HETATM   19  C   UNL     1     -41.578 -47.935  10.755  1.00  0.00     0.051 A 
HETATM   20  C   UNL     1     -42.532 -46.953  10.504  1.00  0.00     0.035 A 
HETATM   21  C   UNL     1     -42.124 -45.624  10.382  1.00  0.00     0.058 A 
HETATM   22  C   UNL     1     -40.769 -45.337  10.454  1.00  0.00     0.141 A 
HETATM   23  N   UNL     1     -39.816 -46.271  10.648  1.00  0.00    -0.345 N 
HETATM   24  C   UNL     1     -40.243 -47.546  10.816  1.00  0.00     0.119 A 
ATOM     25  HN  UNL     1     -38.825 -46.031  10.667  1.00  0.00     0.167 HD
BRANCH  22  26
HETATM   26  O   UNL     1     -40.415 -44.008  10.334  1.00  0.00    -0.341 OA
HETATM   27  C   UNL     1     -41.057 -43.179  11.298  1.00  0.00     0.211 C 
ENDBRANCH  22  26
ENDBRANCH   4  19
TORSDOF 5
ENDMDL
