MODEL 1
REMARK VINA RESULT:      -6.2      0.000      0.000
REMARK  5 active torsions:
REMARK  status: ('A' for Active; 'I' for Inactive)
REMARK    1  A    between atoms: C_2  and  C_3 
REMARK       I    between atoms: C_2  and  N_11 
REMARK    2  A    between atoms: C_3  and  C_4 
REMARK    3  A    between atoms: N_11  and  C_12 
REMARK    4  A    between atoms: C_12  and  C_13 
REMARK    5  A    between atoms: C_13  and  C_14 
ROOT
HETATM    1  O   UNL     1     -41.316 -49.985  13.886  1.00  0.00    -0.274 OA
HETATM    2  C   UNL     1     -42.012 -50.552  13.052  1.00  0.00     0.217 C 
HETATM    3  N   UNL     1     -42.013 -50.224  11.713  1.00  0.00    -0.361 N 
HETATM    4  H   UNL     1     -42.460 -50.866  11.071  1.00  0.00     0.162 HD
ENDROOT
BRANCH   3   5
HETATM    5  C   UNL     1     -41.025 -49.308  11.163  1.00  0.00     0.128 C 
BRANCH   5   6
HETATM    6  C   UNL     1     -41.581 -47.892  11.071  1.00  0.00     0.076 C 
BRANCH   6   7
HETATM    7  C   UNL     1     -42.753 -47.794  10.133  1.00  0.00     0.010 A 
HETATM    8  C   UNL     1     -44.033 -47.550  10.624  1.00  0.00     0.025 A 
HETATM    9  C   UNL     1     -45.098 -47.502   9.730  1.00  0.00     0.003 A 
HETATM   10  C   UNL     1     -44.859 -47.691   8.375  1.00  0.00     0.017 A 
HETATM   11  C   UNL     1     -43.555 -47.913   7.967  1.00  0.00     0.088 A 
HETATM   12  N   UNL     1     -42.500 -47.965   8.812  1.00  0.00    -0.369 N 
ATOM     13  HN  UNL     1     -41.553 -48.127   8.469  1.00  0.00     0.165 HD
ENDBRANCH   6   7
ENDBRANCH   5   6
ENDBRANCH   3   5
BRANCH   2  14
HETATM   14  C   UNL     1     -42.972 -51.677  13.405  1.00  0.00     0.108 C 
BRANCH  14  15
HETATM   15  C   UNL     1     -44.420 -51.205  13.323  1.00  0.00    -0.001 C 
HETATM   16  C   UNL     1     -45.080 -50.934  14.694  1.00  0.00     0.010 C 
HETATM   17  C   UNL     1     -46.435 -51.658  14.577  1.00  0.00    -0.014 C 
HETATM   18  C   UNL     1     -46.195 -53.168  14.729  1.00  0.00     0.005 C 
HETATM   19  C   UNL     1     -46.747 -51.550  13.084  1.00  0.00     0.009 C 
HETATM   20  C   UNL     1     -45.484 -53.532  13.418  1.00  0.00     0.005 C 
HETATM   21  C   UNL     1     -45.418 -52.188  12.667  1.00  0.00    -0.010 C 
ENDBRANCH  14  15
ENDBRANCH   2  14
TORSDOF 5
ENDMDL
MODEL 2
REMARK VINA RESULT:      -5.8      1.874      2.810
REMARK  5 active torsions:
REMARK  status: ('A' for Active; 'I' for Inactive)
REMARK    1  A    between atoms: C_2  and  C_3 
REMARK       I    between atoms: C_2  and  N_11 
REMARK    2  A    between atoms: C_3  and  C_4 
REMARK    3  A    between atoms: N_11  and  C_12 
REMARK    4  A    between atoms: C_12  and  C_13 
REMARK    5  A    between atoms: C_13  and  C_14 
ROOT
HETATM    1  O   UNL     1     -41.718 -53.902  13.791  1.00  0.00    -0.274 OA
HETATM    2  C   UNL     1     -42.605 -53.516  13.038  1.00  0.00     0.217 C 
HETATM    3  N   UNL     1     -42.389 -52.644  11.992  1.00  0.00    -0.361 N 
HETATM    4  H   UNL     1     -43.126 -52.538  11.307  1.00  0.00     0.162 HD
ENDROOT
BRANCH   3   5
HETATM    5  C   UNL     1     -41.040 -52.281  11.584  1.00  0.00     0.128 C 
BRANCH   5   6
HETATM    6  C   UNL     1     -40.582 -51.005  12.281  1.00  0.00     0.076 C 
BRANCH   6   7
HETATM    7  C   UNL     1     -41.378 -49.801  11.859  1.00  0.00     0.010 A 
HETATM    8  C   UNL     1     -42.345 -49.261  12.703  1.00  0.00     0.025 A 
HETATM    9  C   UNL     1     -43.087 -48.169  12.263  1.00  0.00     0.003 A 
HETATM   10  C   UNL     1     -42.841 -47.642  11.002  1.00  0.00     0.017 A 
HETATM   11  C   UNL     1     -41.852 -48.227  10.231  1.00  0.00     0.088 A 
HETATM   12  N   UNL     1     -41.116 -49.289  10.631  1.00  0.00    -0.369 N 
ATOM     13  HN  UNL     1     -40.392 -49.688  10.033  1.00  0.00     0.165 HD
ENDBRANCH   6   7
ENDBRANCH   5   6
ENDBRANCH   3   5
BRANCH   2  14
HETATM   14  C   UNL     1     -44.056 -53.945  13.184  1.00  0.00     0.108 C 
BRANCH  14  15
HETATM   15  C   UNL     1     -44.703 -53.279  14.394  1.00  0.00    -0.001 C 
HETATM   16  C   UNL     1     -46.200 -53.615  14.581  1.00  0.00     0.010 C 
HETATM   17  C   UNL     1     -46.839 -52.234  14.827  1.00  0.00    -0.014 C 
HETATM   18  C   UNL     1     -46.932 -51.495  13.482  1.00  0.00     0.005 C 
HETATM   19  C   UNL     1     -45.715 -51.461  15.519  1.00  0.00     0.009 C 
HETATM   20  C   UNL     1     -45.466 -51.159  13.177  1.00  0.00     0.005 C 
HETATM   21  C   UNL     1     -44.712 -51.732  14.393  1.00  0.00    -0.010 C 
ENDBRANCH  14  15
ENDBRANCH   2  14
TORSDOF 5
ENDMDL
MODEL 3
REMARK VINA RESULT:      -5.8      2.721      4.794
REMARK  5 active torsions:
REMARK  status: ('A' for Active; 'I' for Inactive)
REMARK    1  A    between atoms: C_2  and  C_3 
REMARK       I    between atoms: C_2  and  N_11 
REMARK    2  A    between atoms: C_3  and  C_4 
REMARK    3  A    between atoms: N_11  and  C_12 
REMARK    4  A    between atoms: C_12  and  C_13 
REMARK    5  A    between atoms: C_13  and  C_14 
ROOT
HETATM    1  O   UNL     1     -43.346 -49.283  14.206  1.00  0.00    -0.274 OA
HETATM    2  C   UNL     1     -43.585 -50.246  13.487  1.00  0.00     0.217 C 
HETATM    3  N   UNL     1     -42.910 -50.506  12.314  1.00  0.00    -0.361 N 
HETATM    4  H   UNL     1     -43.031 -51.418  11.892  1.00  0.00     0.162 HD
ENDROOT
BRANCH   3   5
HETATM    5  C   UNL     1     -41.718 -49.754  11.951  1.00  0.00     0.128 C 
BRANCH   5   6
HETATM    6  C   UNL     1     -40.562 -50.688  11.613  1.00  0.00     0.076 C 
BRANCH   6   7
HETATM    7  C   UNL     1     -40.539 -51.913  12.485  1.00  0.00     0.010 A 
HETATM    8  C   UNL     1     -40.207 -51.814  13.833  1.00  0.00     0.025 A 
HETATM    9  C   UNL     1     -40.160 -52.975  14.601  1.00  0.00     0.003 A 
HETATM   10  C   UNL     1     -40.453 -54.196  14.008  1.00  0.00     0.017 A 
HETATM   11  C   UNL     1     -40.790 -54.205  12.665  1.00  0.00     0.088 A 
HETATM   12  N   UNL     1     -40.842 -53.096  11.895  1.00  0.00    -0.369 N 
ATOM     13  HN  UNL     1     -41.099 -53.146  10.909  1.00  0.00     0.165 HD
ENDBRANCH   6   7
ENDBRANCH   5   6
ENDBRANCH   3   5
BRANCH   2  14
HETATM   14  C   UNL     1     -44.671 -51.263  13.804  1.00  0.00     0.108 C 
BRANCH  14  15
HETATM   15  C   UNL     1     -44.101 -52.677  13.839  1.00  0.00    -0.001 C 
HETATM   16  C   UNL     1     -44.743 -53.648  12.822  1.00  0.00     0.010 C 
HETATM   17  C   UNL     1     -45.038 -54.899  13.672  1.00  0.00    -0.014 C 
HETATM   18  C   UNL     1     -46.276 -54.617  14.538  1.00  0.00     0.005 C 
HETATM   19  C   UNL     1     -43.923 -54.865  14.719  1.00  0.00     0.009 C 
HETATM   20  C   UNL     1     -45.749 -53.605  15.565  1.00  0.00     0.005 C 
HETATM   21  C   UNL     1     -44.268 -53.443  15.173  1.00  0.00    -0.010 C 
ENDBRANCH  14  15
ENDBRANCH   2  14
TORSDOF 5
ENDMDL
MODEL 4
REMARK VINA RESULT:      -5.7      1.736      2.408
REMARK  5 active torsions:
REMARK  status: ('A' for Active; 'I' for Inactive)
REMARK    1  A    between atoms: C_2  and  C_3 
REMARK       I    between atoms: C_2  and  N_11 
REMARK    2  A    between atoms: C_3  and  C_4 
REMARK    3  A    between atoms: N_11  and  C_12 
REMARK    4  A    between atoms: C_12  and  C_13 
REMARK    5  A    between atoms: C_13  and  C_14 
ROOT
HETATM    1  O   UNL     1     -41.119 -50.571  13.759  1.00  0.00    -0.274 OA
HETATM    2  C   UNL     1     -42.030 -50.802  12.973  1.00  0.00     0.217 C 
HETATM    3  N   UNL     1     -42.243 -50.076  11.821  1.00  0.00    -0.361 N 
HETATM    4  H   UNL     1     -42.886 -50.455  11.137  1.00  0.00     0.162 HD
ENDROOT
BRANCH   3   5
HETATM    5  C   UNL     1     -41.265 -49.105  11.353  1.00  0.00     0.128 C 
BRANCH   5   6
HETATM    6  C   UNL     1     -41.897 -48.112  10.384  1.00  0.00     0.076 C 
BRANCH   6   7
HETATM    7  C   UNL     1     -41.457 -46.698  10.642  1.00  0.00     0.010 A 
HETATM    8  C   UNL     1     -42.358 -45.755  11.130  1.00  0.00     0.025 A 
HETATM    9  C   UNL     1     -41.924 -44.446  11.322  1.00  0.00     0.003 A 
HETATM   10  C   UNL     1     -40.607 -44.117  11.031  1.00  0.00     0.017 A 
HETATM   11  C   UNL     1     -39.771 -45.117  10.564  1.00  0.00     0.088 A 
HETATM   12  N   UNL     1     -40.164 -46.395  10.368  1.00  0.00    -0.369 N 
ATOM     13  HN  UNL     1     -39.515 -47.104  10.026  1.00  0.00     0.165 HD
ENDBRANCH   6   7
ENDBRANCH   5   6
ENDBRANCH   3   5
BRANCH   2  14
HETATM   14  C   UNL     1     -43.046 -51.912  13.191  1.00  0.00     0.108 C 
BRANCH  14  15
HETATM   15  C   UNL     1     -44.467 -51.357  13.206  1.00  0.00    -0.001 C 
HETATM   16  C   UNL     1     -44.981 -50.962  14.609  1.00  0.00     0.010 C 
HETATM   17  C   UNL     1     -46.380 -51.605  14.661  1.00  0.00    -0.014 C 
HETATM   18  C   UNL     1     -46.212 -53.116  14.892  1.00  0.00     0.005 C 
HETATM   19  C   UNL     1     -46.822 -51.570  13.198  1.00  0.00     0.009 C 
HETATM   20  C   UNL     1     -45.647 -53.603  13.550  1.00  0.00     0.005 C 
HETATM   21  C   UNL     1     -45.575 -52.314  12.708  1.00  0.00    -0.010 C 
ENDBRANCH  14  15
ENDBRANCH   2  14
TORSDOF 5
ENDMDL
MODEL 5
REMARK VINA RESULT:      -5.7      3.467      6.998
REMARK  5 active torsions:
REMARK  status: ('A' for Active; 'I' for Inactive)
REMARK    1  A    between atoms: C_2  and  C_3 
REMARK       I    between atoms: C_2  and  N_11 
REMARK    2  A    between atoms: C_3  and  C_4 
REMARK    3  A    between atoms: N_11  and  C_12 
REMARK    4  A    between atoms: C_12  and  C_13 
REMARK    5  A    between atoms: C_13  and  C_14 
ROOT
HETATM    1  O   UNL     1     -42.808 -51.220  12.700  1.00  0.00    -0.274 OA
HETATM    2  C   UNL     1     -42.070 -52.191  12.585  1.00  0.00     0.217 C 
HETATM    3  N   UNL     1     -42.524 -53.492  12.549  1.00  0.00    -0.361 N 
HETATM    4  H   UNL     1     -41.874 -54.210  12.254  1.00  0.00     0.162 HD
ENDROOT
BRANCH   3   5
HETATM    5  C   UNL     1     -43.944 -53.789  12.439  1.00  0.00     0.128 C 
BRANCH   5   6
HETATM    6  C   UNL     1     -44.500 -54.309  13.760  1.00  0.00     0.076 C 
BRANCH   6   7
HETATM    7  C   UNL     1     -45.423 -53.324  14.422  1.00  0.00     0.010 A 
HETATM    8  C   UNL     1     -45.996 -52.288  13.689  1.00  0.00     0.025 A 
HETATM    9  C   UNL     1     -46.817 -51.374  14.344  1.00  0.00     0.003 A 
HETATM   10  C   UNL     1     -47.049 -51.522  15.705  1.00  0.00     0.017 A 
HETATM   11  C   UNL     1     -46.455 -52.588  16.357  1.00  0.00     0.088 A 
HETATM   12  N   UNL     1     -45.653 -53.490  15.748  1.00  0.00    -0.369 N 
ATOM     13  HN  UNL     1     -45.237 -54.264  16.266  1.00  0.00     0.165 HD
ENDBRANCH   6   7
ENDBRANCH   5   6
ENDBRANCH   3   5
BRANCH   2  14
HETATM   14  C   UNL     1     -40.557 -52.070  12.486  1.00  0.00     0.108 C 
BRANCH  14  15
HETATM   15  C   UNL     1     -40.107 -50.635  12.738  1.00  0.00    -0.001 C 
HETATM   16  C   UNL     1     -39.853 -49.813  11.454  1.00  0.00     0.010 C 
HETATM   17  C   UNL     1     -38.488 -49.152  11.727  1.00  0.00    -0.014 C 
HETATM   18  C   UNL     1     -37.390 -50.213  11.545  1.00  0.00     0.005 C 
HETATM   19  C   UNL     1     -38.494 -48.982  13.247  1.00  0.00     0.009 C 
HETATM   20  C   UNL     1     -37.594 -51.125  12.763  1.00  0.00     0.005 C 
HETATM   21  C   UNL     1     -38.774 -50.466  13.504  1.00  0.00    -0.010 C 
ENDBRANCH  14  15
ENDBRANCH   2  14
TORSDOF 5
ENDMDL
MODEL 6
REMARK VINA RESULT:      -5.7      2.958      4.217
REMARK  5 active torsions:
REMARK  status: ('A' for Active; 'I' for Inactive)
REMARK    1  A    between atoms: C_2  and  C_3 
REMARK       I    between atoms: C_2  and  N_11 
REMARK    2  A    between atoms: C_3  and  C_4 
REMARK    3  A    between atoms: N_11  and  C_12 
REMARK    4  A    between atoms: C_12  and  C_13 
REMARK    5  A    between atoms: C_13  and  C_14 
ROOT
HETATM    1  O   UNL     1     -42.450 -55.048  15.063  1.00  0.00    -0.274 OA
HETATM    2  C   UNL     1     -43.004 -54.564  14.083  1.00  0.00     0.217 C 
HETATM    3  N   UNL     1     -42.323 -54.021  13.015  1.00  0.00    -0.361 N 
HETATM    4  H   UNL     1     -42.847 -53.829  12.171  1.00  0.00     0.162 HD
ENDROOT
BRANCH   3   5
HETATM    5  C   UNL     1     -40.882 -54.172  12.888  1.00  0.00     0.128 C 
BRANCH   5   6
HETATM    6  C   UNL     1     -40.147 -53.031  13.581  1.00  0.00     0.076 C 
BRANCH   6   7
HETATM    7  C   UNL     1     -40.584 -51.680  13.085  1.00  0.00     0.010 A 
HETATM    8  C   UNL     1     -41.342 -50.841  13.897  1.00  0.00     0.025 A 
HETATM    9  C   UNL     1     -41.759 -49.613  13.391  1.00  0.00     0.003 A 
HETATM   10  C   UNL     1     -41.405 -49.254  12.097  1.00  0.00     0.017 A 
HETATM   11  C   UNL     1     -40.636 -50.140  11.361  1.00  0.00     0.088 A 
HETATM   12  N   UNL     1     -40.217 -51.338  11.825  1.00  0.00    -0.369 N 
ATOM     13  HN  UNL     1     -39.648 -51.960  11.251  1.00  0.00     0.165 HD
ENDBRANCH   6   7
ENDBRANCH   5   6
ENDBRANCH   3   5
BRANCH   2  14
HETATM   14  C   UNL     1     -44.517 -54.493  13.943  1.00  0.00     0.108 C 
BRANCH  14  15
HETATM   15  C   UNL     1     -45.105 -53.460  14.898  1.00  0.00    -0.001 C 
HETATM   16  C   UNL     1     -46.648 -53.372  14.869  1.00  0.00     0.010 C 
HETATM   17  C   UNL     1     -46.909 -51.856  14.776  1.00  0.00    -0.014 C 
HETATM   18  C   UNL     1     -46.623 -51.401  13.336  1.00  0.00     0.005 C 
HETATM   19  C   UNL     1     -45.715 -51.262  15.524  1.00  0.00     0.009 C 
HETATM   20  C   UNL     1     -45.094 -51.504  13.246  1.00  0.00     0.005 C 
HETATM   21  C   UNL     1     -44.688 -51.991  14.650  1.00  0.00    -0.010 C 
ENDBRANCH  14  15
ENDBRANCH   2  14
TORSDOF 5
ENDMDL
MODEL 7
REMARK VINA RESULT:      -5.6      3.008      5.411
REMARK  5 active torsions:
REMARK  status: ('A' for Active; 'I' for Inactive)
REMARK    1  A    between atoms: C_2  and  C_3 
REMARK       I    between atoms: C_2  and  N_11 
REMARK    2  A    between atoms: C_3  and  C_4 
REMARK    3  A    between atoms: N_11  and  C_12 
REMARK    4  A    between atoms: C_12  and  C_13 
REMARK    5  A    between atoms: C_13  and  C_14 
ROOT
HETATM    1  O   UNL     1     -41.951 -50.081  14.069  1.00  0.00    -0.274 OA
HETATM    2  C   UNL     1     -42.717 -50.536  13.228  1.00  0.00     0.217 C 
HETATM    3  N   UNL     1     -42.300 -51.271  12.138  1.00  0.00    -0.361 N 
HETATM    4  H   UNL     1     -43.003 -51.773  11.611  1.00  0.00     0.162 HD
ENDROOT
BRANCH   3   5
HETATM    5  C   UNL     1     -40.924 -51.731  12.025  1.00  0.00     0.128 C 
BRANCH   5   6
HETATM    6  C   UNL     1     -40.829 -53.236  12.249  1.00  0.00     0.076 C 
BRANCH   6   7
HETATM    7  C   UNL     1     -41.252 -53.639  13.635  1.00  0.00     0.010 A 
HETATM    8  C   UNL     1     -42.259 -54.582  13.820  1.00  0.00     0.025 A 
HETATM    9  C   UNL     1     -42.649 -54.903  15.117  1.00  0.00     0.003 A 
HETATM   10  C   UNL     1     -42.022 -54.283  16.190  1.00  0.00     0.017 A 
HETATM   11  C   UNL     1     -41.019 -53.368  15.920  1.00  0.00     0.088 A 
HETATM   12  N   UNL     1     -40.620 -53.036  14.671  1.00  0.00    -0.369 N 
ATOM     13  HN  UNL     1     -39.873 -52.359  14.516  1.00  0.00     0.165 HD
ENDBRANCH   6   7
ENDBRANCH   5   6
ENDBRANCH   3   5
BRANCH   2  14
HETATM   14  C   UNL     1     -44.222 -50.327  13.283  1.00  0.00     0.108 C 
BRANCH  14  15
HETATM   15  C   UNL     1     -44.945 -51.639  13.572  1.00  0.00    -0.001 C 
HETATM   16  C   UNL     1     -46.469 -51.595  13.319  1.00  0.00     0.010 C 
HETATM   17  C   UNL     1     -47.052 -52.236  14.594  1.00  0.00    -0.014 C 
HETATM   18  C   UNL     1     -46.976 -51.208  15.733  1.00  0.00     0.005 C 
HETATM   19  C   UNL     1     -45.959 -53.224  15.004  1.00  0.00     0.009 C 
HETATM   20  C   UNL     1     -45.471 -51.138  16.027  1.00  0.00     0.005 C 
HETATM   21  C   UNL     1     -44.869 -52.148  15.031  1.00  0.00    -0.010 C 
ENDBRANCH  14  15
ENDBRANCH   2  14
TORSDOF 5
ENDMDL
MODEL 8
REMARK VINA RESULT:      -5.6      1.457      2.222
REMARK  5 active torsions:
REMARK  status: ('A' for Active; 'I' for Inactive)
REMARK    1  A    between atoms: C_2  and  C_3 
REMARK       I    between atoms: C_2  and  N_11 
REMARK    2  A    between atoms: C_3  and  C_4 
REMARK    3  A    between atoms: N_11  and  C_12 
REMARK    4  A    between atoms: C_12  and  C_13 
REMARK    5  A    between atoms: C_13  and  C_14 
ROOT
HETATM    1  O   UNL     1     -43.442 -49.563  14.518  1.00  0.00    -0.274 OA
HETATM    2  C   UNL     1     -43.641 -50.166  13.470  1.00  0.00     0.217 C 
HETATM    3  N   UNL     1     -42.962 -49.901  12.300  1.00  0.00    -0.361 N 
HETATM    4  H   UNL     1     -43.044 -50.572  11.546  1.00  0.00     0.162 HD
ENDROOT
BRANCH   3   5
HETATM    5  C   UNL     1     -41.807 -49.016  12.285  1.00  0.00     0.128 C 
BRANCH   5   6
HETATM    6  C   UNL     1     -41.316 -48.779  10.862  1.00  0.00     0.076 C 
BRANCH   6   7
HETATM    7  C   UNL     1     -42.174 -47.796  10.114  1.00  0.00     0.010 A 
HETATM    8  C   UNL     1     -42.401 -46.522  10.627  1.00  0.00     0.025 A 
HETATM    9  C   UNL     1     -43.230 -45.651   9.925  1.00  0.00     0.003 A 
HETATM   10  C   UNL     1     -43.802 -46.071   8.731  1.00  0.00     0.017 A 
HETATM   11  C   UNL     1     -43.513 -47.348   8.282  1.00  0.00     0.088 A 
HETATM   12  N   UNL     1     -42.713 -48.215   8.942  1.00  0.00    -0.369 N 
ATOM     13  HN  UNL     1     -42.522 -49.147   8.574  1.00  0.00     0.165 HD
ENDBRANCH   6   7
ENDBRANCH   5   6
ENDBRANCH   3   5
BRANCH   2  14
HETATM   14  C   UNL     1     -44.678 -51.270  13.337  1.00  0.00     0.108 C 
BRANCH  14  15
HETATM   15  C   UNL     1     -44.059 -52.636  13.612  1.00  0.00    -0.001 C 
HETATM   16  C   UNL     1     -44.637 -53.782  12.751  1.00  0.00     0.010 C 
HETATM   17  C   UNL     1     -44.910 -54.891  13.785  1.00  0.00    -0.014 C 
HETATM   18  C   UNL     1     -46.182 -54.525  14.567  1.00  0.00     0.005 C 
HETATM   19  C   UNL     1     -43.828 -54.646  14.836  1.00  0.00     0.009 C 
HETATM   20  C   UNL     1     -45.720 -53.341  15.429  1.00  0.00     0.005 C 
HETATM   21  C   UNL     1     -44.236 -53.184  15.048  1.00  0.00    -0.010 C 
ENDBRANCH  14  15
ENDBRANCH   2  14
TORSDOF 5
ENDMDL
MODEL 9
REMARK VINA RESULT:      -5.5      3.451      5.904
REMARK  5 active torsions:
REMARK  status: ('A' for Active; 'I' for Inactive)
REMARK    1  A    between atoms: C_2  and  C_3 
REMARK       I    between atoms: C_2  and  N_11 
REMARK    2  A    between atoms: C_3  and  C_4 
REMARK    3  A    between atoms: N_11  and  C_12 
REMARK    4  A    between atoms: C_12  and  C_13 
REMARK    5  A    between atoms: C_13  and  C_14 
ROOT
HETATM    1  O   UNL     1     -44.958 -54.556  16.370  1.00  0.00    -0.274 OA
HETATM    2  C   UNL     1     -44.545 -54.433  15.223  1.00  0.00     0.217 C 
HETATM    3  N   UNL     1     -45.291 -53.890  14.199  1.00  0.00    -0.361 N 
HETATM    4  H   UNL     1     -44.809 -53.645  13.344  1.00  0.00     0.162 HD
ENDROOT
BRANCH   3   5
HETATM    5  C   UNL     1     -46.562 -53.233  14.463  1.00  0.00     0.128 C 
BRANCH   5   6
HETATM    6  C   UNL     1     -46.566 -51.808  13.921  1.00  0.00     0.076 C 
BRANCH   6   7
HETATM    7  C   UNL     1     -45.232 -51.131  14.076  1.00  0.00     0.010 A 
HETATM    8  C   UNL     1     -44.762 -50.775  15.337  1.00  0.00     0.025 A 
HETATM    9  C   UNL     1     -43.540 -50.117  15.438  1.00  0.00     0.003 A 
HETATM   10  C   UNL     1     -42.819 -49.839  14.284  1.00  0.00     0.017 A 
HETATM   11  C   UNL     1     -43.349 -50.241  13.070  1.00  0.00     0.088 A 
HETATM   12  N   UNL     1     -44.533 -50.881  12.941  1.00  0.00    -0.369 N 
ATOM     13  HN  UNL     1     -44.886 -51.164  12.027  1.00  0.00     0.165 HD
ENDBRANCH   6   7
ENDBRANCH   5   6
ENDBRANCH   3   5
BRANCH   2  14
HETATM   14  C   UNL     1     -43.157 -54.884  14.794  1.00  0.00     0.108 C 
BRANCH  14  15
HETATM   15  C   UNL     1     -42.263 -53.686  14.493  1.00  0.00    -0.001 C 
HETATM   16  C   UNL     1     -41.594 -53.725  13.100  1.00  0.00     0.010 C 
HETATM   17  C   UNL     1     -40.124 -53.384  13.410  1.00  0.00    -0.014 C 
HETATM   18  C   UNL     1     -39.455 -54.624  14.023  1.00  0.00     0.005 C 
HETATM   19  C   UNL     1     -40.241 -52.468  14.629  1.00  0.00     0.009 C 
HETATM   20  C   UNL     1     -40.102 -54.704  15.414  1.00  0.00     0.005 C 
HETATM   21  C   UNL     1     -41.050 -53.490  15.433  1.00  0.00    -0.010 C 
ENDBRANCH  14  15
ENDBRANCH   2  14
TORSDOF 5
ENDMDL
