MODEL 1
REMARK VINA RESULT:      -6.5      0.000      0.000
REMARK  3 active torsions:
REMARK  status: ('A' for Active; 'I' for Inactive)
REMARK    1  A    between atoms: C_2  and  N_4 
REMARK    2  A    between atoms: C_9  and  N_10 
REMARK       I    between atoms: N_10  and  C_11 
REMARK       I    between atoms: C_11  and  N_13 
REMARK    3  A    between atoms: N_13  and  C_14 
ROOT
HETATM    1  N   UNL     1     -42.095 -49.349  11.180  1.00  0.00    -0.293 N 
HETATM    2  C   UNL     1     -42.854 -49.611  12.369  1.00  0.00     0.322 C 
HETATM    3  O   UNL     1     -43.170 -48.724  13.136  1.00  0.00    -0.247 OA
HETATM    4  N   UNL     1     -43.128 -50.941  12.519  1.00  0.00    -0.334 N 
HETATM    5  H   UNL     1     -41.650 -50.112  10.701  1.00  0.00     0.172 HD
HETATM    6  H   UNL     1     -43.102 -51.519  11.695  1.00  0.00     0.165 HD
ENDROOT
BRANCH   1   7
HETATM    7  C   UNL     1     -41.864 -48.037  10.736  1.00  0.00     0.127 A 
HETATM    8  N   UNL     1     -42.594 -47.257   9.857  1.00  0.00    -0.273 N 
HETATM    9  N   UNL     1     -42.069 -46.019   9.698  1.00  0.00    -0.308 N 
HETATM   10  C   UNL     1     -40.980 -46.019  10.459  1.00  0.00     0.111 A 
ATOM     11  HN  UNL     1     -42.428 -45.258   9.121  1.00  0.00     0.186 HD
HETATM   12  C   UNL     1     -40.816 -47.230  11.140  1.00  0.00     0.069 A 
BRANCH   8  13
HETATM   13  C   UNL     1     -43.743 -47.574   9.016  1.00  0.00     0.102 C 
HETATM   14  C   UNL     1     -44.831 -46.504   9.055  1.00  0.00     0.034 C 
HETATM   15  C   UNL     1     -43.349 -47.960   7.594  1.00  0.00     0.034 C 
ENDBRANCH   8  13
ENDBRANCH   1   7
BRANCH   4  16
HETATM   16  C   UNL     1     -43.876 -51.488  13.694  1.00  0.00     0.035 C 
HETATM   17  C   UNL     1     -43.493 -50.726  14.977  1.00  0.00     0.039 C 
HETATM   18  C   UNL     1     -43.624 -53.000  13.911  1.00  0.00     0.057 C 
HETATM   19  C   UNL     1     -44.211 -53.841  12.787  1.00  0.00     0.170 C 
HETATM   20  O   UNL     1     -45.603 -53.574  12.626  1.00  0.00    -0.391 OA
HETATM   21  C   UNL     1     -45.877 -52.211  12.325  1.00  0.00     0.170 C 
HETATM   22  C   UNL     1     -45.394 -51.308  13.453  1.00  0.00     0.057 C 
ENDBRANCH   4  16
TORSDOF 3
ENDMDL
MODEL 2
REMARK VINA RESULT:      -6.2      1.402      1.976
REMARK  3 active torsions:
REMARK  status: ('A' for Active; 'I' for Inactive)
REMARK    1  A    between atoms: C_2  and  N_4 
REMARK    2  A    between atoms: C_9  and  N_10 
REMARK       I    between atoms: N_10  and  C_11 
REMARK       I    between atoms: C_11  and  N_13 
REMARK    3  A    between atoms: N_13  and  C_14 
ROOT
HETATM    1  N   UNL     1     -41.806 -49.314  10.954  1.00  0.00    -0.293 N 
HETATM    2  C   UNL     1     -42.532 -49.759  12.109  1.00  0.00     0.322 C 
HETATM    3  O   UNL     1     -42.951 -48.979  12.942  1.00  0.00    -0.247 OA
HETATM    4  N   UNL     1     -42.650 -51.119  12.148  1.00  0.00    -0.334 N 
HETATM    5  H   UNL     1     -41.274 -49.980  10.421  1.00  0.00     0.172 HD
HETATM    6  H   UNL     1     -42.555 -51.621  11.280  1.00  0.00     0.165 HD
ENDROOT
BRANCH   1   7
HETATM    7  C   UNL     1     -41.726 -47.953  10.620  1.00  0.00     0.127 A 
HETATM    8  N   UNL     1     -42.570 -47.181   9.840  1.00  0.00    -0.273 N 
HETATM    9  N   UNL     1     -42.178 -45.887   9.773  1.00  0.00    -0.308 N 
HETATM   10  C   UNL     1     -41.064 -45.837  10.493  1.00  0.00     0.111 A 
ATOM     11  HN  UNL     1     -42.637 -45.121   9.279  1.00  0.00     0.186 HD
HETATM   12  C   UNL     1     -40.749 -47.078  11.058  1.00  0.00     0.069 A 
BRANCH   8  13
HETATM   13  C   UNL     1     -43.716 -47.544   9.014  1.00  0.00     0.102 C 
HETATM   14  C   UNL     1     -44.834 -46.505   9.047  1.00  0.00     0.034 C 
HETATM   15  C   UNL     1     -43.324 -47.940   7.595  1.00  0.00     0.034 C 
ENDBRANCH   8  13
ENDBRANCH   1   7
BRANCH   4  16
HETATM   16  C   UNL     1     -43.333 -51.842  13.266  1.00  0.00     0.035 C 
HETATM   17  C   UNL     1     -44.806 -51.404  13.369  1.00  0.00     0.039 C 
HETATM   18  C   UNL     1     -42.642 -51.617  14.633  1.00  0.00     0.057 C 
HETATM   19  C   UNL     1     -41.262 -52.257  14.684  1.00  0.00     0.170 C 
HETATM   20  O   UNL     1     -41.333 -53.647  14.372  1.00  0.00    -0.391 OA
HETATM   21  C   UNL     1     -41.872 -53.900  13.080  1.00  0.00     0.170 C 
HETATM   22  C   UNL     1     -43.294 -53.363  12.979  1.00  0.00     0.057 C 
ENDBRANCH   4  16
TORSDOF 3
ENDMDL
MODEL 3
REMARK VINA RESULT:      -6.1      2.547      6.386
REMARK  3 active torsions:
REMARK  status: ('A' for Active; 'I' for Inactive)
REMARK    1  A    between atoms: C_2  and  N_4 
REMARK    2  A    between atoms: C_9  and  N_10 
REMARK       I    between atoms: N_10  and  C_11 
REMARK       I    between atoms: C_11  and  N_13 
REMARK    3  A    between atoms: N_13  and  C_14 
ROOT
HETATM    1  N   UNL     1     -43.702 -52.426  12.223  1.00  0.00    -0.293 N 
HETATM    2  C   UNL     1     -42.950 -51.408  12.900  1.00  0.00     0.322 C 
HETATM    3  O   UNL     1     -43.064 -51.215  14.094  1.00  0.00    -0.247 OA
HETATM    4  N   UNL     1     -42.153 -50.704  12.043  1.00  0.00    -0.334 N 
HETATM    5  H   UNL     1     -43.768 -52.404  11.220  1.00  0.00     0.172 HD
HETATM    6  H   UNL     1     -41.903 -51.142  11.172  1.00  0.00     0.165 HD
ENDROOT
BRANCH   1   7
HETATM    7  C   UNL     1     -44.442 -53.383  12.935  1.00  0.00     0.127 A 
HETATM    8  N   UNL     1     -45.764 -53.358  13.342  1.00  0.00    -0.273 N 
HETATM    9  N   UNL     1     -46.133 -54.490  13.985  1.00  0.00    -0.308 N 
HETATM   10  C   UNL     1     -45.032 -55.233  14.012  1.00  0.00     0.111 A 
ATOM     11  HN  UNL     1     -47.052 -54.722  14.364  1.00  0.00     0.186 HD
HETATM   12  C   UNL     1     -43.964 -54.609  13.360  1.00  0.00     0.069 A 
BRANCH   8  13
HETATM   13  C   UNL     1     -46.767 -52.299  13.289  1.00  0.00     0.102 C 
HETATM   14  C   UNL     1     -46.616 -51.273  14.408  1.00  0.00     0.034 C 
HETATM   15  C   UNL     1     -46.878 -51.655  11.911  1.00  0.00     0.034 C 
ENDBRANCH   8  13
ENDBRANCH   1   7
BRANCH   4  16
HETATM   16  C   UNL     1     -41.292 -49.564  12.488  1.00  0.00     0.035 C 
HETATM   17  C   UNL     1     -40.163 -50.069  13.405  1.00  0.00     0.039 C 
HETATM   18  C   UNL     1     -42.092 -48.466  13.230  1.00  0.00     0.057 C 
HETATM   19  C   UNL     1     -43.060 -47.744  12.303  1.00  0.00     0.170 C 
HETATM   20  O   UNL     1     -42.377 -47.202  11.176  1.00  0.00    -0.391 OA
HETATM   21  C   UNL     1     -41.706 -48.190  10.404  1.00  0.00     0.170 C 
HETATM   22  C   UNL     1     -40.652 -48.901  11.244  1.00  0.00     0.057 C 
ENDBRANCH   4  16
TORSDOF 3
ENDMDL
MODEL 4
REMARK VINA RESULT:      -6.0      3.474      6.440
REMARK  3 active torsions:
REMARK  status: ('A' for Active; 'I' for Inactive)
REMARK    1  A    between atoms: C_2  and  N_4 
REMARK    2  A    between atoms: C_9  and  N_10 
REMARK       I    between atoms: N_10  and  C_11 
REMARK       I    between atoms: C_11  and  N_13 
REMARK    3  A    between atoms: N_13  and  C_14 
ROOT
HETATM    1  N   UNL     1     -43.049 -52.296  12.229  1.00  0.00    -0.293 N 
HETATM    2  C   UNL     1     -42.336 -51.360  13.051  1.00  0.00     0.322 C 
HETATM    3  O   UNL     1     -42.674 -51.124  14.194  1.00  0.00    -0.247 OA
HETATM    4  N   UNL     1     -41.294 -50.782  12.384  1.00  0.00    -0.334 N 
HETATM    5  H   UNL     1     -42.899 -52.292  11.235  1.00  0.00     0.172 HD
HETATM    6  H   UNL     1     -40.923 -51.269  11.585  1.00  0.00     0.165 HD
ENDROOT
BRANCH   1   7
HETATM    7  C   UNL     1     -44.036 -53.137  12.767  1.00  0.00     0.127 A 
HETATM    8  N   UNL     1     -45.380 -52.895  12.992  1.00  0.00    -0.273 N 
HETATM    9  N   UNL     1     -46.025 -53.971  13.500  1.00  0.00    -0.308 N 
HETATM   10  C   UNL     1     -45.082 -54.897  13.626  1.00  0.00     0.111 A 
ATOM     11  HN  UNL     1     -47.015 -54.052  13.735  1.00  0.00     0.186 HD
HETATM   12  C   UNL     1     -43.839 -54.445  13.168  1.00  0.00     0.069 A 
BRANCH   8  13
HETATM   13  C   UNL     1     -46.170 -51.674  12.876  1.00  0.00     0.102 C 
HETATM   14  C   UNL     1     -47.107 -51.676  11.671  1.00  0.00     0.034 C 
HETATM   15  C   UNL     1     -46.881 -51.302  14.172  1.00  0.00     0.034 C 
ENDBRANCH   8  13
ENDBRANCH   1   7
BRANCH   4  16
HETATM   16  C   UNL     1     -40.411 -49.744  13.001  1.00  0.00     0.035 C 
HETATM   17  C   UNL     1     -41.250 -48.552  13.501  1.00  0.00     0.039 C 
HETATM   18  C   UNL     1     -39.328 -49.223  12.026  1.00  0.00     0.057 C 
HETATM   19  C   UNL     1     -38.305 -50.298  11.687  1.00  0.00     0.170 C 
HETATM   20  O   UNL     1     -37.712 -50.827  12.871  1.00  0.00    -0.391 OA
HETATM   21  C   UNL     1     -38.662 -51.408  13.756  1.00  0.00     0.170 C 
HETATM   22  C   UNL     1     -39.674 -50.365  14.213  1.00  0.00     0.057 C 
ENDBRANCH   4  16
TORSDOF 3
ENDMDL
MODEL 5
REMARK VINA RESULT:      -5.9      2.901      6.032
REMARK  3 active torsions:
REMARK  status: ('A' for Active; 'I' for Inactive)
REMARK    1  A    between atoms: C_2  and  N_4 
REMARK    2  A    between atoms: C_9  and  N_10 
REMARK       I    between atoms: N_10  and  C_11 
REMARK       I    between atoms: C_11  and  N_13 
REMARK    3  A    between atoms: N_13  and  C_14 
ROOT
HETATM    1  N   UNL     1     -40.221 -49.752  10.723  1.00  0.00    -0.293 N 
HETATM    2  C   UNL     1     -40.954 -48.558  11.029  1.00  0.00     0.322 C 
HETATM    3  O   UNL     1     -40.998 -48.104  12.156  1.00  0.00    -0.247 OA
HETATM    4  N   UNL     1     -41.588 -48.050   9.931  1.00  0.00    -0.334 N 
HETATM    5  H   UNL     1     -40.396 -50.229   9.855  1.00  0.00     0.172 HD
HETATM    6  H   UNL     1     -41.234 -48.310   9.025  1.00  0.00     0.165 HD
ENDROOT
BRANCH   1   7
HETATM    7  C   UNL     1     -39.350 -50.335  11.657  1.00  0.00     0.127 A 
HETATM    8  N   UNL     1     -39.588 -51.325  12.594  1.00  0.00    -0.273 N 
HETATM    9  N   UNL     1     -38.481 -51.650  13.302  1.00  0.00    -0.308 N 
HETATM   10  C   UNL     1     -37.535 -50.845  12.831  1.00  0.00     0.111 A 
ATOM     11  HN  UNL     1     -38.393 -52.356  14.033  1.00  0.00     0.186 HD
HETATM   12  C   UNL     1     -38.009 -50.027  11.800  1.00  0.00     0.069 A 
BRANCH   8  13
HETATM   13  C   UNL     1     -40.825 -51.979  13.008  1.00  0.00     0.102 C 
HETATM   14  C   UNL     1     -40.628 -53.441  13.402  1.00  0.00     0.034 C 
HETATM   15  C   UNL     1     -41.593 -51.186  14.060  1.00  0.00     0.034 C 
ENDBRANCH   8  13
ENDBRANCH   1   7
BRANCH   4  16
HETATM   16  C   UNL     1     -42.450 -46.828   9.985  1.00  0.00     0.035 C 
HETATM   17  C   UNL     1     -41.622 -45.605  10.424  1.00  0.00     0.039 C 
HETATM   18  C   UNL     1     -43.657 -46.990  10.942  1.00  0.00     0.057 C 
HETATM   19  C   UNL     1     -44.656 -48.017  10.427  1.00  0.00     0.170 C 
HETATM   20  O   UNL     1     -45.091 -47.688   9.110  1.00  0.00    -0.391 OA
HETATM   21  C   UNL     1     -44.024 -47.625   8.171  1.00  0.00     0.170 C 
HETATM   22  C   UNL     1     -43.020 -46.551   8.573  1.00  0.00     0.057 C 
ENDBRANCH   4  16
TORSDOF 3
ENDMDL
MODEL 6
REMARK VINA RESULT:      -5.8      2.408      3.794
REMARK  3 active torsions:
REMARK  status: ('A' for Active; 'I' for Inactive)
REMARK    1  A    between atoms: C_2  and  N_4 
REMARK    2  A    between atoms: C_9  and  N_10 
REMARK       I    between atoms: N_10  and  C_11 
REMARK       I    between atoms: C_11  and  N_13 
REMARK    3  A    between atoms: N_13  and  C_14 
ROOT
HETATM    1  N   UNL     1     -42.230 -50.898  11.906  1.00  0.00    -0.293 N 
HETATM    2  C   UNL     1     -43.056 -50.997  13.076  1.00  0.00     0.322 C 
HETATM    3  O   UNL     1     -42.938 -50.229  14.010  1.00  0.00    -0.247 OA
HETATM    4  N   UNL     1     -43.926 -52.047  13.001  1.00  0.00    -0.334 N 
HETATM    5  H   UNL     1     -42.184 -51.674  11.269  1.00  0.00     0.172 HD
HETATM    6  H   UNL     1     -44.152 -52.402  12.086  1.00  0.00     0.165 HD
ENDROOT
BRANCH   1   7
HETATM    7  C   UNL     1     -41.397 -49.789  11.692  1.00  0.00     0.127 A 
HETATM    8  N   UNL     1     -40.019 -49.689  11.761  1.00  0.00    -0.273 N 
HETATM    9  N   UNL     1     -39.570 -48.449  11.455  1.00  0.00    -0.308 N 
HETATM   10  C   UNL     1     -40.670 -47.746  11.214  1.00  0.00     0.111 A 
ATOM     11  HN  UNL     1     -38.602 -48.127  11.418  1.00  0.00     0.186 HD
HETATM   12  C   UNL     1     -41.826 -48.527  11.324  1.00  0.00     0.069 A 
BRANCH   8  13
HETATM   13  C   UNL     1     -39.006 -50.642  12.203  1.00  0.00     0.102 C 
HETATM   14  C   UNL     1     -37.600 -50.289  11.726  1.00  0.00     0.034 C 
HETATM   15  C   UNL     1     -39.067 -50.921  13.701  1.00  0.00     0.034 C 
ENDBRANCH   8  13
ENDBRANCH   1   7
BRANCH   4  16
HETATM   16  C   UNL     1     -44.875 -52.394  14.105  1.00  0.00     0.035 C 
HETATM   17  C   UNL     1     -45.797 -51.200  14.417  1.00  0.00     0.039 C 
HETATM   18  C   UNL     1     -44.149 -52.824  15.403  1.00  0.00     0.057 C 
HETATM   19  C   UNL     1     -43.418 -54.148  15.233  1.00  0.00     0.170 C 
HETATM   20  O   UNL     1     -44.309 -55.168  14.786  1.00  0.00    -0.391 OA
HETATM   21  C   UNL     1     -44.927 -54.860  13.542  1.00  0.00     0.170 C 
HETATM   22  C   UNL     1     -45.755 -53.586  13.657  1.00  0.00     0.057 C 
ENDBRANCH   4  16
TORSDOF 3
ENDMDL
MODEL 7
REMARK VINA RESULT:      -5.8      2.303      6.826
REMARK  3 active torsions:
REMARK  status: ('A' for Active; 'I' for Inactive)
REMARK    1  A    between atoms: C_2  and  N_4 
REMARK    2  A    between atoms: C_9  and  N_10 
REMARK       I    between atoms: N_10  and  C_11 
REMARK       I    between atoms: C_11  and  N_13 
REMARK    3  A    between atoms: N_13  and  C_14 
ROOT
HETATM    1  N   UNL     1     -45.049 -50.998  12.929  1.00  0.00    -0.293 N 
HETATM    2  C   UNL     1     -43.822 -50.343  13.284  1.00  0.00     0.322 C 
HETATM    3  O   UNL     1     -43.452 -50.259  14.438  1.00  0.00    -0.247 OA
HETATM    4  N   UNL     1     -43.182 -49.829  12.193  1.00  0.00    -0.334 N 
HETATM    5  H   UNL     1     -45.442 -50.845  12.016  1.00  0.00     0.172 HD
HETATM    6  H   UNL     1     -43.402 -50.223  11.293  1.00  0.00     0.165 HD
ENDROOT
BRANCH   1   7
HETATM    7  C   UNL     1     -45.772 -51.753  13.866  1.00  0.00     0.127 A 
HETATM    8  N   UNL     1     -45.654 -53.089  14.208  1.00  0.00    -0.273 N 
HETATM    9  N   UNL     1     -46.514 -53.454  15.187  1.00  0.00    -0.308 N 
HETATM   10  C   UNL     1     -47.204 -52.350  15.454  1.00  0.00     0.111 A 
ATOM     11  HN  UNL     1     -46.611 -54.371  15.623  1.00  0.00     0.186 HD
HETATM   12  C   UNL     1     -46.774 -51.265  14.684  1.00  0.00     0.069 A 
BRANCH   8  13
HETATM   13  C   UNL     1     -44.854 -54.163  13.630  1.00  0.00     0.102 C 
HETATM   14  C   UNL     1     -43.405 -54.158  14.109  1.00  0.00     0.034 C 
HETATM   15  C   UNL     1     -45.513 -55.532  13.764  1.00  0.00     0.034 C 
ENDBRANCH   8  13
ENDBRANCH   1   7
BRANCH   4  16
HETATM   16  C   UNL     1     -41.898 -49.066  12.291  1.00  0.00     0.035 C 
HETATM   17  C   UNL     1     -40.796 -49.946  12.911  1.00  0.00     0.039 C 
HETATM   18  C   UNL     1     -42.036 -47.769  13.124  1.00  0.00     0.057 C 
HETATM   19  C   UNL     1     -42.922 -46.742  12.434  1.00  0.00     0.170 C 
HETATM   20  O   UNL     1     -42.442 -46.456  11.122  1.00  0.00    -0.391 OA
HETATM   21  C   UNL     1     -42.392 -47.605  10.285  1.00  0.00     0.170 C 
HETATM   22  C   UNL     1     -41.450 -48.650  10.869  1.00  0.00     0.057 C 
ENDBRANCH   4  16
TORSDOF 3
ENDMDL
MODEL 8
REMARK VINA RESULT:      -5.7      2.169      3.653
REMARK  3 active torsions:
REMARK  status: ('A' for Active; 'I' for Inactive)
REMARK    1  A    between atoms: C_2  and  N_4 
REMARK    2  A    between atoms: C_9  and  N_10 
REMARK       I    between atoms: N_10  and  C_11 
REMARK       I    between atoms: C_11  and  N_13 
REMARK    3  A    between atoms: N_13  and  C_14 
ROOT
HETATM    1  N   UNL     1     -41.575 -50.382  11.294  1.00  0.00    -0.293 N 
HETATM    2  C   UNL     1     -42.001 -50.991  12.522  1.00  0.00     0.322 C 
HETATM    3  O   UNL     1     -41.647 -50.567  13.604  1.00  0.00    -0.247 OA
HETATM    4  N   UNL     1     -42.796 -52.080  12.304  1.00  0.00    -0.334 N 
HETATM    5  H   UNL     1     -41.682 -50.886  10.431  1.00  0.00     0.172 HD
HETATM    6  H   UNL     1     -43.269 -52.143  11.417  1.00  0.00     0.165 HD
ENDROOT
BRANCH   1   7
HETATM    7  C   UNL     1     -40.906 -49.147  11.285  1.00  0.00     0.127 A 
HETATM    8  N   UNL     1     -39.584 -48.853  11.572  1.00  0.00    -0.273 N 
HETATM    9  N   UNL     1     -39.299 -47.538  11.422  1.00  0.00    -0.308 N 
HETATM   10  C   UNL     1     -40.452 -46.985  11.062  1.00  0.00     0.111 A 
ATOM     11  HN  UNL     1     -38.399 -47.076  11.555  1.00  0.00     0.186 HD
HETATM   12  C   UNL     1     -41.472 -47.934  10.941  1.00  0.00     0.069 A 
BRANCH   8  13
HETATM   13  C   UNL     1     -38.507 -49.683  12.099  1.00  0.00     0.102 C 
HETATM   14  C   UNL     1     -37.391 -49.932  11.087  1.00  0.00     0.034 C 
HETATM   15  C   UNL     1     -37.982 -49.192  13.444  1.00  0.00     0.034 C 
ENDBRANCH   8  13
ENDBRANCH   1   7
BRANCH   4  16
HETATM   16  C   UNL     1     -43.346 -52.918  13.415  1.00  0.00     0.035 C 
HETATM   17  C   UNL     1     -42.247 -53.827  13.997  1.00  0.00     0.039 C 
HETATM   18  C   UNL     1     -44.541 -53.794  12.967  1.00  0.00     0.057 C 
HETATM   19  C   UNL     1     -45.761 -52.954  12.616  1.00  0.00     0.170 C 
HETATM   20  O   UNL     1     -46.128 -52.110  13.706  1.00  0.00    -0.391 OA
HETATM   21  C   UNL     1     -45.092 -51.215  14.090  1.00  0.00     0.170 C 
HETATM   22  C   UNL     1     -43.858 -51.987  14.541  1.00  0.00     0.057 C 
ENDBRANCH   4  16
TORSDOF 3
ENDMDL
MODEL 9
REMARK VINA RESULT:      -5.7      2.138      2.583
REMARK  3 active torsions:
REMARK  status: ('A' for Active; 'I' for Inactive)
REMARK    1  A    between atoms: C_2  and  N_4 
REMARK    2  A    between atoms: C_9  and  N_10 
REMARK       I    between atoms: N_10  and  C_11 
REMARK       I    between atoms: C_11  and  N_13 
REMARK    3  A    between atoms: N_13  and  C_14 
ROOT
HETATM    1  N   UNL     1     -42.104 -49.814  11.701  1.00  0.00    -0.293 N 
HETATM    2  C   UNL     1     -42.587 -50.477  12.878  1.00  0.00     0.322 C 
HETATM    3  O   UNL     1     -41.838 -50.828  13.769  1.00  0.00    -0.247 OA
HETATM    4  N   UNL     1     -43.938 -50.673  12.838  1.00  0.00    -0.334 N 
HETATM    5  H   UNL     1     -42.697 -49.754  10.891  1.00  0.00     0.172 HD
HETATM    6  H   UNL     1     -44.478 -50.079  12.230  1.00  0.00     0.165 HD
ENDROOT
BRANCH   1   7
HETATM    7  C   UNL     1     -40.782 -49.350  11.614  1.00  0.00     0.127 A 
HETATM    8  N   UNL     1     -40.304 -48.062  11.448  1.00  0.00    -0.273 N 
HETATM    9  N   UNL     1     -38.951 -48.005  11.442  1.00  0.00    -0.308 N 
HETATM   10  C   UNL     1     -38.563 -49.268  11.579  1.00  0.00     0.111 A 
ATOM     11  HN  UNL     1     -38.362 -47.177  11.352  1.00  0.00     0.186 HD
HETATM   12  C   UNL     1     -39.651 -50.138  11.711  1.00  0.00     0.069 A 
BRANCH   8  13
HETATM   13  C   UNL     1     -40.996 -46.806  11.178  1.00  0.00     0.102 C 
HETATM   14  C   UNL     1     -41.825 -46.311  12.360  1.00  0.00     0.034 C 
HETATM   15  C   UNL     1     -40.074 -45.730  10.614  1.00  0.00     0.034 C 
ENDBRANCH   8  13
ENDBRANCH   1   7
BRANCH   4  16
HETATM   16  C   UNL     1     -44.689 -51.375  13.926  1.00  0.00     0.035 C 
HETATM   17  C   UNL     1     -44.585 -50.586  15.245  1.00  0.00     0.039 C 
HETATM   18  C   UNL     1     -44.188 -52.820  14.161  1.00  0.00     0.057 C 
HETATM   19  C   UNL     1     -44.494 -53.727  12.977  1.00  0.00     0.170 C 
HETATM   20  O   UNL     1     -45.888 -53.714  12.673  1.00  0.00    -0.391 OA
HETATM   21  C   UNL     1     -46.374 -52.416  12.352  1.00  0.00     0.170 C 
HETATM   22  C   UNL     1     -46.182 -51.467  13.529  1.00  0.00     0.057 C 
ENDBRANCH   4  16
TORSDOF 3
ENDMDL
