MODEL 1
REMARK VINA RESULT:      -5.8      0.000      0.000
REMARK  5 active torsions:
REMARK  status: ('A' for Active; 'I' for Inactive)
REMARK    1  A    between atoms: C_2  and  C_3 
REMARK    2  A    between atoms: C_3  and  N_4 
REMARK       I    between atoms: N_4  and  C_5 
REMARK    3  A    between atoms: C_5  and  C_7 
REMARK    4  A    between atoms: C_7  and  C_8 
REMARK    5  A    between atoms: C_11  and  N_14 
ROOT
HETATM    1  C   UNL     1     -41.784 -49.796  11.894  1.00  0.00     0.026 A 
HETATM    2  C   UNL     1     -40.883 -50.751  12.322  1.00  0.00     0.078 A 
HETATM    3  S   UNL     1     -41.664 -51.875  13.346  1.00  0.00    -0.064 SA
HETATM    4  C   UNL     1     -43.145 -51.051  13.133  1.00  0.00     0.153 A 
HETATM    5  N   UNL     1     -43.067 -49.939  12.427  1.00  0.00    -0.339 N 
ATOM      6  HN  UNL     1     -43.832 -49.279  12.291  1.00  0.00     0.168 HD
ENDROOT
BRANCH   1   7
HETATM    7  C   UNL     1     -41.520 -48.693  10.918  1.00  0.00     0.160 C 
BRANCH   7   8
HETATM    8  C   UNL     1     -42.747 -47.883  10.546  1.00  0.00     0.223 C 
HETATM    9  N   UNL     1     -43.136 -47.959   9.228  1.00  0.00    -0.361 N 
HETATM   10  H   UNL     1     -42.580 -48.542   8.605  1.00  0.00     0.162 HD
HETATM   11  O   UNL     1     -43.304 -47.157  11.366  1.00  0.00    -0.273 OA
BRANCH   9  12
HETATM   12  C   UNL     1     -44.240 -47.203   8.683  1.00  0.00     0.122 C 
BRANCH  12  13
HETATM   13  C   UNL     1     -45.560 -47.967   8.761  1.00  0.00     0.015 C 
HETATM   14  C   UNL     1     -46.734 -47.074   9.137  1.00  0.00     0.006 C 
ENDBRANCH  12  13
ENDBRANCH   9  12
ENDBRANCH   7   8
ENDBRANCH   1   7
BRANCH   4  15
HETATM   15  N   UNL     1     -44.342 -51.539  13.631  1.00  0.00    -0.298 N 
HETATM   16  C   UNL     1     -45.072 -50.880  14.686  1.00  0.00     0.134 C 
HETATM   17  C   UNL     1     -46.448 -51.511  14.702  1.00  0.00     0.029 C 
HETATM   18  C   UNL     1     -46.550 -52.273  13.397  1.00  0.00     0.105 C 
HETATM   19  C   UNL     1     -45.124 -52.474  12.955  1.00  0.00     0.225 C 
HETATM   20  O   UNL     1     -44.821 -53.265  12.075  1.00  0.00    -0.273 OA
ENDBRANCH   4  15
TORSDOF 5
ENDMDL
MODEL 2
REMARK VINA RESULT:      -5.6      1.591      1.888
REMARK  5 active torsions:
REMARK  status: ('A' for Active; 'I' for Inactive)
REMARK    1  A    between atoms: C_2  and  C_3 
REMARK    2  A    between atoms: C_3  and  N_4 
REMARK       I    between atoms: N_4  and  C_5 
REMARK    3  A    between atoms: C_5  and  C_7 
REMARK    4  A    between atoms: C_7  and  C_8 
REMARK    5  A    between atoms: C_11  and  N_14 
ROOT
HETATM    1  C   UNL     1     -42.388 -50.010  12.391  1.00  0.00     0.026 A 
HETATM    2  C   UNL     1     -41.238 -50.567  11.868  1.00  0.00     0.078 A 
HETATM    3  S   UNL     1     -41.284 -52.268  12.034  1.00  0.00    -0.064 SA
HETATM    4  C   UNL     1     -42.830 -52.163  12.754  1.00  0.00     0.153 A 
HETATM    5  N   UNL     1     -43.264 -50.935  12.964  1.00  0.00    -0.339 N 
ATOM      6  HN  UNL     1     -44.115 -50.695  13.472  1.00  0.00     0.168 HD
ENDROOT
BRANCH   1   7
HETATM    7  C   UNL     1     -42.774 -48.564  12.359  1.00  0.00     0.160 C 
BRANCH   7   8
HETATM    8  C   UNL     1     -42.934 -47.993  10.963  1.00  0.00     0.223 C 
HETATM    9  N   UNL     1     -44.225 -47.924  10.491  1.00  0.00    -0.361 N 
HETATM   10  H   UNL     1     -44.969 -48.259  11.101  1.00  0.00     0.162 HD
HETATM   11  O   UNL     1     -41.957 -47.681  10.286  1.00  0.00    -0.273 OA
BRANCH   9  12
HETATM   12  C   UNL     1     -44.558 -47.471   9.160  1.00  0.00     0.122 C 
BRANCH  12  13
HETATM   13  C   UNL     1     -46.061 -47.263   8.978  1.00  0.00     0.015 C 
HETATM   14  C   UNL     1     -46.815 -48.571   8.780  1.00  0.00     0.006 C 
ENDBRANCH  12  13
ENDBRANCH   9  12
ENDBRANCH   7   8
ENDBRANCH   1   7
BRANCH   4  15
HETATM   15  N   UNL     1     -43.584 -53.285  13.056  1.00  0.00    -0.298 N 
HETATM   16  C   UNL     1     -43.143 -54.291  13.990  1.00  0.00     0.134 C 
HETATM   17  C   UNL     1     -44.358 -55.142  14.296  1.00  0.00     0.029 C 
HETATM   18  C   UNL     1     -45.539 -54.347  13.778  1.00  0.00     0.105 C 
HETATM   19  C   UNL     1     -44.948 -53.382  12.783  1.00  0.00     0.225 C 
HETATM   20  O   UNL     1     -45.639 -52.760  11.991  1.00  0.00    -0.273 OA
ENDBRANCH   4  15
TORSDOF 5
ENDMDL
MODEL 3
REMARK VINA RESULT:      -5.6      2.353      2.915
REMARK  5 active torsions:
REMARK  status: ('A' for Active; 'I' for Inactive)
REMARK    1  A    between atoms: C_2  and  C_3 
REMARK    2  A    between atoms: C_3  and  N_4 
REMARK       I    between atoms: N_4  and  C_5 
REMARK    3  A    between atoms: C_5  and  C_7 
REMARK    4  A    between atoms: C_7  and  C_8 
REMARK    5  A    between atoms: C_11  and  N_14 
ROOT
HETATM    1  C   UNL     1     -42.229 -48.943  11.625  1.00  0.00     0.026 A 
HETATM    2  C   UNL     1     -42.861 -48.419  12.736  1.00  0.00     0.078 A 
HETATM    3  S   UNL     1     -43.058 -49.633  13.923  1.00  0.00    -0.064 SA
HETATM    4  C   UNL     1     -42.270 -50.761  12.911  1.00  0.00     0.153 A 
HETATM    5  N   UNL     1     -41.961 -50.310  11.710  1.00  0.00    -0.339 N 
ATOM      6  HN  UNL     1     -41.580 -50.878  10.954  1.00  0.00     0.168 HD
ENDROOT
BRANCH   1   7
HETATM    7  C   UNL     1     -41.793 -48.189  10.408  1.00  0.00     0.160 C 
BRANCH   7   8
HETATM    8  C   UNL     1     -42.779 -47.133   9.944  1.00  0.00     0.223 C 
HETATM    9  N   UNL     1     -43.966 -47.607   9.435  1.00  0.00    -0.361 N 
HETATM   10  H   UNL     1     -44.097 -48.617   9.404  1.00  0.00     0.162 HD
HETATM   11  O   UNL     1     -42.489 -45.939   9.964  1.00  0.00    -0.273 OA
BRANCH   9  12
HETATM   12  C   UNL     1     -44.991 -46.749   8.885  1.00  0.00     0.122 C 
BRANCH  12  13
HETATM   13  C   UNL     1     -46.398 -47.267   9.177  1.00  0.00     0.015 C 
HETATM   14  C   UNL     1     -46.635 -48.666   8.627  1.00  0.00     0.006 C 
ENDBRANCH  12  13
ENDBRANCH   9  12
ENDBRANCH   7   8
ENDBRANCH   1   7
BRANCH   4  15
HETATM   15  N   UNL     1     -41.947 -52.039  13.337  1.00  0.00    -0.298 N 
HETATM   16  C   UNL     1     -42.916 -52.933  13.921  1.00  0.00     0.134 C 
HETATM   17  C   UNL     1     -42.272 -54.303  13.931  1.00  0.00     0.029 C 
HETATM   18  C   UNL     1     -41.074 -54.184  13.011  1.00  0.00     0.105 C 
HETATM   19  C   UNL     1     -40.791 -52.706  12.936  1.00  0.00     0.225 C 
HETATM   20  O   UNL     1     -39.744 -52.266  12.485  1.00  0.00    -0.273 OA
ENDBRANCH   4  15
TORSDOF 5
ENDMDL
MODEL 4
REMARK VINA RESULT:      -5.4      4.248      5.444
REMARK  5 active torsions:
REMARK  status: ('A' for Active; 'I' for Inactive)
REMARK    1  A    between atoms: C_2  and  C_3 
REMARK    2  A    between atoms: C_3  and  N_4 
REMARK       I    between atoms: N_4  and  C_5 
REMARK    3  A    between atoms: C_5  and  C_7 
REMARK    4  A    between atoms: C_7  and  C_8 
REMARK    5  A    between atoms: C_11  and  N_14 
ROOT
HETATM    1  C   UNL     1     -41.646 -54.050  14.750  1.00  0.00     0.026 A 
HETATM    2  C   UNL     1     -41.964 -54.693  15.930  1.00  0.00     0.078 A 
HETATM    3  S   UNL     1     -43.583 -54.355  16.363  1.00  0.00    -0.064 SA
HETATM    4  C   UNL     1     -43.770 -53.411  14.952  1.00  0.00     0.153 A 
HETATM    5  N   UNL     1     -42.673 -53.255  14.236  1.00  0.00    -0.339 N 
ATOM      6  HN  UNL     1     -42.587 -52.643  13.425  1.00  0.00     0.168 HD
ENDROOT
BRANCH   1   7
HETATM    7  C   UNL     1     -40.361 -54.160  13.991  1.00  0.00     0.160 C 
BRANCH   7   8
HETATM    8  C   UNL     1     -39.983 -52.910  13.221  1.00  0.00     0.223 C 
HETATM    9  N   UNL     1     -39.128 -52.046  13.866  1.00  0.00    -0.361 N 
HETATM   10  H   UNL     1     -38.815 -52.302  14.801  1.00  0.00     0.162 HD
HETATM   11  O   UNL     1     -40.475 -52.667  12.121  1.00  0.00    -0.273 OA
BRANCH   9  12
HETATM   12  C   UNL     1     -38.716 -50.777  13.311  1.00  0.00     0.122 C 
BRANCH  12  13
HETATM   13  C   UNL     1     -37.404 -50.882  12.535  1.00  0.00     0.015 C 
HETATM   14  C   UNL     1     -37.403 -50.041  11.266  1.00  0.00     0.006 C 
ENDBRANCH  12  13
ENDBRANCH   9  12
ENDBRANCH   7   8
ENDBRANCH   1   7
BRANCH   4  15
HETATM   15  N   UNL     1     -44.993 -52.883  14.571  1.00  0.00    -0.298 N 
HETATM   16  C   UNL     1     -45.737 -51.967  15.400  1.00  0.00     0.134 C 
HETATM   17  C   UNL     1     -46.810 -51.373  14.511  1.00  0.00     0.029 C 
HETATM   18  C   UNL     1     -46.395 -51.727  13.098  1.00  0.00     0.105 C 
HETATM   19  C   UNL     1     -45.449 -52.890  13.254  1.00  0.00     0.225 C 
HETATM   20  O   UNL     1     -45.117 -53.589  12.309  1.00  0.00    -0.273 OA
ENDBRANCH   4  15
TORSDOF 5
ENDMDL
MODEL 5
REMARK VINA RESULT:      -5.4      2.271      5.533
REMARK  5 active torsions:
REMARK  status: ('A' for Active; 'I' for Inactive)
REMARK    1  A    between atoms: C_2  and  C_3 
REMARK    2  A    between atoms: C_3  and  N_4 
REMARK       I    between atoms: N_4  and  C_5 
REMARK    3  A    between atoms: C_5  and  C_7 
REMARK    4  A    between atoms: C_7  and  C_8 
REMARK    5  A    between atoms: C_11  and  N_14 
ROOT
HETATM    1  C   UNL     1     -40.907 -50.896  11.821  1.00  0.00     0.026 A 
HETATM    2  C   UNL     1     -39.637 -50.483  12.172  1.00  0.00     0.078 A 
HETATM    3  S   UNL     1     -39.527 -48.780  12.068  1.00  0.00    -0.064 SA
HETATM    4  C   UNL     1     -41.168 -48.696  11.598  1.00  0.00     0.153 A 
HETATM    5  N   UNL     1     -41.757 -49.863  11.421  1.00  0.00    -0.339 N 
ATOM      6  HN  UNL     1     -42.697 -49.992  11.047  1.00  0.00     0.168 HD
ENDROOT
BRANCH   1   7
HETATM    7  C   UNL     1     -41.434 -52.296  11.868  1.00  0.00     0.160 C 
BRANCH   7   8
HETATM    8  C   UNL     1     -42.686 -52.462  12.709  1.00  0.00     0.223 C 
HETATM    9  N   UNL     1     -43.701 -53.189  12.132  1.00  0.00    -0.361 N 
HETATM   10  H   UNL     1     -43.545 -53.558  11.195  1.00  0.00     0.162 HD
HETATM   11  O   UNL     1     -42.794 -51.916  13.804  1.00  0.00    -0.273 OA
BRANCH   9  12
HETATM   12  C   UNL     1     -44.987 -53.391  12.759  1.00  0.00     0.122 C 
BRANCH  12  13
HETATM   13  C   UNL     1     -45.996 -52.309  12.375  1.00  0.00     0.015 C 
HETATM   14  C   UNL     1     -46.483 -51.508  13.573  1.00  0.00     0.006 C 
ENDBRANCH  12  13
ENDBRANCH   9  12
ENDBRANCH   7   8
ENDBRANCH   1   7
BRANCH   4  15
HETATM   15  N   UNL     1     -41.836 -47.491  11.454  1.00  0.00    -0.298 N 
HETATM   16  C   UNL     1     -41.580 -46.352  12.301  1.00  0.00     0.134 C 
HETATM   17  C   UNL     1     -42.235 -45.168  11.623  1.00  0.00     0.029 C 
HETATM   18  C   UNL     1     -42.540 -45.636  10.215  1.00  0.00     0.105 C 
HETATM   19  C   UNL     1     -42.534 -47.140  10.299  1.00  0.00     0.225 C 
HETATM   20  O   UNL     1     -42.987 -47.843   9.409  1.00  0.00    -0.273 OA
ENDBRANCH   4  15
TORSDOF 5
ENDMDL
MODEL 6
REMARK VINA RESULT:      -5.3      2.282      2.828
REMARK  5 active torsions:
REMARK  status: ('A' for Active; 'I' for Inactive)
REMARK    1  A    between atoms: C_2  and  C_3 
REMARK    2  A    between atoms: C_3  and  N_4 
REMARK       I    between atoms: N_4  and  C_5 
REMARK    3  A    between atoms: C_5  and  C_7 
REMARK    4  A    between atoms: C_7  and  C_8 
REMARK    5  A    between atoms: C_11  and  N_14 
ROOT
HETATM    1  C   UNL     1     -41.178 -50.741  12.043  1.00  0.00     0.026 A 
HETATM    2  C   UNL     1     -40.541 -51.853  12.558  1.00  0.00     0.078 A 
HETATM    3  S   UNL     1     -41.639 -52.776  13.488  1.00  0.00    -0.064 SA
HETATM    4  C   UNL     1     -42.889 -51.668  13.126  1.00  0.00     0.153 A 
HETATM    5  N   UNL     1     -42.510 -50.608  12.439  1.00  0.00    -0.339 N 
ATOM      6  HN  UNL     1     -43.104 -49.807  12.227  1.00  0.00     0.168 HD
ENDROOT
BRANCH   1   7
HETATM    7  C   UNL     1     -40.592 -49.732  11.106  1.00  0.00     0.160 C 
BRANCH   7   8
HETATM    8  C   UNL     1     -40.945 -48.294  11.439  1.00  0.00     0.223 C 
HETATM    9  N   UNL     1     -41.025 -47.435  10.367  1.00  0.00    -0.361 N 
HETATM   10  H   UNL     1     -40.842 -47.818   9.440  1.00  0.00     0.162 HD
HETATM   11  O   UNL     1     -41.080 -47.924  12.603  1.00  0.00    -0.273 OA
BRANCH   9  12
HETATM   12  C   UNL     1     -41.284 -46.021  10.503  1.00  0.00     0.122 C 
BRANCH  12  13
HETATM   13  C   UNL     1     -40.006 -45.188  10.428  1.00  0.00     0.015 C 
HETATM   14  C   UNL     1     -39.570 -44.658  11.787  1.00  0.00     0.006 C 
ENDBRANCH  12  13
ENDBRANCH   9  12
ENDBRANCH   7   8
ENDBRANCH   1   7
BRANCH   4  15
HETATM   15  N   UNL     1     -44.205 -51.891  13.494  1.00  0.00    -0.298 N 
HETATM   16  C   UNL     1     -44.936 -50.992  14.353  1.00  0.00     0.134 C 
HETATM   17  C   UNL     1     -46.392 -51.390  14.236  1.00  0.00     0.029 C 
HETATM   18  C   UNL     1     -46.460 -52.292  13.021  1.00  0.00     0.105 C 
HETATM   19  C   UNL     1     -45.047 -52.772  12.817  1.00  0.00     0.225 C 
HETATM   20  O   UNL     1     -44.778 -53.710  12.082  1.00  0.00    -0.273 OA
ENDBRANCH   4  15
TORSDOF 5
ENDMDL
MODEL 7
REMARK VINA RESULT:      -5.1      3.758      6.371
REMARK  5 active torsions:
REMARK  status: ('A' for Active; 'I' for Inactive)
REMARK    1  A    between atoms: C_2  and  C_3 
REMARK    2  A    between atoms: C_3  and  N_4 
REMARK       I    between atoms: N_4  and  C_5 
REMARK    3  A    between atoms: C_5  and  C_7 
REMARK    4  A    between atoms: C_7  and  C_8 
REMARK    5  A    between atoms: C_11  and  N_14 
ROOT
HETATM    1  C   UNL     1     -41.322 -53.515  14.110  1.00  0.00     0.026 A 
HETATM    2  C   UNL     1     -40.529 -53.459  15.239  1.00  0.00     0.078 A 
HETATM    3  S   UNL     1     -39.248 -52.352  15.000  1.00  0.00    -0.064 SA
HETATM    4  C   UNL     1     -39.839 -51.995  13.437  1.00  0.00     0.153 A 
HETATM    5  N   UNL     1     -40.870 -52.722  13.053  1.00  0.00    -0.339 N 
ATOM      6  HN  UNL     1     -41.279 -52.708  12.118  1.00  0.00     0.168 HD
ENDROOT
BRANCH   1   7
HETATM    7  C   UNL     1     -42.590 -54.293  13.947  1.00  0.00     0.160 C 
BRANCH   7   8
HETATM    8  C   UNL     1     -43.689 -53.547  13.216  1.00  0.00     0.223 C 
HETATM    9  N   UNL     1     -44.888 -53.445  13.883  1.00  0.00    -0.361 N 
HETATM   10  H   UNL     1     -44.953 -53.873  14.805  1.00  0.00     0.162 HD
HETATM   11  O   UNL     1     -43.523 -53.127  12.073  1.00  0.00    -0.273 OA
BRANCH   9  12
HETATM   12  C   UNL     1     -46.063 -52.828  13.311  1.00  0.00     0.122 C 
BRANCH  12  13
HETATM   13  C   UNL     1     -46.320 -51.433  13.880  1.00  0.00     0.015 C 
HETATM   14  C   UNL     1     -46.943 -51.470  15.268  1.00  0.00     0.006 C 
ENDBRANCH  12  13
ENDBRANCH   9  12
ENDBRANCH   7   8
ENDBRANCH   1   7
BRANCH   4  15
HETATM   15  N   UNL     1     -39.298 -50.990  12.653  1.00  0.00    -0.298 N 
HETATM   16  C   UNL     1     -40.001 -49.764  12.364  1.00  0.00     0.134 C 
HETATM   17  C   UNL     1     -38.971 -48.815  11.788  1.00  0.00     0.029 C 
HETATM   18  C   UNL     1     -37.630 -49.443  12.109  1.00  0.00     0.105 C 
HETATM   19  C   UNL     1     -37.936 -50.895  12.369  1.00  0.00     0.225 C 
HETATM   20  O   UNL     1     -37.062 -51.747  12.411  1.00  0.00    -0.273 OA
ENDBRANCH   4  15
TORSDOF 5
ENDMDL
MODEL 8
REMARK VINA RESULT:      -4.8      3.182      3.581
REMARK  5 active torsions:
REMARK  status: ('A' for Active; 'I' for Inactive)
REMARK    1  A    between atoms: C_2  and  C_3 
REMARK    2  A    between atoms: C_3  and  N_4 
REMARK       I    between atoms: N_4  and  C_5 
REMARK    3  A    between atoms: C_5  and  C_7 
REMARK    4  A    between atoms: C_7  and  C_8 
REMARK    5  A    between atoms: C_11  and  N_14 
ROOT
HETATM    1  C   UNL     1     -40.130 -48.763  11.909  1.00  0.00     0.026 A 
HETATM    2  C   UNL     1     -38.960 -48.454  12.575  1.00  0.00     0.078 A 
HETATM    3  S   UNL     1     -38.395 -49.823  13.429  1.00  0.00    -0.064 SA
HETATM    4  C   UNL     1     -39.710 -50.742  12.841  1.00  0.00     0.153 A 
HETATM    5  N   UNL     1     -40.590 -50.062  12.131  1.00  0.00    -0.339 N 
ATOM      6  HN  UNL     1     -41.478 -50.432  11.793  1.00  0.00     0.168 HD
ENDROOT
BRANCH   1   7
HETATM    7  C   UNL     1     -40.890 -47.869  10.981  1.00  0.00     0.160 C 
BRANCH   7   8
HETATM    8  C   UNL     1     -42.394 -47.904  11.174  1.00  0.00     0.223 C 
HETATM    9  N   UNL     1     -43.147 -47.602  10.063  1.00  0.00    -0.361 N 
HETATM   10  H   UNL     1     -42.649 -47.376   9.203  1.00  0.00     0.162 HD
HETATM   11  O   UNL     1     -42.889 -48.123  12.277  1.00  0.00    -0.273 OA
BRANCH   9  12
HETATM   12  C   UNL     1     -44.589 -47.522  10.081  1.00  0.00     0.122 C 
BRANCH  12  13
HETATM   13  C   UNL     1     -45.201 -47.786   8.706  1.00  0.00     0.015 C 
HETATM   14  C   UNL     1     -46.688 -48.105   8.777  1.00  0.00     0.006 C 
ENDBRANCH  12  13
ENDBRANCH   9  12
ENDBRANCH   7   8
ENDBRANCH   1   7
BRANCH   4  15
HETATM   15  N   UNL     1     -39.819 -52.105  13.063  1.00  0.00    -0.298 N 
HETATM   16  C   UNL     1     -39.004 -52.805  14.024  1.00  0.00     0.134 C 
HETATM   17  C   UNL     1     -39.646 -54.164  14.210  1.00  0.00     0.029 C 
HETATM   18  C   UNL     1     -41.024 -54.038  13.594  1.00  0.00     0.105 C 
HETATM   19  C   UNL     1     -40.926 -52.855  12.666  1.00  0.00     0.225 C 
HETATM   20  O   UNL     1     -41.774 -52.619  11.820  1.00  0.00    -0.273 OA
ENDBRANCH   4  15
TORSDOF 5
ENDMDL
MODEL 9
REMARK VINA RESULT:      -4.6      3.806      4.813
REMARK  5 active torsions:
REMARK  status: ('A' for Active; 'I' for Inactive)
REMARK    1  A    between atoms: C_2  and  C_3 
REMARK    2  A    between atoms: C_3  and  N_4 
REMARK       I    between atoms: N_4  and  C_5 
REMARK    3  A    between atoms: C_5  and  C_7 
REMARK    4  A    between atoms: C_7  and  C_8 
REMARK    5  A    between atoms: C_11  and  N_14 
ROOT
HETATM    1  C   UNL     1     -42.999 -52.968  13.362  1.00  0.00     0.026 A 
HETATM    2  C   UNL     1     -43.867 -53.805  12.690  1.00  0.00     0.078 A 
HETATM    3  S   UNL     1     -45.449 -53.628  13.313  1.00  0.00    -0.064 SA
HETATM    4  C   UNL     1     -44.894 -52.437  14.404  1.00  0.00     0.153 A 
HETATM    5  N   UNL     1     -43.589 -52.240  14.396  1.00  0.00    -0.339 N 
ATOM      6  HN  UNL     1     -43.085 -51.641  15.051  1.00  0.00     0.168 HD
ENDROOT
BRANCH   1   7
HETATM    7  C   UNL     1     -41.548 -52.758  13.059  1.00  0.00     0.160 C 
BRANCH   7   8
HETATM    8  C   UNL     1     -41.176 -51.319  12.759  1.00  0.00     0.223 C 
HETATM    9  N   UNL     1     -40.352 -51.128  11.673  1.00  0.00    -0.361 N 
HETATM   10  H   UNL     1     -40.054 -51.954  11.157  1.00  0.00     0.162 HD
HETATM   11  O   UNL     1     -41.539 -50.401  13.492  1.00  0.00    -0.273 OA
BRANCH   9  12
HETATM   12  C   UNL     1     -39.844 -49.834  11.282  1.00  0.00     0.122 C 
BRANCH  12  13
HETATM   13  C   UNL     1     -38.493 -49.523  11.926  1.00  0.00     0.015 C 
HETATM   14  C   UNL     1     -37.317 -49.970  11.070  1.00  0.00     0.006 C 
ENDBRANCH  12  13
ENDBRANCH   9  12
ENDBRANCH   7   8
ENDBRANCH   1   7
BRANCH   4  15
HETATM   15  N   UNL     1     -45.756 -51.708  15.207  1.00  0.00    -0.298 N 
HETATM   16  C   UNL     1     -47.132 -52.087  15.415  1.00  0.00     0.134 C 
HETATM   17  C   UNL     1     -47.621 -51.263  16.588  1.00  0.00     0.029 C 
HETATM   18  C   UNL     1     -46.368 -50.699  17.226  1.00  0.00     0.105 C 
HETATM   19  C   UNL     1     -45.317 -50.779  16.150  1.00  0.00     0.225 C 
HETATM   20  O   UNL     1     -44.255 -50.183  16.232  1.00  0.00    -0.273 OA
ENDBRANCH   4  15
TORSDOF 5
ENDMDL
