MODEL 1
REMARK VINA RESULT:      -6.3      0.000      0.000
REMARK  4 active torsions:
REMARK  status: ('A' for Active; 'I' for Inactive)
REMARK    1  A    between atoms: C_7  and  N_8 
REMARK       I    between atoms: N_8  and  C_9 
REMARK       I    between atoms: C_9  and  N_11 
REMARK    2  A    between atoms: N_11  and  C_12 
REMARK    3  A    between atoms: C_12  and  C_13 
REMARK    4  A    between atoms: C_13  and  C_17 
ROOT
HETATM    1  N   UNL     1     -40.387 -51.122  11.684  1.00  0.00    -0.290 N 
HETATM    2  C   UNL     1     -41.141 -52.231  11.995  1.00  0.00     0.321 C 
HETATM    3  O   UNL     1     -40.617 -53.336  12.091  1.00  0.00    -0.247 OA
HETATM    4  N   UNL     1     -42.479 -52.003  12.093  1.00  0.00    -0.342 N 
HETATM    5  H   UNL     1     -39.422 -51.334  11.457  1.00  0.00     0.172 HD
HETATM    6  H   UNL     1     -42.754 -51.026  12.153  1.00  0.00     0.164 HD
ENDROOT
BRANCH   1   7
HETATM    7  C   UNL     1     -40.779 -49.800  11.546  1.00  0.00     0.178 A 
HETATM    8  N   UNL     1     -41.184 -49.305  10.411  1.00  0.00    -0.346 N 
HETATM    9  C   UNL     1     -41.582 -47.993  10.429  1.00  0.00     0.107 A 
ATOM     10  HN  UNL     1     -41.203 -49.862   9.557  1.00  0.00     0.167 HD
HETATM   11  C   UNL     1     -41.587 -47.210  11.513  1.00  0.00     0.111 A 
HETATM   12  N   UNL     1     -41.159 -47.685  12.733  1.00  0.00    -0.325 N 
HETATM   13  C   UNL     1     -41.126 -46.833  13.899  1.00  0.00     0.159 C 
HETATM   14  C   UNL     1     -40.692 -48.989  12.846  1.00  0.00     0.291 A 
HETATM   15  O   UNL     1     -40.214 -49.514  13.839  1.00  0.00    -0.264 OA
ENDBRANCH   1   7
BRANCH   4  16
HETATM   16  C   UNL     1     -43.501 -53.018  12.146  1.00  0.00     0.134 C 
BRANCH  16  17
HETATM   17  C   UNL     1     -44.292 -52.943  13.488  1.00  0.00    -0.021 C 
HETATM   18  C   UNL     1     -43.376 -53.043  14.766  1.00  0.00     0.011 C 
HETATM   19  C   UNL     1     -44.400 -54.002  15.396  1.00  0.00     0.002 C 
HETATM   20  C   UNL     1     -44.935 -54.301  13.989  1.00  0.00     0.011 C 
BRANCH  17  21
HETATM   21  C   UNL     1     -45.199 -51.684  13.440  1.00  0.00    -0.004 A 
HETATM   22  C   UNL     1     -46.476 -51.471  14.211  1.00  0.00     0.006 A 
HETATM   23  C   UNL     1     -46.520 -51.613  12.717  1.00  0.00     0.006 A 
ENDBRANCH  17  21
ENDBRANCH  16  17
ENDBRANCH   4  16
TORSDOF 4
ENDMDL
MODEL 2
REMARK VINA RESULT:      -6.3      0.629      2.030
REMARK  4 active torsions:
REMARK  status: ('A' for Active; 'I' for Inactive)
REMARK    1  A    between atoms: C_7  and  N_8 
REMARK       I    between atoms: N_8  and  C_9 
REMARK       I    between atoms: C_9  and  N_11 
REMARK    2  A    between atoms: N_11  and  C_12 
REMARK    3  A    between atoms: C_12  and  C_13 
REMARK    4  A    between atoms: C_13  and  C_17 
ROOT
HETATM    1  N   UNL     1     -40.342 -50.904  11.637  1.00  0.00    -0.290 N 
HETATM    2  C   UNL     1     -41.065 -52.027  11.969  1.00  0.00     0.321 C 
HETATM    3  O   UNL     1     -40.513 -53.116  12.084  1.00  0.00    -0.247 OA
HETATM    4  N   UNL     1     -42.409 -51.833  12.064  1.00  0.00    -0.342 N 
HETATM    5  H   UNL     1     -39.371 -51.095  11.413  1.00  0.00     0.172 HD
HETATM    6  H   UNL     1     -42.710 -50.863  12.107  1.00  0.00     0.164 HD
ENDROOT
BRANCH   1   7
HETATM    7  C   UNL     1     -40.768 -49.596  11.476  1.00  0.00     0.178 A 
HETATM    8  N   UNL     1     -41.253 -49.151  10.351  1.00  0.00    -0.346 N 
HETATM    9  C   UNL     1     -41.676 -47.847  10.347  1.00  0.00     0.107 A 
ATOM     10  HN  UNL     1     -41.313 -49.740   9.521  1.00  0.00     0.167 HD
HETATM   11  C   UNL     1     -41.630 -47.024  11.399  1.00  0.00     0.111 A 
HETATM   12  N   UNL     1     -41.118 -47.445  12.607  1.00  0.00    -0.325 N 
HETATM   13  C   UNL     1     -41.030 -46.549  13.737  1.00  0.00     0.159 C 
HETATM   14  C   UNL     1     -40.617 -48.734  12.737  1.00  0.00     0.291 A 
HETATM   15  O   UNL     1     -40.068 -49.213  13.717  1.00  0.00    -0.264 OA
ENDBRANCH   1   7
BRANCH   4  16
HETATM   16  C   UNL     1     -43.403 -52.874  12.136  1.00  0.00     0.134 C 
BRANCH  16  17
HETATM   17  C   UNL     1     -44.404 -52.608  13.303  1.00  0.00    -0.021 C 
HETATM   18  C   UNL     1     -45.916 -52.716  12.873  1.00  0.00     0.011 C 
HETATM   19  C   UNL     1     -46.213 -51.444  13.686  1.00  0.00     0.002 C 
HETATM   20  C   UNL     1     -44.722 -51.087  13.607  1.00  0.00     0.011 C 
BRANCH  17  21
HETATM   21  C   UNL     1     -44.004 -53.518  14.495  1.00  0.00    -0.004 A 
HETATM   22  C   UNL     1     -42.880 -54.521  14.518  1.00  0.00     0.006 A 
HETATM   23  C   UNL     1     -44.303 -54.994  14.577  1.00  0.00     0.006 A 
ENDBRANCH  17  21
ENDBRANCH  16  17
ENDBRANCH   4  16
TORSDOF 4
ENDMDL
MODEL 3
REMARK VINA RESULT:      -6.1      1.981      3.098
REMARK  4 active torsions:
REMARK  status: ('A' for Active; 'I' for Inactive)
REMARK    1  A    between atoms: C_7  and  N_8 
REMARK       I    between atoms: N_8  and  C_9 
REMARK       I    between atoms: C_9  and  N_11 
REMARK    2  A    between atoms: N_11  and  C_12 
REMARK    3  A    between atoms: C_12  and  C_13 
REMARK    4  A    between atoms: C_13  and  C_17 
ROOT
HETATM    1  N   UNL     1     -42.557 -52.531  11.783  1.00  0.00    -0.290 N 
HETATM    2  C   UNL     1     -43.352 -53.133  12.733  1.00  0.00     0.321 C 
HETATM    3  O   UNL     1     -44.149 -54.010  12.418  1.00  0.00    -0.247 OA
HETATM    4  N   UNL     1     -43.235 -52.615  13.986  1.00  0.00    -0.342 N 
HETATM    5  H   UNL     1     -42.771 -52.814  10.833  1.00  0.00     0.172 HD
HETATM    6  H   UNL     1     -42.430 -52.012  14.138  1.00  0.00     0.164 HD
ENDROOT
BRANCH   1   7
HETATM    7  C   UNL     1     -41.597 -51.544  11.934  1.00  0.00     0.178 A 
HETATM    8  N   UNL     1     -41.802 -50.308  11.580  1.00  0.00    -0.346 N 
HETATM    9  C   UNL     1     -40.780 -49.428  11.825  1.00  0.00     0.107 A 
ATOM     10  HN  UNL     1     -42.676 -50.010  11.144  1.00  0.00     0.167 HD
HETATM   11  C   UNL     1     -39.615 -49.750  12.397  1.00  0.00     0.111 A 
HETATM   12  N   UNL     1     -39.347 -51.046  12.780  1.00  0.00    -0.325 N 
HETATM   13  C   UNL     1     -38.076 -51.407  13.363  1.00  0.00     0.159 C 
HETATM   14  C   UNL     1     -40.284 -52.045  12.552  1.00  0.00     0.291 A 
HETATM   15  O   UNL     1     -40.151 -53.240  12.767  1.00  0.00    -0.264 OA
ENDBRANCH   1   7
BRANCH   4  16
HETATM   16  C   UNL     1     -44.125 -52.877  15.089  1.00  0.00     0.134 C 
BRANCH  16  17
HETATM   17  C   UNL     1     -44.832 -51.568  15.557  1.00  0.00    -0.021 C 
HETATM   18  C   UNL     1     -44.022 -50.259  15.223  1.00  0.00     0.011 C 
HETATM   19  C   UNL     1     -44.345 -49.728  16.630  1.00  0.00     0.002 C 
HETATM   20  C   UNL     1     -44.616 -51.172  17.075  1.00  0.00     0.011 C 
BRANCH  17  21
HETATM   21  C   UNL     1     -46.285 -51.586  15.012  1.00  0.00    -0.004 A 
HETATM   22  C   UNL     1     -46.968 -52.737  14.319  1.00  0.00     0.006 A 
HETATM   23  C   UNL     1     -46.648 -51.488  13.551  1.00  0.00     0.006 A 
ENDBRANCH  17  21
ENDBRANCH  16  17
ENDBRANCH   4  16
TORSDOF 4
ENDMDL
MODEL 4
REMARK VINA RESULT:      -6.1      1.336      1.639
REMARK  4 active torsions:
REMARK  status: ('A' for Active; 'I' for Inactive)
REMARK    1  A    between atoms: C_7  and  N_8 
REMARK       I    between atoms: N_8  and  C_9 
REMARK       I    between atoms: C_9  and  N_11 
REMARK    2  A    between atoms: N_11  and  C_12 
REMARK    3  A    between atoms: C_12  and  C_13 
REMARK    4  A    between atoms: C_13  and  C_17 
ROOT
HETATM    1  N   UNL     1     -40.447 -50.622  11.211  1.00  0.00    -0.290 N 
HETATM    2  C   UNL     1     -41.124 -51.617  11.881  1.00  0.00     0.321 C 
HETATM    3  O   UNL     1     -40.667 -52.753  11.940  1.00  0.00    -0.247 OA
HETATM    4  N   UNL     1     -42.340 -51.250  12.369  1.00  0.00    -0.342 N 
HETATM    5  H   UNL     1     -39.624 -50.949  10.717  1.00  0.00     0.172 HD
HETATM    6  H   UNL     1     -42.520 -50.249  12.393  1.00  0.00     0.164 HD
ENDROOT
BRANCH   1   7
HETATM    7  C   UNL     1     -40.780 -49.288  11.042  1.00  0.00     0.178 A 
HETATM    8  N   UNL     1     -41.666 -48.892  10.174  1.00  0.00    -0.346 N 
HETATM    9  C   UNL     1     -41.928 -47.547  10.144  1.00  0.00     0.107 A 
ATOM     10  HN  UNL     1     -42.139 -49.547   9.551  1.00  0.00     0.167 HD
HETATM   11  C   UNL     1     -41.350 -46.637  10.936  1.00  0.00     0.111 A 
HETATM   12  N   UNL     1     -40.400 -47.005  11.863  1.00  0.00    -0.325 N 
HETATM   13  C   UNL     1     -39.744 -46.023  12.694  1.00  0.00     0.159 C 
HETATM   14  C   UNL     1     -40.013 -48.336  11.970  1.00  0.00     0.291 A 
HETATM   15  O   UNL     1     -39.135 -48.789  12.687  1.00  0.00    -0.264 OA
ENDBRANCH   1   7
BRANCH   4  16
HETATM   16  C   UNL     1     -43.349 -52.150  12.870  1.00  0.00     0.134 C 
BRANCH  16  17
HETATM   17  C   UNL     1     -44.166 -51.486  14.020  1.00  0.00    -0.021 C 
HETATM   18  C   UNL     1     -43.658 -50.045  14.404  1.00  0.00     0.011 C 
HETATM   19  C   UNL     1     -43.803 -50.415  15.890  1.00  0.00     0.002 C 
HETATM   20  C   UNL     1     -43.746 -51.896  15.491  1.00  0.00     0.011 C 
BRANCH  17  21
HETATM   21  C   UNL     1     -45.670 -51.562  13.647  1.00  0.00    -0.004 A 
HETATM   22  C   UNL     1     -46.836 -51.343  14.575  1.00  0.00     0.006 A 
HETATM   23  C   UNL     1     -46.581 -52.709  14.008  1.00  0.00     0.006 A 
ENDBRANCH  17  21
ENDBRANCH  16  17
ENDBRANCH   4  16
TORSDOF 4
ENDMDL
MODEL 5
REMARK VINA RESULT:      -5.9      3.924      6.509
REMARK  4 active torsions:
REMARK  status: ('A' for Active; 'I' for Inactive)
REMARK    1  A    between atoms: C_7  and  N_8 
REMARK       I    between atoms: N_8  and  C_9 
REMARK       I    between atoms: C_9  and  N_11 
REMARK    2  A    between atoms: N_11  and  C_12 
REMARK    3  A    between atoms: C_12  and  C_13 
REMARK    4  A    between atoms: C_13  and  C_17 
ROOT
HETATM    1  N   UNL     1     -40.842 -49.573  10.722  1.00  0.00    -0.290 N 
HETATM    2  C   UNL     1     -41.325 -48.296  10.540  1.00  0.00     0.321 C 
HETATM    3  O   UNL     1     -42.410 -48.109   9.999  1.00  0.00    -0.247 OA
HETATM    4  N   UNL     1     -40.474 -47.305  10.921  1.00  0.00    -0.342 N 
HETATM    5  H   UNL     1     -41.413 -50.291  10.289  1.00  0.00     0.172 HD
HETATM    6  H   UNL     1     -39.689 -47.598  11.498  1.00  0.00     0.164 HD
ENDROOT
BRANCH   1   7
HETATM    7  C   UNL     1     -39.663 -49.994  11.315  1.00  0.00     0.178 A 
HETATM    8  N   UNL     1     -38.506 -49.880  10.730  1.00  0.00    -0.346 N 
HETATM    9  C   UNL     1     -37.418 -50.299  11.451  1.00  0.00     0.107 A 
ATOM     10  HN  UNL     1     -38.414 -49.500   9.788  1.00  0.00     0.167 HD
HETATM   11  C   UNL     1     -37.467 -50.799  12.690  1.00  0.00     0.111 A 
HETATM   12  N   UNL     1     -38.669 -50.949  13.347  1.00  0.00    -0.325 N 
HETATM   13  C   UNL     1     -38.734 -51.524  14.670  1.00  0.00     0.159 C 
HETATM   14  C   UNL     1     -39.855 -50.599  12.713  1.00  0.00     0.291 A 
HETATM   15  O   UNL     1     -40.988 -50.748  13.142  1.00  0.00    -0.264 OA
ENDBRANCH   1   7
BRANCH   4  16
HETATM   16  C   UNL     1     -40.619 -45.907  10.602  1.00  0.00     0.134 C 
BRANCH  16  17
HETATM   17  C   UNL     1     -40.752 -45.051  11.899  1.00  0.00    -0.021 C 
HETATM   18  C   UNL     1     -40.134 -43.607  11.768  1.00  0.00     0.011 C 
HETATM   19  C   UNL     1     -39.508 -43.775  13.163  1.00  0.00     0.002 C 
HETATM   20  C   UNL     1     -39.645 -45.295  13.005  1.00  0.00     0.011 C 
BRANCH  17  21
HETATM   21  C   UNL     1     -42.239 -45.079  12.342  1.00  0.00    -0.004 A 
HETATM   22  C   UNL     1     -42.780 -44.682  13.692  1.00  0.00     0.006 A 
HETATM   23  C   UNL     1     -42.836 -46.119  13.258  1.00  0.00     0.006 A 
ENDBRANCH  17  21
ENDBRANCH  16  17
ENDBRANCH   4  16
TORSDOF 4
ENDMDL
MODEL 6
REMARK VINA RESULT:      -5.8      2.784      4.002
REMARK  4 active torsions:
REMARK  status: ('A' for Active; 'I' for Inactive)
REMARK    1  A    between atoms: C_7  and  N_8 
REMARK       I    between atoms: N_8  and  C_9 
REMARK       I    between atoms: C_9  and  N_11 
REMARK    2  A    between atoms: N_11  and  C_12 
REMARK    3  A    between atoms: C_12  and  C_13 
REMARK    4  A    between atoms: C_13  and  C_17 
ROOT
HETATM    1  N   UNL     1     -42.148 -54.485  13.803  1.00  0.00    -0.290 N 
HETATM    2  C   UNL     1     -43.168 -54.498  14.729  1.00  0.00     0.321 C 
HETATM    3  O   UNL     1     -43.628 -55.560  15.137  1.00  0.00    -0.247 OA
HETATM    4  N   UNL     1     -43.653 -53.272  15.061  1.00  0.00    -0.342 N 
HETATM    5  H   UNL     1     -41.908 -55.403  13.447  1.00  0.00     0.172 HD
HETATM    6  H   UNL     1     -43.079 -52.481  14.779  1.00  0.00     0.164 HD
ENDROOT
BRANCH   1   7
HETATM    7  C   UNL     1     -41.488 -53.408  13.234  1.00  0.00     0.178 A 
HETATM    8  N   UNL     1     -41.950 -52.774  12.194  1.00  0.00    -0.346 N 
HETATM    9  C   UNL     1     -41.216 -51.700  11.763  1.00  0.00     0.107 A 
ATOM     10  HN  UNL     1     -42.810 -53.061  11.727  1.00  0.00     0.167 HD
HETATM   11  C   UNL     1     -40.085 -51.268  12.331  1.00  0.00     0.111 A 
HETATM   12  N   UNL     1     -39.552 -51.911  13.427  1.00  0.00    -0.325 N 
HETATM   13  C   UNL     1     -38.311 -51.473  14.022  1.00  0.00     0.159 C 
HETATM   14  C   UNL     1     -40.177 -53.039  13.942  1.00  0.00     0.291 A 
HETATM   15  O   UNL     1     -39.778 -53.748  14.853  1.00  0.00    -0.264 OA
ENDBRANCH   1   7
BRANCH   4  16
HETATM   16  C   UNL     1     -44.871 -53.021  15.790  1.00  0.00     0.134 C 
BRANCH  16  17
HETATM   17  C   UNL     1     -45.770 -51.992  15.037  1.00  0.00    -0.021 C 
HETATM   18  C   UNL     1     -46.796 -52.660  14.045  1.00  0.00     0.011 C 
HETATM   19  C   UNL     1     -46.451 -51.583  13.002  1.00  0.00     0.002 C 
HETATM   20  C   UNL     1     -45.132 -51.333  13.746  1.00  0.00     0.011 C 
BRANCH  17  21
HETATM   21  C   UNL     1     -46.410 -51.051  16.092  1.00  0.00    -0.004 A 
HETATM   22  C   UNL     1     -46.625 -51.357  17.552  1.00  0.00     0.006 A 
HETATM   23  C   UNL     1     -47.807 -51.208  16.638  1.00  0.00     0.006 A 
ENDBRANCH  17  21
ENDBRANCH  16  17
ENDBRANCH   4  16
TORSDOF 4
ENDMDL
MODEL 7
REMARK VINA RESULT:      -5.6      2.363      6.363
REMARK  4 active torsions:
REMARK  status: ('A' for Active; 'I' for Inactive)
REMARK    1  A    between atoms: C_7  and  N_8 
REMARK       I    between atoms: N_8  and  C_9 
REMARK       I    between atoms: C_9  and  N_11 
REMARK    2  A    between atoms: N_11  and  C_12 
REMARK    3  A    between atoms: C_12  and  C_13 
REMARK    4  A    between atoms: C_13  and  C_17 
ROOT
HETATM    1  N   UNL     1     -41.203 -54.098  13.521  1.00  0.00    -0.290 N 
HETATM    2  C   UNL     1     -40.174 -53.185  13.570  1.00  0.00     0.321 C 
HETATM    3  O   UNL     1     -39.007 -53.559  13.610  1.00  0.00    -0.247 OA
HETATM    4  N   UNL     1     -40.568 -51.886  13.656  1.00  0.00    -0.342 N 
HETATM    5  H   UNL     1     -40.900 -55.061  13.620  1.00  0.00     0.172 HD
HETATM    6  H   UNL     1     -41.549 -51.709  13.448  1.00  0.00     0.164 HD
ENDROOT
BRANCH   1   7
HETATM    7  C   UNL     1     -42.571 -53.884  13.457  1.00  0.00     0.178 A 
HETATM    8  N   UNL     1     -43.183 -53.603  12.342  1.00  0.00    -0.346 N 
HETATM    9  C   UNL     1     -44.544 -53.458  12.417  1.00  0.00     0.107 A 
ATOM     10  HN  UNL     1     -42.678 -53.497  11.462  1.00  0.00     0.167 HD
HETATM   11  C   UNL     1     -45.267 -53.591  13.534  1.00  0.00     0.111 A 
HETATM   12  N   UNL     1     -44.664 -53.877  14.739  1.00  0.00    -0.325 N 
HETATM   13  C   UNL     1     -45.434 -53.983  15.956  1.00  0.00     0.159 C 
HETATM   14  C   UNL     1     -43.283 -54.011  14.810  1.00  0.00     0.291 A 
HETATM   15  O   UNL     1     -42.613 -54.187  15.816  1.00  0.00    -0.264 OA
ENDBRANCH   1   7
BRANCH   4  16
HETATM   16  C   UNL     1     -39.715 -50.770  13.980  1.00  0.00     0.134 C 
BRANCH  16  17
HETATM   17  C   UNL     1     -39.499 -49.854  12.736  1.00  0.00    -0.021 C 
HETATM   18  C   UNL     1     -40.189 -48.443  12.864  1.00  0.00     0.011 C 
HETATM   19  C   UNL     1     -40.674 -48.575  11.411  1.00  0.00     0.002 C 
HETATM   20  C   UNL     1     -40.486 -50.094  11.521  1.00  0.00     0.011 C 
BRANCH  17  21
HETATM   21  C   UNL     1     -37.977 -49.804  12.436  1.00  0.00    -0.004 A 
HETATM   22  C   UNL     1     -37.327 -49.923  11.082  1.00  0.00     0.006 A 
HETATM   23  C   UNL     1     -37.135 -51.009  12.100  1.00  0.00     0.006 A 
ENDBRANCH  17  21
ENDBRANCH  16  17
ENDBRANCH   4  16
TORSDOF 4
ENDMDL
MODEL 8
REMARK VINA RESULT:      -5.6      2.497      4.088
REMARK  4 active torsions:
REMARK  status: ('A' for Active; 'I' for Inactive)
REMARK    1  A    between atoms: C_7  and  N_8 
REMARK       I    between atoms: N_8  and  C_9 
REMARK       I    between atoms: C_9  and  N_11 
REMARK    2  A    between atoms: N_11  and  C_12 
REMARK    3  A    between atoms: C_12  and  C_13 
REMARK    4  A    between atoms: C_13  and  C_17 
ROOT
HETATM    1  N   UNL     1     -42.719 -53.756  12.423  1.00  0.00    -0.290 N 
HETATM    2  C   UNL     1     -43.903 -54.045  13.065  1.00  0.00     0.321 C 
HETATM    3  O   UNL     1     -44.898 -54.369  12.425  1.00  0.00    -0.247 OA
HETATM    4  N   UNL     1     -43.883 -53.854  14.411  1.00  0.00    -0.342 N 
HETATM    5  H   UNL     1     -42.794 -53.747  11.411  1.00  0.00     0.172 HD
HETATM    6  H   UNL     1     -42.960 -53.746  14.826  1.00  0.00     0.164 HD
ENDROOT
BRANCH   1   7
HETATM    7  C   UNL     1     -41.493 -53.391  12.956  1.00  0.00     0.178 A 
HETATM    8  N   UNL     1     -40.742 -54.223  13.619  1.00  0.00    -0.346 N 
HETATM    9  C   UNL     1     -39.536 -53.738  14.052  1.00  0.00     0.107 A 
ATOM     10  HN  UNL     1     -41.036 -55.182  13.805  1.00  0.00     0.167 HD
HETATM   11  C   UNL     1     -39.088 -52.496  13.837  1.00  0.00     0.111 A 
HETATM   12  N   UNL     1     -39.850 -51.577  13.150  1.00  0.00    -0.325 N 
HETATM   13  C   UNL     1     -39.389 -50.224  12.947  1.00  0.00     0.159 C 
HETATM   14  C   UNL     1     -41.113 -51.928  12.688  1.00  0.00     0.291 A 
HETATM   15  O   UNL     1     -41.921 -51.198  12.137  1.00  0.00    -0.264 OA
ENDBRANCH   1   7
BRANCH   4  16
HETATM   16  C   UNL     1     -45.038 -53.828  15.272  1.00  0.00     0.134 C 
BRANCH  16  17
HETATM   17  C   UNL     1     -45.514 -52.364  15.522  1.00  0.00    -0.021 C 
HETATM   18  C   UNL     1     -46.553 -52.231  16.699  1.00  0.00     0.011 C 
HETATM   19  C   UNL     1     -47.380 -51.270  15.828  1.00  0.00     0.002 C 
HETATM   20  C   UNL     1     -46.685 -51.849  14.589  1.00  0.00     0.011 C 
BRANCH  17  21
HETATM   21  C   UNL     1     -44.254 -51.469  15.669  1.00  0.00    -0.004 A 
HETATM   22  C   UNL     1     -44.205 -50.081  16.253  1.00  0.00     0.006 A 
HETATM   23  C   UNL     1     -43.945 -50.284  14.788  1.00  0.00     0.006 A 
ENDBRANCH  17  21
ENDBRANCH  16  17
ENDBRANCH   4  16
TORSDOF 4
ENDMDL
MODEL 9
REMARK VINA RESULT:      -5.3      3.251      5.649
REMARK  4 active torsions:
REMARK  status: ('A' for Active; 'I' for Inactive)
REMARK    1  A    between atoms: C_7  and  N_8 
REMARK       I    between atoms: N_8  and  C_9 
REMARK       I    between atoms: C_9  and  N_11 
REMARK    2  A    between atoms: N_11  and  C_12 
REMARK    3  A    between atoms: C_12  and  C_13 
REMARK    4  A    between atoms: C_13  and  C_17 
ROOT
HETATM    1  N   UNL     1     -43.295 -52.792  12.035  1.00  0.00    -0.290 N 
HETATM    2  C   UNL     1     -41.950 -52.675  12.309  1.00  0.00     0.321 C 
HETATM    3  O   UNL     1     -41.174 -52.252  11.458  1.00  0.00    -0.247 OA
HETATM    4  N   UNL     1     -41.574 -53.139  13.531  1.00  0.00    -0.342 N 
HETATM    5  H   UNL     1     -43.534 -52.594  11.070  1.00  0.00     0.172 HD
HETATM    6  H   UNL     1     -42.331 -53.306  14.189  1.00  0.00     0.164 HD
ENDROOT
BRANCH   1   7
HETATM    7  C   UNL     1     -44.326 -53.227  12.852  1.00  0.00     0.178 A 
HETATM    8  N   UNL     1     -44.587 -54.490  13.037  1.00  0.00    -0.346 N 
HETATM    9  C   UNL     1     -45.609 -54.777  13.905  1.00  0.00     0.107 A 
ATOM     10  HN  UNL     1     -44.061 -55.224  12.563  1.00  0.00     0.167 HD
HETATM   11  C   UNL     1     -46.333 -53.866  14.563  1.00  0.00     0.111 A 
HETATM   12  N   UNL     1     -46.101 -52.518  14.393  1.00  0.00    -0.325 N 
HETATM   13  C   UNL     1     -46.904 -51.528  15.071  1.00  0.00     0.159 C 
HETATM   14  C   UNL     1     -45.118 -52.089  13.510  1.00  0.00     0.291 A 
HETATM   15  O   UNL     1     -44.858 -50.935  13.205  1.00  0.00    -0.264 OA
ENDBRANCH   1   7
BRANCH   4  16
HETATM   16  C   UNL     1     -40.217 -53.373  13.958  1.00  0.00     0.134 C 
BRANCH  16  17
HETATM   17  C   UNL     1     -40.184 -54.059  15.358  1.00  0.00    -0.021 C 
HETATM   18  C   UNL     1     -39.334 -53.272  16.426  1.00  0.00     0.011 C 
HETATM   19  C   UNL     1     -38.724 -54.606  16.888  1.00  0.00     0.002 C 
HETATM   20  C   UNL     1     -39.117 -55.216  15.536  1.00  0.00     0.011 C 
BRANCH  17  21
HETATM   21  C   UNL     1     -41.648 -54.350  15.784  1.00  0.00    -0.004 A 
HETATM   22  C   UNL     1     -42.122 -54.720  17.166  1.00  0.00     0.006 A 
HETATM   23  C   UNL     1     -42.199 -55.727  16.056  1.00  0.00     0.006 A 
ENDBRANCH  17  21
ENDBRANCH  16  17
ENDBRANCH   4  16
TORSDOF 4
ENDMDL
