MODEL 1
REMARK VINA RESULT:      -5.9      0.000      0.000
REMARK  4 active torsions:
REMARK  status: ('A' for Active; 'I' for Inactive)
REMARK    1  A    between atoms: C_5  and  N_9 
REMARK    2  A    between atoms: N_9  and  C_10 
REMARK    3  A    between atoms: C_10  and  C_11 
REMARK    4  A    between atoms: C_11  and  C_12 
ROOT
HETATM    1  C   UNL     1     -41.223 -52.330  11.795  1.00  0.00     0.275 C 
ENDROOT
BRANCH   1   2
HETATM    2  N   UNL     1     -42.624 -52.673  12.066  1.00  0.00     0.088 N 
HETATM    3  H   UNL     1     -43.230 -51.963  11.652  1.00  0.00     0.316 HD
BRANCH   2   4
HETATM    4  C   UNL     1     -42.922 -52.784  13.505  1.00  0.00     0.220 C 
HETATM    5  C   UNL     1     -43.264 -54.220  13.946  1.00  0.00     0.036 C 
HETATM    6  C   UNL     1     -44.551 -54.726  13.297  1.00  0.00     0.007 C 
HETATM    7  C   UNL     1     -45.756 -53.826  13.621  1.00  0.00    -0.015 C 
HETATM    8  C   UNL     1     -46.189 -54.024  15.080  1.00  0.00     0.010 C 
HETATM    9  C   UNL     1     -45.446 -52.354  13.247  1.00  0.00    -0.013 C 
HETATM   10  C   UNL     1     -44.112 -51.863  13.846  1.00  0.00     0.040 C 
HETATM   11  C   UNL     1     -46.585 -51.398  13.616  1.00  0.00     0.010 C 
ENDBRANCH   2   4
ENDBRANCH   1   2
BRANCH   1  12
HETATM   12  C   UNL     1     -40.682 -51.315  12.812  1.00  0.00     0.072 C 
BRANCH  12  13
HETATM   13  C   UNL     1     -40.414 -49.992  12.169  1.00  0.00    -0.009 A 
HETATM   14  C   UNL     1     -39.167 -49.479  11.715  1.00  0.00     0.030 A 
HETATM   15  C   UNL     1     -37.824 -50.111  11.760  1.00  0.00     0.070 C 
HETATM   16  N   UNL     1     -39.295 -48.253  11.201  1.00  0.00    -0.303 N 
HETATM   17  N   UNL     1     -40.604 -47.977  11.314  1.00  0.00    -0.300 N 
ATOM     18  HN  UNL     1     -38.563 -47.659  10.810  1.00  0.00     0.186 HD
HETATM   19  C   UNL     1     -41.099 -46.716  10.808  1.00  0.00     0.177 C 
HETATM   20  C   UNL     1     -41.323 -48.976  11.918  1.00  0.00     0.032 A 
HETATM   21  C   UNL     1     -42.777 -48.899  12.210  1.00  0.00     0.070 C 
ENDBRANCH  12  13
ENDBRANCH   1  12
TORSDOF 4
ENDMDL
MODEL 2
REMARK VINA RESULT:      -5.8      1.918      2.931
REMARK  4 active torsions:
REMARK  status: ('A' for Active; 'I' for Inactive)
REMARK    1  A    between atoms: C_5  and  N_9 
REMARK    2  A    between atoms: N_9  and  C_10 
REMARK    3  A    between atoms: C_10  and  C_11 
REMARK    4  A    between atoms: C_11  and  C_12 
ROOT
HETATM    1  C   UNL     1     -43.069 -49.146  12.795  1.00  0.00     0.275 C 
ENDROOT
BRANCH   1   2
HETATM    2  N   UNL     1     -44.104 -50.181  12.681  1.00  0.00     0.088 N 
HETATM    3  H   UNL     1     -45.014 -49.772  12.897  1.00  0.00     0.316 HD
BRANCH   2   4
HETATM    4  C   UNL     1     -43.868 -51.332  13.571  1.00  0.00     0.220 C 
HETATM    5  C   UNL     1     -44.152 -52.689  12.899  1.00  0.00     0.036 C 
HETATM    6  C   UNL     1     -45.626 -52.846  12.531  1.00  0.00     0.007 C 
HETATM    7  C   UNL     1     -46.547 -52.717  13.757  1.00  0.00    -0.015 C 
HETATM    8  C   UNL     1     -46.437 -53.970  14.637  1.00  0.00     0.010 C 
HETATM    9  C   UNL     1     -46.265 -51.389  14.506  1.00  0.00    -0.013 C 
HETATM   10  C   UNL     1     -44.767 -51.197  14.819  1.00  0.00     0.040 C 
HETATM   11  C   UNL     1     -47.102 -51.241  15.780  1.00  0.00     0.010 C 
ENDBRANCH   2   4
ENDBRANCH   1   2
BRANCH   1  12
HETATM   12  C   UNL     1     -41.990 -49.304  11.716  1.00  0.00     0.072 C 
BRANCH  12  13
HETATM   13  C   UNL     1     -41.624 -47.984  11.115  1.00  0.00    -0.009 A 
HETATM   14  C   UNL     1     -42.330 -47.252  10.120  1.00  0.00     0.030 A 
HETATM   15  C   UNL     1     -43.596 -47.600   9.425  1.00  0.00     0.070 C 
HETATM   16  N   UNL     1     -41.706 -46.112   9.809  1.00  0.00    -0.303 N 
HETATM   17  N   UNL     1     -40.617 -46.102  10.593  1.00  0.00    -0.300 N 
ATOM     18  HN  UNL     1     -41.993 -45.408   9.129  1.00  0.00     0.186 HD
HETATM   19  C   UNL     1     -39.724 -44.967  10.534  1.00  0.00     0.177 C 
HETATM   20  C   UNL     1     -40.499 -47.219  11.380  1.00  0.00     0.032 A 
HETATM   21  C   UNL     1     -39.360 -47.478  12.297  1.00  0.00     0.070 C 
ENDBRANCH  12  13
ENDBRANCH   1  12
TORSDOF 4
ENDMDL
MODEL 3
REMARK VINA RESULT:      -5.5      1.226      2.446
REMARK  4 active torsions:
REMARK  status: ('A' for Active; 'I' for Inactive)
REMARK    1  A    between atoms: C_5  and  N_9 
REMARK    2  A    between atoms: N_9  and  C_10 
REMARK    3  A    between atoms: C_10  and  C_11 
REMARK    4  A    between atoms: C_11  and  C_12 
ROOT
HETATM    1  C   UNL     1     -42.942 -49.393  12.798  1.00  0.00     0.275 C 
ENDROOT
BRANCH   1   2
HETATM    2  N   UNL     1     -42.960 -50.820  12.455  1.00  0.00     0.088 N 
HETATM    3  H   UNL     1     -43.749 -51.007  11.835  1.00  0.00     0.316 HD
BRANCH   2   4
HETATM    4  C   UNL     1     -43.057 -51.695  13.637  1.00  0.00     0.220 C 
HETATM    5  C   UNL     1     -43.052 -53.195  13.285  1.00  0.00     0.036 C 
HETATM    6  C   UNL     1     -44.281 -53.595  12.470  1.00  0.00     0.007 C 
HETATM    7  C   UNL     1     -45.593 -53.280  13.209  1.00  0.00    -0.015 C 
HETATM    8  C   UNL     1     -45.802 -54.270  14.364  1.00  0.00     0.010 C 
HETATM    9  C   UNL     1     -45.629 -51.791  13.637  1.00  0.00    -0.013 C 
HETATM   10  C   UNL     1     -44.357 -51.368  14.401  1.00  0.00     0.040 C 
HETATM   11  C   UNL     1     -46.882 -51.437  14.444  1.00  0.00     0.010 C 
ENDBRANCH   2   4
ENDBRANCH   1   2
BRANCH   1  12
HETATM   12  C   UNL     1     -41.686 -49.019  13.597  1.00  0.00     0.072 C 
BRANCH  12  13
HETATM   13  C   UNL     1     -40.455 -49.113  12.752  1.00  0.00    -0.009 A 
HETATM   14  C   UNL     1     -40.032 -48.225  11.725  1.00  0.00     0.030 A 
HETATM   15  C   UNL     1     -40.691 -46.991  11.226  1.00  0.00     0.070 C 
HETATM   16  N   UNL     1     -38.885 -48.623  11.169  1.00  0.00    -0.303 N 
HETATM   17  N   UNL     1     -38.566 -49.748  11.829  1.00  0.00    -0.300 N 
ATOM     18  HN  UNL     1     -38.367 -48.174  10.414  1.00  0.00     0.186 HD
HETATM   19  C   UNL     1     -37.336 -50.430  11.494  1.00  0.00     0.177 C 
HETATM   20  C   UNL     1     -39.491 -50.109  12.774  1.00  0.00     0.032 A 
HETATM   21  C   UNL     1     -39.402 -51.337  13.604  1.00  0.00     0.070 C 
ENDBRANCH  12  13
ENDBRANCH   1  12
TORSDOF 4
ENDMDL
MODEL 4
REMARK VINA RESULT:      -5.5      1.335      1.872
REMARK  4 active torsions:
REMARK  status: ('A' for Active; 'I' for Inactive)
REMARK    1  A    between atoms: C_5  and  N_9 
REMARK    2  A    between atoms: N_9  and  C_10 
REMARK    3  A    between atoms: C_10  and  C_11 
REMARK    4  A    between atoms: C_11  and  C_12 
ROOT
HETATM    1  C   UNL     1     -42.050 -50.903  12.849  1.00  0.00     0.275 C 
ENDROOT
BRANCH   1   2
HETATM    2  N   UNL     1     -43.430 -51.232  12.474  1.00  0.00     0.088 N 
HETATM    3  H   UNL     1     -44.025 -50.418  12.633  1.00  0.00     0.316 HD
BRANCH   2   4
HETATM    4  C   UNL     1     -43.972 -52.380  13.223  1.00  0.00     0.220 C 
HETATM    5  C   UNL     1     -45.374 -52.808  12.749  1.00  0.00     0.036 C 
HETATM    6  C   UNL     1     -46.418 -51.721  13.000  1.00  0.00     0.007 C 
HETATM    7  C   UNL     1     -46.510 -51.340  14.488  1.00  0.00    -0.015 C 
HETATM    8  C   UNL     1     -47.205 -52.456  15.280  1.00  0.00     0.010 C 
HETATM    9  C   UNL     1     -45.112 -50.951  15.034  1.00  0.00    -0.013 C 
HETATM   10  C   UNL     1     -44.042 -52.017  14.721  1.00  0.00     0.040 C 
HETATM   11  C   UNL     1     -45.130 -50.632  16.532  1.00  0.00     0.010 C 
ENDBRANCH   2   4
ENDBRANCH   1   2
BRANCH   1  12
HETATM   12  C   UNL     1     -41.144 -50.777  11.616  1.00  0.00     0.072 C 
BRANCH  12  13
HETATM   13  C   UNL     1     -40.642 -49.378  11.450  1.00  0.00    -0.009 A 
HETATM   14  C   UNL     1     -39.325 -48.891  11.676  1.00  0.00     0.030 A 
HETATM   15  C   UNL     1     -38.120 -49.629  12.131  1.00  0.00     0.070 C 
HETATM   16  N   UNL     1     -39.236 -47.579  11.437  1.00  0.00    -0.303 N 
HETATM   17  N   UNL     1     -40.473 -47.223  11.057  1.00  0.00    -0.300 N 
ATOM     18  HN  UNL     1     -38.413 -46.983  11.524  1.00  0.00     0.186 HD
HETATM   19  C   UNL     1     -40.720 -45.849  10.682  1.00  0.00     0.177 C 
HETATM   20  C   UNL     1     -41.370 -48.260  11.075  1.00  0.00     0.032 A 
HETATM   21  C   UNL     1     -42.812 -48.122  10.749  1.00  0.00     0.070 C 
ENDBRANCH  12  13
ENDBRANCH   1  12
TORSDOF 4
ENDMDL
MODEL 5
REMARK VINA RESULT:      -5.4      1.917      2.583
REMARK  4 active torsions:
REMARK  status: ('A' for Active; 'I' for Inactive)
REMARK    1  A    between atoms: C_5  and  N_9 
REMARK    2  A    between atoms: N_9  and  C_10 
REMARK    3  A    between atoms: C_10  and  C_11 
REMARK    4  A    between atoms: C_11  and  C_12 
ROOT
HETATM    1  C   UNL     1     -42.057 -49.626  12.834  1.00  0.00     0.275 C 
ENDROOT
BRANCH   1   2
HETATM    2  N   UNL     1     -42.837 -50.821  12.489  1.00  0.00     0.088 N 
HETATM    3  H   UNL     1     -43.769 -50.537  12.181  1.00  0.00     0.316 HD
BRANCH   2   4
HETATM    4  C   UNL     1     -42.967 -51.768  13.611  1.00  0.00     0.220 C 
HETATM    5  C   UNL     1     -43.040 -53.239  13.159  1.00  0.00     0.036 C 
HETATM    6  C   UNL     1     -44.294 -53.522  12.335  1.00  0.00     0.007 C 
HETATM    7  C   UNL     1     -45.582 -53.194  13.110  1.00  0.00    -0.015 C 
HETATM    8  C   UNL     1     -45.829 -54.248  14.199  1.00  0.00     0.010 C 
HETATM    9  C   UNL     1     -45.540 -51.737  13.637  1.00  0.00    -0.013 C 
HETATM   10  C   UNL     1     -44.242 -51.430  14.412  1.00  0.00     0.040 C 
HETATM   11  C   UNL     1     -46.766 -51.378  14.481  1.00  0.00     0.010 C 
ENDBRANCH   2   4
ENDBRANCH   1   2
BRANCH   1  12
HETATM   12  C   UNL     1     -42.906 -48.351  12.741  1.00  0.00     0.072 C 
BRANCH  12  13
HETATM   13  C   UNL     1     -42.643 -47.614  11.466  1.00  0.00    -0.009 A 
HETATM   14  C   UNL     1     -41.461 -46.916  11.089  1.00  0.00     0.030 A 
HETATM   15  C   UNL     1     -40.199 -46.737  11.849  1.00  0.00     0.070 C 
HETATM   16  N   UNL     1     -41.580 -46.363   9.879  1.00  0.00    -0.303 N 
HETATM   17  N   UNL     1     -42.815 -46.700   9.475  1.00  0.00    -0.300 N 
ATOM     18  HN  UNL     1     -40.888 -45.809   9.374  1.00  0.00     0.186 HD
HETATM   19  C   UNL     1     -43.260 -46.285   8.164  1.00  0.00     0.177 C 
HETATM   20  C   UNL     1     -43.514 -47.429  10.403  1.00  0.00     0.032 A 
HETATM   21  C   UNL     1     -44.916 -47.881  10.226  1.00  0.00     0.070 C 
ENDBRANCH  12  13
ENDBRANCH   1  12
TORSDOF 4
ENDMDL
MODEL 6
REMARK VINA RESULT:      -5.3      1.810      3.165
REMARK  4 active torsions:
REMARK  status: ('A' for Active; 'I' for Inactive)
REMARK    1  A    between atoms: C_5  and  N_9 
REMARK    2  A    between atoms: N_9  and  C_10 
REMARK    3  A    between atoms: C_10  and  C_11 
REMARK    4  A    between atoms: C_11  and  C_12 
ROOT
HETATM    1  C   UNL     1     -41.904 -50.163  12.145  1.00  0.00     0.275 C 
ENDROOT
BRANCH   1   2
HETATM    2  N   UNL     1     -42.822 -51.281  12.392  1.00  0.00     0.088 N 
HETATM    3  H   UNL     1     -43.734 -51.064  11.988  1.00  0.00     0.316 HD
BRANCH   2   4
HETATM    4  C   UNL     1     -42.988 -51.585  13.824  1.00  0.00     0.220 C 
HETATM    5  C   UNL     1     -41.746 -52.242  14.455  1.00  0.00     0.036 C 
HETATM    6  C   UNL     1     -41.460 -53.617  13.853  1.00  0.00     0.007 C 
HETATM    7  C   UNL     1     -42.648 -54.580  14.018  1.00  0.00    -0.015 C 
HETATM    8  C   UNL     1     -42.764 -55.034  15.480  1.00  0.00     0.010 C 
HETATM    9  C   UNL     1     -43.942 -53.944  13.448  1.00  0.00    -0.013 C 
HETATM   10  C   UNL     1     -44.196 -52.528  14.003  1.00  0.00     0.040 C 
HETATM   11  C   UNL     1     -45.175 -54.830  13.651  1.00  0.00     0.010 C 
ENDBRANCH   2   4
ENDBRANCH   1   2
BRANCH   1  12
HETATM   12  C   UNL     1     -42.570 -48.811  12.433  1.00  0.00     0.072 C 
BRANCH  12  13
HETATM   13  C   UNL     1     -42.024 -47.735  11.549  1.00  0.00    -0.009 A 
HETATM   14  C   UNL     1     -42.617 -47.179  10.382  1.00  0.00     0.030 A 
HETATM   15  C   UNL     1     -43.914 -47.515   9.742  1.00  0.00     0.070 C 
HETATM   16  N   UNL     1     -41.841 -46.241   9.833  1.00  0.00    -0.303 N 
HETATM   17  N   UNL     1     -40.765 -46.185  10.633  1.00  0.00    -0.300 N 
ATOM     18  HN  UNL     1     -42.025 -45.690   8.994  1.00  0.00     0.186 HD
HETATM   19  C   UNL     1     -39.725 -45.225  10.339  1.00  0.00     0.177 C 
HETATM   20  C   UNL     1     -40.806 -47.084  11.667  1.00  0.00     0.032 A 
HETATM   21  C   UNL     1     -39.719 -47.261  12.663  1.00  0.00     0.070 C 
ENDBRANCH  12  13
ENDBRANCH   1  12
TORSDOF 4
ENDMDL
MODEL 7
REMARK VINA RESULT:      -5.3      2.495      4.415
REMARK  4 active torsions:
REMARK  status: ('A' for Active; 'I' for Inactive)
REMARK    1  A    between atoms: C_5  and  N_9 
REMARK    2  A    between atoms: N_9  and  C_10 
REMARK    3  A    between atoms: C_10  and  C_11 
REMARK    4  A    between atoms: C_11  and  C_12 
ROOT
HETATM    1  C   UNL     1     -44.391 -54.292  13.536  1.00  0.00     0.275 C 
ENDROOT
BRANCH   1   2
HETATM    2  N   UNL     1     -44.508 -53.692  14.871  1.00  0.00     0.088 N 
HETATM    3  H   UNL     1     -43.809 -54.107  15.489  1.00  0.00     0.316 HD
BRANCH   2   4
HETATM    4  C   UNL     1     -45.844 -53.868  15.466  1.00  0.00     0.220 C 
HETATM    5  C   UNL     1     -46.945 -53.076  14.735  1.00  0.00     0.036 C 
HETATM    6  C   UNL     1     -46.728 -51.567  14.838  1.00  0.00     0.007 C 
HETATM    7  C   UNL     1     -46.683 -51.087  16.299  1.00  0.00    -0.015 C 
HETATM    8  C   UNL     1     -48.090 -51.119  16.912  1.00  0.00     0.010 C 
HETATM    9  C   UNL     1     -45.626 -51.891  17.100  1.00  0.00    -0.013 C 
HETATM   10  C   UNL     1     -45.803 -53.415  16.941  1.00  0.00     0.040 C 
HETATM   11  C   UNL     1     -45.589 -51.507  18.582  1.00  0.00     0.010 C 
ENDBRANCH   2   4
ENDBRANCH   1   2
BRANCH   1  12
HETATM   12  C   UNL     1     -43.963 -53.258  12.486  1.00  0.00     0.072 C 
BRANCH  12  13
HETATM   13  C   UNL     1     -42.766 -52.484  12.940  1.00  0.00    -0.009 A 
HETATM   14  C   UNL     1     -42.688 -51.097  13.244  1.00  0.00     0.030 A 
HETATM   15  C   UNL     1     -43.756 -50.066  13.190  1.00  0.00     0.070 C 
HETATM   16  N   UNL     1     -41.454 -50.740  13.609  1.00  0.00    -0.303 N 
HETATM   17  N   UNL     1     -40.744 -51.878  13.548  1.00  0.00    -0.300 N 
ATOM     18  HN  UNL     1     -41.124 -49.812  13.874  1.00  0.00     0.186 HD
HETATM   19  C   UNL     1     -39.349 -51.853  13.925  1.00  0.00     0.177 C 
HETATM   20  C   UNL     1     -41.476 -52.957  13.122  1.00  0.00     0.032 A 
HETATM   21  C   UNL     1     -40.917 -54.317  12.919  1.00  0.00     0.070 C 
ENDBRANCH  12  13
ENDBRANCH   1  12
TORSDOF 4
ENDMDL
MODEL 8
REMARK VINA RESULT:      -5.2      2.603      3.636
REMARK  4 active torsions:
REMARK  status: ('A' for Active; 'I' for Inactive)
REMARK    1  A    between atoms: C_5  and  N_9 
REMARK    2  A    between atoms: N_9  and  C_10 
REMARK    3  A    between atoms: C_10  and  C_11 
REMARK    4  A    between atoms: C_11  and  C_12 
ROOT
HETATM    1  C   UNL     1     -38.857 -49.558  15.334  1.00  0.00     0.275 C 
ENDROOT
BRANCH   1   2
HETATM    2  N   UNL     1     -38.612 -50.996  15.170  1.00  0.00     0.088 N 
HETATM    3  H   UNL     1     -38.441 -51.199  14.184  1.00  0.00     0.316 HD
BRANCH   2   4
HETATM    4  C   UNL     1     -39.732 -51.829  15.646  1.00  0.00     0.220 C 
HETATM    5  C   UNL     1     -39.469 -53.340  15.504  1.00  0.00     0.036 C 
HETATM    6  C   UNL     1     -39.336 -53.762  14.042  1.00  0.00     0.007 C 
HETATM    7  C   UNL     1     -40.591 -53.415  13.223  1.00  0.00    -0.015 C 
HETATM    8  C   UNL     1     -41.742 -54.362  13.589  1.00  0.00     0.010 C 
HETATM    9  C   UNL     1     -40.936 -51.911  13.373  1.00  0.00    -0.013 C 
HETATM   10  C   UNL     1     -41.003 -51.468  14.849  1.00  0.00     0.040 C 
HETATM   11  C   UNL     1     -42.221 -51.523  12.637  1.00  0.00     0.010 C 
ENDBRANCH   2   4
ENDBRANCH   1   2
BRANCH   1  12
HETATM   12  C   UNL     1     -38.208 -48.743  14.207  1.00  0.00     0.072 C 
BRANCH  12  13
HETATM   13  C   UNL     1     -38.962 -48.892  12.924  1.00  0.00    -0.009 A 
HETATM   14  C   UNL     1     -38.607 -49.674  11.790  1.00  0.00     0.030 A 
HETATM   15  C   UNL     1     -37.415 -50.535  11.583  1.00  0.00     0.070 C 
HETATM   16  N   UNL     1     -39.510 -49.563  10.812  1.00  0.00    -0.303 N 
HETATM   17  N   UNL     1     -40.438 -48.727  11.305  1.00  0.00    -0.300 N 
ATOM     18  HN  UNL     1     -39.499 -50.013   9.896  1.00  0.00     0.186 HD
HETATM   19  C   UNL     1     -41.597 -48.417  10.500  1.00  0.00     0.177 C 
HETATM   20  C   UNL     1     -40.145 -48.267  12.563  1.00  0.00     0.032 A 
HETATM   21  C   UNL     1     -40.979 -47.292  13.310  1.00  0.00     0.070 C 
ENDBRANCH  12  13
ENDBRANCH   1  12
TORSDOF 4
ENDMDL
MODEL 9
REMARK VINA RESULT:      -5.2      1.715      2.926
REMARK  4 active torsions:
REMARK  status: ('A' for Active; 'I' for Inactive)
REMARK    1  A    between atoms: C_5  and  N_9 
REMARK    2  A    between atoms: N_9  and  C_10 
REMARK    3  A    between atoms: C_10  and  C_11 
REMARK    4  A    between atoms: C_11  and  C_12 
ROOT
HETATM    1  C   UNL     1     -41.757 -51.840  12.650  1.00  0.00     0.275 C 
ENDROOT
BRANCH   1   2
HETATM    2  N   UNL     1     -43.209 -51.865  12.432  1.00  0.00     0.088 N 
HETATM    3  H   UNL     1     -43.589 -50.930  12.589  1.00  0.00     0.316 HD
BRANCH   2   4
HETATM    4  C   UNL     1     -43.906 -52.822  13.309  1.00  0.00     0.220 C 
HETATM    5  C   UNL     1     -45.348 -53.121  12.858  1.00  0.00     0.036 C 
HETATM    6  C   UNL     1     -46.240 -51.884  12.937  1.00  0.00     0.007 C 
HETATM    7  C   UNL     1     -46.294 -51.300  14.360  1.00  0.00    -0.015 C 
HETATM    8  C   UNL     1     -47.139 -52.201  15.271  1.00  0.00     0.010 C 
HETATM    9  C   UNL     1     -44.862 -51.030  14.888  1.00  0.00    -0.013 C 
HETATM   10  C   UNL     1     -43.941 -52.259  14.745  1.00  0.00     0.040 C 
HETATM   11  C   UNL     1     -44.851 -50.516  16.331  1.00  0.00     0.010 C 
ENDBRANCH   2   4
ENDBRANCH   1   2
BRANCH   1  12
HETATM   12  C   UNL     1     -41.081 -50.740  11.821  1.00  0.00     0.072 C 
BRANCH  12  13
HETATM   13  C   UNL     1     -40.398 -49.739  12.699  1.00  0.00    -0.009 A 
HETATM   14  C   UNL     1     -41.000 -48.762  13.540  1.00  0.00     0.030 A 
HETATM   15  C   UNL     1     -42.441 -48.480  13.764  1.00  0.00     0.070 C 
HETATM   16  N   UNL     1     -40.084 -48.026  14.175  1.00  0.00    -0.303 N 
HETATM   17  N   UNL     1     -38.908 -48.520  13.757  1.00  0.00    -0.300 N 
ATOM     18  HN  UNL     1     -40.242 -47.260  14.830  1.00  0.00     0.186 HD
HETATM   19  C   UNL     1     -37.686 -47.963  14.292  1.00  0.00     0.177 C 
HETATM   20  C   UNL     1     -39.035 -49.535  12.844  1.00  0.00     0.032 A 
HETATM   21  C   UNL     1     -37.890 -50.216  12.188  1.00  0.00     0.070 C 
ENDBRANCH  12  13
ENDBRANCH   1  12
TORSDOF 4
ENDMDL
