MODEL 1
REMARK VINA RESULT:      -6.6      0.000      0.000
REMARK  4 active torsions:
REMARK  status: ('A' for Active; 'I' for Inactive)
REMARK    1  A    between atoms: C_2  and  C_4 
REMARK    2  A    between atoms: C_8  and  C_9 
REMARK    3  A    between atoms: C_9  and  C_10 
REMARK    4  A    between atoms: C_10  and  N_11 
REMARK       I    between atoms: N_11  and  C_12 
REMARK       I    between atoms: C_12  and  N_14 
ROOT
HETATM    1  C   UNL     1     -40.996 -51.131  12.077  1.00  0.00     0.132 C 
ENDROOT
BRANCH   1   2
HETATM    2  C   UNL     1     -40.617 -49.668  11.843  1.00  0.00     0.106 C 
BRANCH   2   3
HETATM    3  C   UNL     1     -41.674 -48.922  11.109  1.00  0.00     0.149 A 
HETATM    4  O   UNL     1     -42.811 -48.655  11.818  1.00  0.00    -0.223 OA
HETATM    5  N   UNL     1     -43.643 -47.920  10.978  1.00  0.00    -0.247 N 
HETATM    6  C   UNL     1     -42.930 -47.813   9.850  1.00  0.00     0.107 A 
ATOM      7  HN  UNL     1     -44.574 -47.551  11.175  1.00  0.00     0.196 HD
HETATM    8  N   UNL     1     -41.697 -48.427   9.888  1.00  0.00    -0.327 N 
ATOM      9  HN  UNL     1     -40.986 -48.483   9.160  1.00  0.00     0.169 HD
BRANCH   6  10
HETATM   10  C   UNL     1     -43.456 -47.066   8.665  1.00  0.00     0.047 C 
HETATM   11  C   UNL     1     -43.498 -47.937   7.410  1.00  0.00     0.017 C 
HETATM   12  C   UNL     1     -44.829 -46.454   8.940  1.00  0.00     0.017 C 
ENDBRANCH   6  10
ENDBRANCH   2   3
ENDBRANCH   1   2
BRANCH   1  13
HETATM   13  N   UNL     1     -42.386 -51.357  12.485  1.00  0.00    -0.343 N 
HETATM   14  C   UNL     1     -42.762 -52.517  13.130  1.00  0.00     0.318 C 
HETATM   15  O   UNL     1     -41.946 -53.422  13.276  1.00  0.00    -0.247 OA
HETATM   16  N   UNL     1     -44.094 -52.575  13.565  1.00  0.00    -0.330 N 
HETATM   17  C   UNL     1     -45.089 -51.576  13.141  1.00  0.00     0.128 C 
HETATM   18  C   UNL     1     -44.684 -53.901  13.936  1.00  0.00     0.085 C 
HETATM   19  C   UNL     1     -46.232 -51.411  14.134  1.00  0.00     0.020 C 
HETATM   20  C   UNL     1     -46.913 -52.739  14.398  1.00  0.00     0.004 C 
HETATM   21  C   UNL     1     -45.886 -53.741  14.896  1.00  0.00     0.025 C 
HETATM   22  C   UNL     1     -43.754 -54.938  14.585  1.00  0.00     0.032 C 
HETATM   23  H   UNL     1     -42.825 -50.528  12.846  1.00  0.00     0.164 HD
ENDBRANCH   1  13
TORSDOF 4
ENDMDL
MODEL 2
REMARK VINA RESULT:      -6.6      1.670      2.209
REMARK  4 active torsions:
REMARK  status: ('A' for Active; 'I' for Inactive)
REMARK    1  A    between atoms: C_2  and  C_4 
REMARK    2  A    between atoms: C_8  and  C_9 
REMARK    3  A    between atoms: C_9  and  C_10 
REMARK    4  A    between atoms: C_10  and  N_11 
REMARK       I    between atoms: N_11  and  C_12 
REMARK       I    between atoms: C_12  and  N_14 
ROOT
HETATM    1  C   UNL     1     -39.481 -50.082  11.592  1.00  0.00     0.132 C 
ENDROOT
BRANCH   1   2
HETATM    2  C   UNL     1     -39.853 -48.599  11.632  1.00  0.00     0.106 C 
BRANCH   2   3
HETATM    3  C   UNL     1     -41.198 -48.340  11.053  1.00  0.00     0.149 A 
HETATM    4  O   UNL     1     -42.258 -48.628  11.865  1.00  0.00    -0.223 OA
HETATM    5  N   UNL     1     -43.408 -48.276  11.163  1.00  0.00    -0.247 N 
HETATM    6  C   UNL     1     -42.932 -47.811  10.001  1.00  0.00     0.107 A 
ATOM      7  HN  UNL     1     -44.380 -48.355  11.462  1.00  0.00     0.196 HD
HETATM    8  N   UNL     1     -41.559 -47.836   9.891  1.00  0.00    -0.327 N 
ATOM      9  HN  UNL     1     -40.974 -47.539   9.110  1.00  0.00     0.169 HD
BRANCH   6  10
HETATM   10  C   UNL     1     -43.848 -47.297   8.936  1.00  0.00     0.047 C 
HETATM   11  C   UNL     1     -43.549 -47.920   7.573  1.00  0.00     0.017 C 
HETATM   12  C   UNL     1     -45.319 -47.493   9.304  1.00  0.00     0.017 C 
ENDBRANCH   6  10
ENDBRANCH   2   3
ENDBRANCH   1   2
BRANCH   1  13
HETATM   13  N   UNL     1     -40.574 -51.008  11.904  1.00  0.00    -0.343 N 
HETATM   14  C   UNL     1     -40.386 -52.073  12.762  1.00  0.00     0.318 C 
HETATM   15  O   UNL     1     -39.263 -52.314  13.191  1.00  0.00    -0.247 OA
HETATM   16  N   UNL     1     -41.529 -52.826  13.066  1.00  0.00    -0.330 N 
HETATM   17  C   UNL     1     -42.791 -52.649  12.326  1.00  0.00     0.128 C 
HETATM   18  C   UNL     1     -41.367 -54.185  13.675  1.00  0.00     0.085 C 
HETATM   19  C   UNL     1     -44.020 -53.038  13.138  1.00  0.00     0.020 C 
HETATM   20  C   UNL     1     -43.907 -54.466  13.635  1.00  0.00     0.004 C 
HETATM   21  C   UNL     1     -42.635 -54.617  14.450  1.00  0.00     0.025 C 
HETATM   22  C   UNL     1     -40.186 -54.400  14.634  1.00  0.00     0.032 C 
HETATM   23  H   UNL     1     -41.457 -50.542  12.019  1.00  0.00     0.164 HD
ENDBRANCH   1  13
TORSDOF 4
ENDMDL
MODEL 3
REMARK VINA RESULT:      -6.3      3.174      6.192
REMARK  4 active torsions:
REMARK  status: ('A' for Active; 'I' for Inactive)
REMARK    1  A    between atoms: C_2  and  C_4 
REMARK    2  A    between atoms: C_8  and  C_9 
REMARK    3  A    between atoms: C_9  and  C_10 
REMARK    4  A    between atoms: C_10  and  N_11 
REMARK       I    between atoms: N_11  and  C_12 
REMARK       I    between atoms: C_12  and  N_14 
ROOT
HETATM    1  C   UNL     1     -41.007 -54.103  14.663  1.00  0.00     0.132 C 
ENDROOT
BRANCH   1   2
HETATM    2  C   UNL     1     -42.449 -54.611  14.700  1.00  0.00     0.106 C 
BRANCH   2   3
HETATM    3  C   UNL     1     -43.385 -53.700  13.986  1.00  0.00     0.149 A 
HETATM    4  O   UNL     1     -43.268 -53.679  12.626  1.00  0.00    -0.223 OA
HETATM    5  N   UNL     1     -44.249 -52.812  12.153  1.00  0.00    -0.247 N 
HETATM    6  C   UNL     1     -44.863 -52.399  13.269  1.00  0.00     0.107 A 
ATOM      7  HN  UNL     1     -44.453 -52.554  11.187  1.00  0.00     0.196 HD
HETATM    8  N   UNL     1     -44.353 -52.927  14.434  1.00  0.00    -0.327 N 
ATOM      9  HN  UNL     1     -44.648 -52.761  15.396  1.00  0.00     0.169 HD
BRANCH   6  10
HETATM   10  C   UNL     1     -46.018 -51.450  13.216  1.00  0.00     0.047 C 
HETATM   11  C   UNL     1     -46.931 -51.724  12.021  1.00  0.00     0.017 C 
HETATM   12  C   UNL     1     -46.821 -51.456  14.517  1.00  0.00     0.017 C 
ENDBRANCH   6  10
ENDBRANCH   2   3
ENDBRANCH   1   2
BRANCH   1  13
HETATM   13  N   UNL     1     -40.841 -52.728  14.182  1.00  0.00    -0.343 N 
HETATM   14  C   UNL     1     -39.641 -52.294  13.657  1.00  0.00     0.318 C 
HETATM   15  O   UNL     1     -38.664 -53.034  13.687  1.00  0.00    -0.247 OA
HETATM   16  N   UNL     1     -39.634 -50.993  13.133  1.00  0.00    -0.330 N 
HETATM   17  C   UNL     1     -40.756 -50.065  13.355  1.00  0.00     0.128 C 
HETATM   18  C   UNL     1     -38.323 -50.313  12.885  1.00  0.00     0.085 C 
HETATM   19  C   UNL     1     -40.883 -49.008  12.265  1.00  0.00     0.020 C 
HETATM   20  C   UNL     1     -39.590 -48.231  12.115  1.00  0.00     0.004 C 
HETATM   21  C   UNL     1     -38.453 -49.195  11.824  1.00  0.00     0.025 C 
HETATM   22  C   UNL     1     -37.140 -51.188  12.441  1.00  0.00     0.032 C 
HETATM   23  H   UNL     1     -41.650 -52.390  13.689  1.00  0.00     0.164 HD
ENDBRANCH   1  13
TORSDOF 4
ENDMDL
MODEL 4
REMARK VINA RESULT:      -6.2      3.032      6.586
REMARK  4 active torsions:
REMARK  status: ('A' for Active; 'I' for Inactive)
REMARK    1  A    between atoms: C_2  and  C_4 
REMARK    2  A    between atoms: C_8  and  C_9 
REMARK    3  A    between atoms: C_9  and  C_10 
REMARK    4  A    between atoms: C_10  and  N_11 
REMARK       I    between atoms: N_11  and  C_12 
REMARK       I    between atoms: C_12  and  N_14 
ROOT
HETATM    1  C   UNL     1     -41.483 -54.398  13.394  1.00  0.00     0.132 C 
ENDROOT
BRANCH   1   2
HETATM    2  C   UNL     1     -42.392 -54.633  14.601  1.00  0.00     0.106 C 
BRANCH   2   3
HETATM    3  C   UNL     1     -43.803 -54.247  14.328  1.00  0.00     0.149 A 
HETATM    4  O   UNL     1     -44.697 -55.278  14.265  1.00  0.00    -0.223 OA
HETATM    5  N   UNL     1     -45.949 -54.709  14.051  1.00  0.00    -0.247 N 
HETATM    6  C   UNL     1     -45.692 -53.396  14.008  1.00  0.00     0.107 A 
ATOM      7  HN  UNL     1     -46.849 -55.180  13.950  1.00  0.00     0.196 HD
HETATM    8  N   UNL     1     -44.365 -53.065  14.174  1.00  0.00    -0.327 N 
ATOM      9  HN  UNL     1     -43.929 -52.143  14.176  1.00  0.00     0.169 HD
BRANCH   6  10
HETATM   10  C   UNL     1     -46.784 -52.395  13.809  1.00  0.00     0.047 C 
HETATM   11  C   UNL     1     -46.904 -51.433  14.992  1.00  0.00     0.017 C 
HETATM   12  C   UNL     1     -46.617 -51.619  12.503  1.00  0.00     0.017 C 
ENDBRANCH   6  10
ENDBRANCH   2   3
ENDBRANCH   1   2
BRANCH   1  13
HETATM   13  N   UNL     1     -41.287 -52.993  13.025  1.00  0.00    -0.343 N 
HETATM   14  C   UNL     1     -40.035 -52.416  13.048  1.00  0.00     0.318 C 
HETATM   15  O   UNL     1     -39.081 -53.054  13.482  1.00  0.00    -0.247 OA
HETATM   16  N   UNL     1     -39.956 -51.098  12.574  1.00  0.00    -0.330 N 
HETATM   17  C   UNL     1     -41.164 -50.299  12.307  1.00  0.00     0.128 C 
HETATM   18  C   UNL     1     -38.744 -50.278  12.894  1.00  0.00     0.085 C 
HETATM   19  C   UNL     1     -40.944 -49.212  11.264  1.00  0.00     0.020 C 
HETATM   20  C   UNL     1     -39.801 -48.301  11.667  1.00  0.00     0.004 C 
HETATM   21  C   UNL     1     -38.546 -49.131  11.876  1.00  0.00     0.025 C 
HETATM   22  C   UNL     1     -37.394 -51.007  12.984  1.00  0.00     0.032 C 
HETATM   23  H   UNL     1     -41.851 -52.716  12.240  1.00  0.00     0.164 HD
ENDBRANCH   1  13
TORSDOF 4
ENDMDL
MODEL 5
REMARK VINA RESULT:      -6.1      3.612      4.393
REMARK  4 active torsions:
REMARK  status: ('A' for Active; 'I' for Inactive)
REMARK    1  A    between atoms: C_2  and  C_4 
REMARK    2  A    between atoms: C_8  and  C_9 
REMARK    3  A    between atoms: C_9  and  C_10 
REMARK    4  A    between atoms: C_10  and  N_11 
REMARK       I    between atoms: N_11  and  C_12 
REMARK       I    between atoms: C_12  and  N_14 
ROOT
HETATM    1  C   UNL     1     -40.635 -54.073  15.578  1.00  0.00     0.132 C 
ENDROOT
BRANCH   1   2
HETATM    2  C   UNL     1     -39.552 -54.138  14.499  1.00  0.00     0.106 C 
BRANCH   2   3
HETATM    3  C   UNL     1     -39.603 -52.970  13.579  1.00  0.00     0.149 A 
HETATM    4  O   UNL     1     -40.479 -53.076  12.536  1.00  0.00    -0.223 OA
HETATM    5  N   UNL     1     -40.409 -51.878  11.831  1.00  0.00    -0.247 N 
HETATM    6  C   UNL     1     -39.502 -51.168  12.514  1.00  0.00     0.107 A 
ATOM      7  HN  UNL     1     -40.924 -51.606  10.993  1.00  0.00     0.196 HD
HETATM    8  N   UNL     1     -38.973 -51.814  13.610  1.00  0.00    -0.327 N 
ATOM      9  HN  UNL     1     -38.274 -51.482  14.274  1.00  0.00     0.169 HD
BRANCH   6  10
HETATM   10  C   UNL     1     -39.129 -49.779  12.101  1.00  0.00     0.047 C 
HETATM   11  C   UNL     1     -39.306 -48.775  13.239  1.00  0.00     0.017 C 
HETATM   12  C   UNL     1     -37.708 -49.712  11.543  1.00  0.00     0.017 C 
ENDBRANCH   6  10
ENDBRANCH   2   3
ENDBRANCH   1   2
BRANCH   1  13
HETATM   13  N   UNL     1     -41.841 -53.327  15.206  1.00  0.00    -0.343 N 
HETATM   14  C   UNL     1     -42.982 -53.978  14.784  1.00  0.00     0.318 C 
HETATM   15  O   UNL     1     -42.960 -55.193  14.616  1.00  0.00    -0.247 OA
HETATM   16  N   UNL     1     -44.104 -53.167  14.557  1.00  0.00    -0.330 N 
HETATM   17  C   UNL     1     -44.003 -51.698  14.527  1.00  0.00     0.128 C 
HETATM   18  C   UNL     1     -45.251 -53.714  13.763  1.00  0.00     0.085 C 
HETATM   19  C   UNL     1     -45.306 -51.001  14.894  1.00  0.00     0.020 C 
HETATM   20  C   UNL     1     -46.435 -51.460  13.991  1.00  0.00     0.004 C 
HETATM   21  C   UNL     1     -46.570 -52.970  14.082  1.00  0.00     0.025 C 
HETATM   22  C   UNL     1     -45.562 -55.212  13.900  1.00  0.00     0.032 C 
HETATM   23  H   UNL     1     -42.017 -52.545  15.814  1.00  0.00     0.164 HD
ENDBRANCH   1  13
TORSDOF 4
ENDMDL
MODEL 6
REMARK VINA RESULT:      -6.1      2.856      6.699
REMARK  4 active torsions:
REMARK  status: ('A' for Active; 'I' for Inactive)
REMARK    1  A    between atoms: C_2  and  C_4 
REMARK    2  A    between atoms: C_8  and  C_9 
REMARK    3  A    between atoms: C_9  and  C_10 
REMARK    4  A    between atoms: C_10  and  N_11 
REMARK       I    between atoms: N_11  and  C_12 
REMARK       I    between atoms: C_12  and  N_14 
ROOT
HETATM    1  C   UNL     1     -41.429 -54.476  13.323  1.00  0.00     0.132 C 
ENDROOT
BRANCH   1   2
HETATM    2  C   UNL     1     -42.310 -54.574  14.570  1.00  0.00     0.106 C 
BRANCH   2   3
HETATM    3  C   UNL     1     -43.723 -54.202  14.292  1.00  0.00     0.149 A 
HETATM    4  O   UNL     1     -44.618 -55.234  14.290  1.00  0.00    -0.223 OA
HETATM    5  N   UNL     1     -45.873 -54.676  14.060  1.00  0.00    -0.247 N 
HETATM    6  C   UNL     1     -45.615 -53.366  13.949  1.00  0.00     0.107 A 
ATOM      7  HN  UNL     1     -46.773 -55.150  13.992  1.00  0.00     0.196 HD
HETATM    8  N   UNL     1     -44.286 -53.029  14.085  1.00  0.00    -0.327 N 
ATOM      9  HN  UNL     1     -43.851 -52.108  14.037  1.00  0.00     0.169 HD
BRANCH   6  10
HETATM   10  C   UNL     1     -46.710 -52.375  13.712  1.00  0.00     0.047 C 
HETATM   11  C   UNL     1     -46.871 -51.408  14.884  1.00  0.00     0.017 C 
HETATM   12  C   UNL     1     -46.510 -51.606  12.406  1.00  0.00     0.017 C 
ENDBRANCH   6  10
ENDBRANCH   2   3
ENDBRANCH   1   2
BRANCH   1  13
HETATM   13  N   UNL     1     -40.483 -53.356  13.315  1.00  0.00    -0.343 N 
HETATM   14  C   UNL     1     -40.812 -52.146  12.742  1.00  0.00     0.318 C 
HETATM   15  O   UNL     1     -41.873 -52.031  12.136  1.00  0.00    -0.247 OA
HETATM   16  N   UNL     1     -39.868 -51.119  12.888  1.00  0.00    -0.330 N 
HETATM   17  C   UNL     1     -38.512 -51.383  13.397  1.00  0.00     0.128 C 
HETATM   18  C   UNL     1     -39.963 -49.909  12.009  1.00  0.00     0.085 C 
HETATM   19  C   UNL     1     -37.875 -50.169  14.061  1.00  0.00     0.020 C 
HETATM   20  C   UNL     1     -37.850 -48.987  13.113  1.00  0.00     0.004 C 
HETATM   21  C   UNL     1     -39.264 -48.686  12.646  1.00  0.00     0.025 C 
HETATM   22  C   UNL     1     -41.365 -49.435  11.598  1.00  0.00     0.032 C 
HETATM   23  H   UNL     1     -39.970 -53.275  14.176  1.00  0.00     0.164 HD
ENDBRANCH   1  13
TORSDOF 4
ENDMDL
MODEL 7
REMARK VINA RESULT:      -6.0      2.960      4.104
REMARK  4 active torsions:
REMARK  status: ('A' for Active; 'I' for Inactive)
REMARK    1  A    between atoms: C_2  and  C_4 
REMARK    2  A    between atoms: C_8  and  C_9 
REMARK    3  A    between atoms: C_9  and  C_10 
REMARK    4  A    between atoms: C_10  and  N_11 
REMARK       I    between atoms: N_11  and  C_12 
REMARK       I    between atoms: C_12  and  N_14 
ROOT
HETATM    1  C   UNL     1     -41.837 -54.182  13.296  1.00  0.00     0.132 C 
ENDROOT
BRANCH   1   2
HETATM    2  C   UNL     1     -40.386 -53.709  13.389  1.00  0.00     0.106 C 
BRANCH   2   3
HETATM    3  C   UNL     1     -40.180 -52.391  12.730  1.00  0.00     0.149 A 
HETATM    4  O   UNL     1     -41.058 -52.086  11.729  1.00  0.00    -0.223 OA
HETATM    5  N   UNL     1     -40.727 -50.811  11.280  1.00  0.00    -0.247 N 
HETATM    6  C   UNL     1     -39.687 -50.470  12.051  1.00  0.00     0.107 A 
ATOM      7  HN  UNL     1     -41.171 -50.266  10.541  1.00  0.00     0.196 HD
HETATM    8  N   UNL     1     -39.311 -51.429  12.967  1.00  0.00    -0.327 N 
ATOM      9  HN  UNL     1     -38.556 -51.401  13.651  1.00  0.00     0.169 HD
BRANCH   6  10
HETATM   10  C   UNL     1     -39.018 -49.139  11.913  1.00  0.00     0.047 C 
HETATM   11  C   UNL     1     -40.028 -48.008  11.718  1.00  0.00     0.017 C 
HETATM   12  C   UNL     1     -38.097 -48.838  13.096  1.00  0.00     0.017 C 
ENDBRANCH   6  10
ENDBRANCH   2   3
ENDBRANCH   1   2
BRANCH   1  13
HETATM   13  N   UNL     1     -42.783 -53.466  14.158  1.00  0.00    -0.343 N 
HETATM   14  C   UNL     1     -43.946 -52.927  13.649  1.00  0.00     0.318 C 
HETATM   15  O   UNL     1     -44.148 -52.953  12.439  1.00  0.00    -0.247 OA
HETATM   16  N   UNL     1     -44.822 -52.358  14.586  1.00  0.00    -0.330 N 
HETATM   17  C   UNL     1     -44.415 -52.127  15.982  1.00  0.00     0.128 C 
HETATM   18  C   UNL     1     -45.907 -51.442  14.109  1.00  0.00     0.085 C 
HETATM   19  C   UNL     1     -45.589 -52.113  16.953  1.00  0.00     0.020 C 
HETATM   20  C   UNL     1     -46.620 -51.082  16.537  1.00  0.00     0.004 C 
HETATM   21  C   UNL     1     -47.077 -51.371  15.118  1.00  0.00     0.025 C 
HETATM   22  C   UNL     1     -46.539 -51.739  12.740  1.00  0.00     0.032 C 
HETATM   23  H   UNL     1     -42.893 -53.900  15.058  1.00  0.00     0.164 HD
ENDBRANCH   1  13
TORSDOF 4
ENDMDL
MODEL 8
REMARK VINA RESULT:      -5.9      1.564      2.238
REMARK  4 active torsions:
REMARK  status: ('A' for Active; 'I' for Inactive)
REMARK    1  A    between atoms: C_2  and  C_4 
REMARK    2  A    between atoms: C_8  and  C_9 
REMARK    3  A    between atoms: C_9  and  C_10 
REMARK    4  A    between atoms: C_10  and  N_11 
REMARK       I    between atoms: N_11  and  C_12 
REMARK       I    between atoms: C_12  and  N_14 
ROOT
HETATM    1  C   UNL     1     -40.822 -48.371  13.875  1.00  0.00     0.132 C 
ENDROOT
BRANCH   1   2
HETATM    2  C   UNL     1     -40.704 -47.179  12.924  1.00  0.00     0.106 C 
BRANCH   2   3
HETATM    3  C   UNL     1     -41.417 -47.411  11.638  1.00  0.00     0.149 A 
HETATM    4  O   UNL     1     -40.891 -48.386  10.838  1.00  0.00    -0.223 OA
HETATM    5  N   UNL     1     -41.719 -48.477   9.722  1.00  0.00    -0.247 N 
HETATM    6  C   UNL     1     -42.660 -47.554   9.957  1.00  0.00     0.107 A 
ATOM      7  HN  UNL     1     -41.630 -49.098   8.918  1.00  0.00     0.196 HD
HETATM    8  N   UNL     1     -42.507 -46.865  11.140  1.00  0.00    -0.327 N 
ATOM      9  HN  UNL     1     -43.088 -46.123  11.530  1.00  0.00     0.169 HD
BRANCH   6  10
HETATM   10  C   UNL     1     -43.784 -47.327   8.997  1.00  0.00     0.047 C 
HETATM   11  C   UNL     1     -44.151 -45.848   8.883  1.00  0.00     0.017 C 
HETATM   12  C   UNL     1     -43.482 -47.911   7.617  1.00  0.00     0.017 C 
ENDBRANCH   6  10
ENDBRANCH   2   3
ENDBRANCH   1   2
BRANCH   1  13
HETATM   13  N   UNL     1     -41.957 -49.264  13.618  1.00  0.00    -0.343 N 
HETATM   14  C   UNL     1     -41.766 -50.606  13.362  1.00  0.00     0.318 C 
HETATM   15  O   UNL     1     -40.626 -51.045  13.244  1.00  0.00    -0.247 OA
HETATM   16  N   UNL     1     -42.930 -51.380  13.236  1.00  0.00    -0.330 N 
HETATM   17  C   UNL     1     -44.262 -50.760  13.133  1.00  0.00     0.128 C 
HETATM   18  C   UNL     1     -42.840 -52.736  12.608  1.00  0.00     0.085 C 
HETATM   19  C   UNL     1     -45.383 -51.667  13.621  1.00  0.00     0.020 C 
HETATM   20  C   UNL     1     -45.369 -52.989  12.880  1.00  0.00     0.004 C 
HETATM   21  C   UNL     1     -44.010 -53.647  13.049  1.00  0.00     0.025 C 
HETATM   22  C   UNL     1     -41.556 -53.547  12.843  1.00  0.00     0.032 C 
HETATM   23  H   UNL     1     -42.746 -49.068  14.209  1.00  0.00     0.164 HD
ENDBRANCH   1  13
TORSDOF 4
ENDMDL
MODEL 9
REMARK VINA RESULT:      -5.7      3.038      4.370
REMARK  4 active torsions:
REMARK  status: ('A' for Active; 'I' for Inactive)
REMARK    1  A    between atoms: C_2  and  C_4 
REMARK    2  A    between atoms: C_8  and  C_9 
REMARK    3  A    between atoms: C_9  and  C_10 
REMARK    4  A    between atoms: C_10  and  N_11 
REMARK       I    between atoms: N_11  and  C_12 
REMARK       I    between atoms: C_12  and  N_14 
ROOT
HETATM    1  C   UNL     1     -40.958 -54.557  15.299  1.00  0.00     0.132 C 
ENDROOT
BRANCH   1   2
HETATM    2  C   UNL     1     -39.731 -54.384  14.403  1.00  0.00     0.106 C 
BRANCH   2   3
HETATM    3  C   UNL     1     -39.842 -53.194  13.518  1.00  0.00     0.149 A 
HETATM    4  O   UNL     1     -40.597 -53.362  12.392  1.00  0.00    -0.223 OA
HETATM    5  N   UNL     1     -40.613 -52.135  11.734  1.00  0.00    -0.247 N 
HETATM    6  C   UNL     1     -39.871 -51.349  12.523  1.00  0.00     0.107 A 
ATOM      7  HN  UNL     1     -41.079 -51.893  10.859  1.00  0.00     0.196 HD
HETATM    8  N   UNL     1     -39.369 -51.971  13.645  1.00  0.00    -0.327 N 
ATOM      9  HN  UNL     1     -38.781 -51.584  14.384  1.00  0.00     0.169 HD
BRANCH   6  10
HETATM   10  C   UNL     1     -39.639 -49.909  12.191  1.00  0.00     0.047 C 
HETATM   11  C   UNL     1     -38.229 -49.663  11.657  1.00  0.00     0.017 C 
HETATM   12  C   UNL     1     -40.684 -49.374  11.212  1.00  0.00     0.017 C 
ENDBRANCH   6  10
ENDBRANCH   2   3
ENDBRANCH   1   2
BRANCH   1  13
HETATM   13  N   UNL     1     -42.232 -54.154  14.696  1.00  0.00    -0.343 N 
HETATM   14  C   UNL     1     -43.058 -53.239  15.314  1.00  0.00     0.318 C 
HETATM   15  O   UNL     1     -42.777 -52.830  16.436  1.00  0.00    -0.247 OA
HETATM   16  N   UNL     1     -44.198 -52.852  14.593  1.00  0.00    -0.330 N 
HETATM   17  C   UNL     1     -44.616 -53.562  13.372  1.00  0.00     0.128 C 
HETATM   18  C   UNL     1     -45.318 -52.165  15.311  1.00  0.00     0.085 C 
HETATM   19  C   UNL     1     -45.426 -52.690  12.421  1.00  0.00     0.020 C 
HETATM   20  C   UNL     1     -46.637 -52.108  13.123  1.00  0.00     0.004 C 
HETATM   21  C   UNL     1     -46.185 -51.326  14.344  1.00  0.00     0.025 C 
HETATM   22  C   UNL     1     -44.951 -51.232  16.476  1.00  0.00     0.032 C 
HETATM   23  H   UNL     1     -42.171 -54.042  13.698  1.00  0.00     0.164 HD
ENDBRANCH   1  13
TORSDOF 4
ENDMDL
