MODEL 1
REMARK VINA RESULT:      -6.2      0.000      0.000
REMARK  4 active torsions:
REMARK  status: ('A' for Active; 'I' for Inactive)
REMARK    1  A    between atoms: N_7  and  C_8 
REMARK    2  A    between atoms: C_8  and  C_9 
REMARK    3  A    between atoms: C_9  and  N_10 
REMARK       I    between atoms: N_10  and  C_11 
REMARK       I    between atoms: C_11  and  N_13 
REMARK    4  A    between atoms: N_13  and  C_14 
ROOT
HETATM    1  N   UNL     1     -41.516 -52.678  11.884  1.00  0.00    -0.341 N 
HETATM    2  C   UNL     1     -41.327 -51.334  12.150  1.00  0.00     0.321 C 
HETATM    3  O   UNL     1     -41.534 -50.871  13.266  1.00  0.00    -0.247 OA
HETATM    4  N   UNL     1     -40.951 -50.624  11.036  1.00  0.00    -0.293 N 
HETATM    5  H   UNL     1     -40.840 -53.104  11.263  1.00  0.00     0.164 HD
HETATM    6  H   UNL     1     -41.169 -51.025  10.138  1.00  0.00     0.172 HD
ENDROOT
BRANCH   1   7
HETATM    7  C   UNL     1     -41.916 -53.506  13.011  1.00  0.00     0.154 C 
BRANCH   7   8
HETATM    8  C   UNL     1     -43.410 -53.863  13.035  1.00  0.00     0.292 C 
BRANCH   8   9
HETATM    9  N   UNL     1     -44.323 -52.737  13.332  1.00  0.00     0.094 N 
HETATM   10  C   UNL     1     -44.548 -52.593  14.793  1.00  0.00     0.219 C 
HETATM   11  C   UNL     1     -45.115 -53.835  15.506  1.00  0.00     0.043 C 
HETATM   12  C   UNL     1     -45.434 -51.363  15.071  1.00  0.00     0.035 C 
HETATM   13  C   UNL     1     -46.753 -51.413  14.310  1.00  0.00     0.004 C 
HETATM   14  C   UNL     1     -46.492 -51.633  12.829  1.00  0.00     0.030 C 
HETATM   15  C   UNL     1     -45.587 -52.840  12.583  1.00  0.00     0.273 C 
ENDBRANCH   8   9
ENDBRANCH   7   8
ENDBRANCH   1   7
BRANCH   4  16
HETATM   16  C   UNL     1     -40.632 -49.276  11.085  1.00  0.00     0.132 A 
HETATM   17  C   UNL     1     -41.477 -48.226  10.640  1.00  0.00     0.084 A 
HETATM   18  C   UNL     1     -40.768 -47.076  10.898  1.00  0.00     0.076 A 
HETATM   19  C   UNL     1     -41.018 -45.633  10.737  1.00  0.00     0.079 C 
HETATM   20  O   UNL     1     -39.565 -47.410  11.427  1.00  0.00    -0.241 OA
HETATM   21  N   UNL     1     -39.477 -48.777  11.537  1.00  0.00    -0.245 N 
ATOM     22  HN  UNL     1     -38.682 -49.309  11.893  1.00  0.00     0.196 HD
ENDBRANCH   4  16
TORSDOF 4
ENDMDL
MODEL 2
REMARK VINA RESULT:      -6.1      1.617      2.308
REMARK  4 active torsions:
REMARK  status: ('A' for Active; 'I' for Inactive)
REMARK    1  A    between atoms: N_7  and  C_8 
REMARK    2  A    between atoms: C_8  and  C_9 
REMARK    3  A    between atoms: C_9  and  N_10 
REMARK       I    between atoms: N_10  and  C_11 
REMARK       I    between atoms: C_11  and  N_13 
REMARK    4  A    between atoms: N_13  and  C_14 
ROOT
HETATM    1  N   UNL     1     -41.764 -50.940  11.774  1.00  0.00    -0.341 N 
HETATM    2  C   UNL     1     -41.871 -49.561  11.799  1.00  0.00     0.321 C 
HETATM    3  O   UNL     1     -42.407 -48.981  12.736  1.00  0.00    -0.247 OA
HETATM    4  N   UNL     1     -41.368 -48.973  10.664  1.00  0.00    -0.293 N 
HETATM    5  H   UNL     1     -40.900 -51.309  11.399  1.00  0.00     0.164 HD
HETATM    6  H   UNL     1     -41.300 -49.547   9.839  1.00  0.00     0.172 HD
ENDROOT
BRANCH   1   7
HETATM    7  C   UNL     1     -42.273 -51.645  12.941  1.00  0.00     0.154 C 
BRANCH   7   8
HETATM    8  C   UNL     1     -43.579 -52.414  12.695  1.00  0.00     0.292 C 
BRANCH   8   9
HETATM    9  N   UNL     1     -44.562 -52.357  13.799  1.00  0.00     0.094 N 
HETATM   10  C   UNL     1     -45.918 -52.754  13.340  1.00  0.00     0.219 C 
HETATM   11  C   UNL     1     -46.497 -51.929  12.176  1.00  0.00     0.043 C 
HETATM   12  C   UNL     1     -46.897 -52.764  14.531  1.00  0.00     0.035 C 
HETATM   13  C   UNL     1     -46.932 -51.429  15.264  1.00  0.00     0.004 C 
HETATM   14  C   UNL     1     -45.523 -51.014  15.658  1.00  0.00     0.030 C 
HETATM   15  C   UNL     1     -44.566 -51.043  14.467  1.00  0.00     0.273 C 
ENDBRANCH   8   9
ENDBRANCH   7   8
ENDBRANCH   1   7
BRANCH   4  16
HETATM   16  C   UNL     1     -41.300 -47.598  10.506  1.00  0.00     0.132 A 
HETATM   17  C   UNL     1     -40.310 -46.763  11.087  1.00  0.00     0.084 A 
HETATM   18  C   UNL     1     -40.621 -45.497  10.649  1.00  0.00     0.076 A 
HETATM   19  C   UNL     1     -40.031 -44.158  10.815  1.00  0.00     0.079 C 
HETATM   20  O   UNL     1     -41.740 -45.558   9.886  1.00  0.00    -0.241 OA
HETATM   21  N   UNL     1     -42.167 -46.863   9.803  1.00  0.00    -0.245 N 
ATOM     22  HN  UNL     1     -42.988 -47.203   9.302  1.00  0.00     0.196 HD
ENDBRANCH   4  16
TORSDOF 4
ENDMDL
MODEL 3
REMARK VINA RESULT:      -6.0      1.514      1.785
REMARK  4 active torsions:
REMARK  status: ('A' for Active; 'I' for Inactive)
REMARK    1  A    between atoms: N_7  and  C_8 
REMARK    2  A    between atoms: C_8  and  C_9 
REMARK    3  A    between atoms: C_9  and  N_10 
REMARK       I    between atoms: N_10  and  C_11 
REMARK       I    between atoms: C_11  and  N_13 
REMARK    4  A    between atoms: N_13  and  C_14 
ROOT
HETATM    1  N   UNL     1     -41.308 -50.984  11.592  1.00  0.00    -0.341 N 
HETATM    2  C   UNL     1     -41.514 -49.620  11.702  1.00  0.00     0.321 C 
HETATM    3  O   UNL     1     -42.009 -49.131  12.710  1.00  0.00    -0.247 OA
HETATM    4  N   UNL     1     -41.157 -48.940  10.563  1.00  0.00    -0.293 N 
HETATM    5  H   UNL     1     -40.454 -51.265  11.127  1.00  0.00     0.164 HD
HETATM    6  H   UNL     1     -41.118 -49.466   9.705  1.00  0.00     0.172 HD
ENDROOT
BRANCH   1   7
HETATM    7  C   UNL     1     -41.660 -51.782  12.756  1.00  0.00     0.154 C 
BRANCH   7   8
HETATM    8  C   UNL     1     -42.990 -52.539  12.625  1.00  0.00     0.292 C 
BRANCH   8   9
HETATM    9  N   UNL     1     -44.171 -51.836  13.174  1.00  0.00     0.094 N 
HETATM   10  C   UNL     1     -44.111 -51.750  14.655  1.00  0.00     0.219 C 
HETATM   11  C   UNL     1     -43.999 -53.094  15.398  1.00  0.00     0.043 C 
HETATM   12  C   UNL     1     -45.311 -50.941  15.186  1.00  0.00     0.035 C 
HETATM   13  C   UNL     1     -46.646 -51.509  14.720  1.00  0.00     0.004 C 
HETATM   14  C   UNL     1     -46.650 -51.653  13.206  1.00  0.00     0.030 C 
HETATM   15  C   UNL     1     -45.435 -52.431  12.704  1.00  0.00     0.273 C 
ENDBRANCH   8   9
ENDBRANCH   7   8
ENDBRANCH   1   7
BRANCH   4  16
HETATM   16  C   UNL     1     -41.205 -47.557  10.476  1.00  0.00     0.132 A 
HETATM   17  C   UNL     1     -40.286 -46.673  11.098  1.00  0.00     0.084 A 
HETATM   18  C   UNL     1     -40.704 -45.417  10.726  1.00  0.00     0.076 A 
HETATM   19  C   UNL     1     -40.228 -44.043  10.960  1.00  0.00     0.079 C 
HETATM   20  O   UNL     1     -41.819 -45.533   9.962  1.00  0.00    -0.241 OA
HETATM   21  N   UNL     1     -42.135 -46.863   9.812  1.00  0.00    -0.245 N 
ATOM     22  HN  UNL     1     -42.927 -47.245   9.295  1.00  0.00     0.196 HD
ENDBRANCH   4  16
TORSDOF 4
ENDMDL
MODEL 4
REMARK VINA RESULT:      -5.9      2.083      7.360
REMARK  4 active torsions:
REMARK  status: ('A' for Active; 'I' for Inactive)
REMARK    1  A    between atoms: N_7  and  C_8 
REMARK    2  A    between atoms: C_8  and  C_9 
REMARK    3  A    between atoms: C_9  and  N_10 
REMARK       I    between atoms: N_10  and  C_11 
REMARK       I    between atoms: C_11  and  N_13 
REMARK    4  A    between atoms: N_13  and  C_14 
ROOT
HETATM    1  N   UNL     1     -40.839 -50.488  11.063  1.00  0.00    -0.341 N 
HETATM    2  C   UNL     1     -41.399 -51.217  12.097  1.00  0.00     0.321 C 
HETATM    3  O   UNL     1     -41.259 -50.876  13.266  1.00  0.00    -0.247 OA
HETATM    4  N   UNL     1     -42.050 -52.343  11.655  1.00  0.00    -0.293 N 
HETATM    5  H   UNL     1     -41.401 -50.406  10.226  1.00  0.00     0.164 HD
HETATM    6  H   UNL     1     -41.788 -52.702  10.752  1.00  0.00     0.172 HD
ENDROOT
BRANCH   1   7
HETATM    7  C   UNL     1     -40.129 -49.276  11.443  1.00  0.00     0.154 C 
BRANCH   7   8
HETATM    8  C   UNL     1     -40.948 -47.986  11.281  1.00  0.00     0.292 C 
BRANCH   8   9
HETATM    9  N   UNL     1     -40.630 -46.912  12.247  1.00  0.00     0.094 N 
HETATM   10  C   UNL     1     -40.629 -45.578  11.594  1.00  0.00     0.219 C 
HETATM   11  C   UNL     1     -39.663 -45.418  10.405  1.00  0.00     0.043 C 
HETATM   12  C   UNL     1     -40.378 -44.477  12.643  1.00  0.00     0.035 C 
HETATM   13  C   UNL     1     -39.094 -44.707  13.430  1.00  0.00     0.004 C 
HETATM   14  C   UNL     1     -39.092 -46.105  14.027  1.00  0.00     0.030 C 
HETATM   15  C   UNL     1     -39.374 -47.175  12.972  1.00  0.00     0.273 C 
ENDBRANCH   8   9
ENDBRANCH   7   8
ENDBRANCH   1   7
BRANCH   4  16
HETATM   16  C   UNL     1     -42.752 -53.181  12.508  1.00  0.00     0.132 A 
HETATM   17  C   UNL     1     -44.141 -53.452  12.416  1.00  0.00     0.084 A 
HETATM   18  C   UNL     1     -44.392 -54.337  13.439  1.00  0.00     0.076 A 
HETATM   19  C   UNL     1     -45.575 -55.066  13.927  1.00  0.00     0.079 C 
HETATM   20  O   UNL     1     -43.241 -54.556  14.123  1.00  0.00    -0.241 OA
HETATM   21  N   UNL     1     -42.223 -53.832  13.549  1.00  0.00    -0.245 N 
ATOM     22  HN  UNL     1     -41.252 -53.798  13.859  1.00  0.00     0.196 HD
ENDBRANCH   4  16
TORSDOF 4
ENDMDL
MODEL 5
REMARK VINA RESULT:      -5.7      2.843      7.078
REMARK  4 active torsions:
REMARK  status: ('A' for Active; 'I' for Inactive)
REMARK    1  A    between atoms: N_7  and  C_8 
REMARK    2  A    between atoms: C_8  and  C_9 
REMARK    3  A    between atoms: C_9  and  N_10 
REMARK       I    between atoms: N_10  and  C_11 
REMARK       I    between atoms: C_11  and  N_13 
REMARK    4  A    between atoms: N_13  and  C_14 
ROOT
HETATM    1  N   UNL     1     -40.509 -51.565  11.655  1.00  0.00    -0.341 N 
HETATM    2  C   UNL     1     -41.795 -51.662  12.153  1.00  0.00     0.321 C 
HETATM    3  O   UNL     1     -42.397 -50.675  12.559  1.00  0.00    -0.247 OA
HETATM    4  N   UNL     1     -42.254 -52.957  12.178  1.00  0.00    -0.293 N 
HETATM    5  H   UNL     1     -40.298 -52.152  10.858  1.00  0.00     0.164 HD
HETATM    6  H   UNL     1     -41.565 -53.690  12.173  1.00  0.00     0.172 HD
ENDROOT
BRANCH   1   7
HETATM    7  C   UNL     1     -39.943 -50.226  11.592  1.00  0.00     0.154 C 
BRANCH   7   8
HETATM    8  C   UNL     1     -38.513 -50.117  12.142  1.00  0.00     0.292 C 
BRANCH   8   9
HETATM    9  N   UNL     1     -38.211 -48.864  12.869  1.00  0.00     0.094 N 
HETATM   10  C   UNL     1     -37.647 -49.142  14.215  1.00  0.00     0.219 C 
HETATM   11  C   UNL     1     -38.526 -50.002  15.142  1.00  0.00     0.043 C 
HETATM   12  C   UNL     1     -37.266 -47.820  14.910  1.00  0.00     0.035 C 
HETATM   13  C   UNL     1     -38.437 -46.848  14.991  1.00  0.00     0.004 C 
HETATM   14  C   UNL     1     -39.038 -46.640  13.610  1.00  0.00     0.030 C 
HETATM   15  C   UNL     1     -39.377 -47.967  12.931  1.00  0.00     0.273 C 
ENDBRANCH   8   9
ENDBRANCH   7   8
ENDBRANCH   1   7
BRANCH   4  16
HETATM   16  C   UNL     1     -43.545 -53.282  12.565  1.00  0.00     0.132 A 
HETATM   17  C   UNL     1     -43.877 -54.229  13.568  1.00  0.00     0.084 A 
HETATM   18  C   UNL     1     -45.251 -54.208  13.627  1.00  0.00     0.076 A 
HETATM   19  C   UNL     1     -46.275 -54.888  14.438  1.00  0.00     0.079 C 
HETATM   20  O   UNL     1     -45.717 -53.335  12.699  1.00  0.00    -0.241 OA
HETATM   21  N   UNL     1     -44.658 -52.765  12.034  1.00  0.00    -0.245 N 
ATOM     22  HN  UNL     1     -44.711 -52.080  11.280  1.00  0.00     0.196 HD
ENDBRANCH   4  16
TORSDOF 4
ENDMDL
MODEL 6
REMARK VINA RESULT:      -5.6      2.515      3.594
REMARK  4 active torsions:
REMARK  status: ('A' for Active; 'I' for Inactive)
REMARK    1  A    between atoms: N_7  and  C_8 
REMARK    2  A    between atoms: C_8  and  C_9 
REMARK    3  A    between atoms: C_9  and  N_10 
REMARK       I    between atoms: N_10  and  C_11 
REMARK       I    between atoms: C_11  and  N_13 
REMARK    4  A    between atoms: N_13  and  C_14 
ROOT
HETATM    1  N   UNL     1     -40.814 -50.480  10.997  1.00  0.00    -0.341 N 
HETATM    2  C   UNL     1     -40.909 -49.143  11.339  1.00  0.00     0.321 C 
HETATM    3  O   UNL     1     -40.674 -48.759  12.479  1.00  0.00    -0.247 OA
HETATM    4  N   UNL     1     -41.333 -48.361  10.292  1.00  0.00    -0.293 N 
HETATM    5  H   UNL     1     -40.431 -50.675  10.081  1.00  0.00     0.164 HD
HETATM    6  H   UNL     1     -41.833 -48.818   9.548  1.00  0.00     0.172 HD
ENDROOT
BRANCH   1   7
HETATM    7  C   UNL     1     -40.369 -51.382  12.049  1.00  0.00     0.154 C 
BRANCH   7   8
HETATM    8  C   UNL     1     -41.138 -52.710  12.110  1.00  0.00     0.292 C 
BRANCH   8   9
HETATM    9  N   UNL     1     -41.582 -53.121  13.460  1.00  0.00     0.094 N 
HETATM   10  C   UNL     1     -40.425 -53.398  14.350  1.00  0.00     0.219 C 
HETATM   11  C   UNL     1     -39.442 -54.472  13.851  1.00  0.00     0.043 C 
HETATM   12  C   UNL     1     -40.921 -53.740  15.768  1.00  0.00     0.035 C 
HETATM   13  C   UNL     1     -41.912 -54.898  15.773  1.00  0.00     0.004 C 
HETATM   14  C   UNL     1     -43.046 -54.618  14.800  1.00  0.00     0.030 C 
HETATM   15  C   UNL     1     -42.527 -54.251  13.410  1.00  0.00     0.273 C 
ENDBRANCH   8   9
ENDBRANCH   7   8
ENDBRANCH   1   7
BRANCH   4  16
HETATM   16  C   UNL     1     -41.426 -46.981  10.384  1.00  0.00     0.132 A 
HETATM   17  C   UNL     1     -42.600 -46.268  10.739  1.00  0.00     0.084 A 
HETATM   18  C   UNL     1     -42.225 -44.945  10.722  1.00  0.00     0.076 A 
HETATM   19  C   UNL     1     -42.890 -43.664  11.010  1.00  0.00     0.079 C 
HETATM   20  O   UNL     1     -40.924 -44.863  10.348  1.00  0.00    -0.241 OA
HETATM   21  N   UNL     1     -40.429 -46.127  10.131  1.00  0.00    -0.245 N 
ATOM     22  HN  UNL     1     -39.483 -46.367   9.833  1.00  0.00     0.196 HD
ENDBRANCH   4  16
TORSDOF 4
ENDMDL
MODEL 7
REMARK VINA RESULT:      -5.5      2.827      7.540
REMARK  4 active torsions:
REMARK  status: ('A' for Active; 'I' for Inactive)
REMARK    1  A    between atoms: N_7  and  C_8 
REMARK    2  A    between atoms: C_8  and  C_9 
REMARK    3  A    between atoms: C_9  and  N_10 
REMARK       I    between atoms: N_10  and  C_11 
REMARK       I    between atoms: C_11  and  N_13 
REMARK    4  A    between atoms: N_13  and  C_14 
ROOT
HETATM    1  N   UNL     1     -40.901 -48.809  10.576  1.00  0.00    -0.341 N 
HETATM    2  C   UNL     1     -41.526 -49.705  11.424  1.00  0.00     0.321 C 
HETATM    3  O   UNL     1     -42.441 -49.353  12.159  1.00  0.00    -0.247 OA
HETATM    4  N   UNL     1     -40.970 -50.960  11.368  1.00  0.00    -0.293 N 
HETATM    5  H   UNL     1     -40.646 -49.168   9.665  1.00  0.00     0.164 HD
HETATM    6  H   UNL     1     -40.027 -51.031  11.023  1.00  0.00     0.172 HD
ENDROOT
BRANCH   1   7
HETATM    7  C   UNL     1     -41.428 -47.453  10.572  1.00  0.00     0.154 C 
BRANCH   7   8
HETATM    8  C   UNL     1     -40.384 -46.368  10.879  1.00  0.00     0.292 C 
BRANCH   8   9
HETATM    9  N   UNL     1     -40.934 -45.020  11.140  1.00  0.00     0.094 N 
HETATM   10  C   UNL     1     -39.868 -44.069  11.546  1.00  0.00     0.219 C 
HETATM   11  C   UNL     1     -39.052 -44.472  12.788  1.00  0.00     0.043 C 
HETATM   12  C   UNL     1     -40.461 -42.658  11.728  1.00  0.00     0.035 C 
HETATM   13  C   UNL     1     -41.623 -42.639  12.714  1.00  0.00     0.004 C 
HETATM   14  C   UNL     1     -42.664 -43.672  12.312  1.00  0.00     0.030 C 
HETATM   15  C   UNL     1     -42.045 -45.055  12.108  1.00  0.00     0.273 C 
ENDBRANCH   8   9
ENDBRANCH   7   8
ENDBRANCH   1   7
BRANCH   4  16
HETATM   16  C   UNL     1     -41.487 -52.035  12.074  1.00  0.00     0.132 A 
HETATM   17  C   UNL     1     -40.850 -52.663  13.176  1.00  0.00     0.084 A 
HETATM   18  C   UNL     1     -41.723 -53.651  13.566  1.00  0.00     0.076 A 
HETATM   19  C   UNL     1     -41.749 -54.662  14.637  1.00  0.00     0.079 C 
HETATM   20  O   UNL     1     -42.795 -53.645  12.735  1.00  0.00    -0.241 OA
HETATM   21  N   UNL     1     -42.645 -52.646  11.803  1.00  0.00    -0.245 N 
ATOM     22  HN  UNL     1     -43.293 -52.415  11.049  1.00  0.00     0.196 HD
ENDBRANCH   4  16
TORSDOF 4
ENDMDL
MODEL 8
REMARK VINA RESULT:      -5.3      4.027      5.788
REMARK  4 active torsions:
REMARK  status: ('A' for Active; 'I' for Inactive)
REMARK    1  A    between atoms: N_7  and  C_8 
REMARK    2  A    between atoms: C_8  and  C_9 
REMARK    3  A    between atoms: C_9  and  N_10 
REMARK       I    between atoms: N_10  and  C_11 
REMARK       I    between atoms: C_11  and  N_13 
REMARK    4  A    between atoms: N_13  and  C_14 
ROOT
HETATM    1  N   UNL     1     -40.133 -46.921  11.498  1.00  0.00    -0.341 N 
HETATM    2  C   UNL     1     -41.378 -47.400  11.132  1.00  0.00     0.321 C 
HETATM    3  O   UNL     1     -42.069 -48.040  11.916  1.00  0.00    -0.247 OA
HETATM    4  N   UNL     1     -41.688 -47.117   9.824  1.00  0.00    -0.293 N 
HETATM    5  H   UNL     1     -39.892 -46.003  11.147  1.00  0.00     0.164 HD
HETATM    6  H   UNL     1     -40.921 -46.924   9.200  1.00  0.00     0.172 HD
ENDROOT
BRANCH   1   7
HETATM    7  C   UNL     1     -39.724 -47.177  12.871  1.00  0.00     0.154 C 
BRANCH   7   8
HETATM    8  C   UNL     1     -38.767 -48.367  13.035  1.00  0.00     0.292 C 
BRANCH   8   9
HETATM    9  N   UNL     1     -39.399 -49.628  13.482  1.00  0.00     0.094 N 
HETATM   10  C   UNL     1     -38.783 -50.126  14.739  1.00  0.00     0.219 C 
HETATM   11  C   UNL     1     -37.265 -50.376  14.684  1.00  0.00     0.043 C 
HETATM   12  C   UNL     1     -39.519 -51.392  15.221  1.00  0.00     0.035 C 
HETATM   13  C   UNL     1     -39.560 -52.481  14.155  1.00  0.00     0.004 C 
HETATM   14  C   UNL     1     -40.128 -51.922  12.861  1.00  0.00     0.030 C 
HETATM   15  C   UNL     1     -39.401 -50.651  12.422  1.00  0.00     0.273 C 
ENDBRANCH   8   9
ENDBRANCH   7   8
ENDBRANCH   1   7
BRANCH   4  16
HETATM   16  C   UNL     1     -42.917 -47.432   9.265  1.00  0.00     0.132 A 
HETATM   17  C   UNL     1     -44.171 -47.212   9.889  1.00  0.00     0.084 A 
HETATM   18  C   UNL     1     -45.098 -47.651   8.973  1.00  0.00     0.076 A 
HETATM   19  C   UNL     1     -46.569 -47.704   8.914  1.00  0.00     0.079 C 
HETATM   20  O   UNL     1     -44.447 -48.135   7.886  1.00  0.00    -0.241 OA
HETATM   21  N   UNL     1     -43.091 -48.006   8.070  1.00  0.00    -0.245 N 
ATOM     22  HN  UNL     1     -42.359 -48.294   7.421  1.00  0.00     0.196 HD
ENDBRANCH   4  16
TORSDOF 4
ENDMDL
MODEL 9
REMARK VINA RESULT:      -5.2      2.831      4.134
REMARK  4 active torsions:
REMARK  status: ('A' for Active; 'I' for Inactive)
REMARK    1  A    between atoms: N_7  and  C_8 
REMARK    2  A    between atoms: C_8  and  C_9 
REMARK    3  A    between atoms: C_9  and  N_10 
REMARK       I    between atoms: N_10  and  C_11 
REMARK       I    between atoms: C_11  and  N_13 
REMARK    4  A    between atoms: N_13  and  C_14 
ROOT
HETATM    1  N   UNL     1     -38.765 -49.296  12.286  1.00  0.00    -0.341 N 
HETATM    2  C   UNL     1     -39.544 -48.154  12.311  1.00  0.00     0.321 C 
HETATM    3  O   UNL     1     -40.159 -47.825  13.319  1.00  0.00    -0.247 OA
HETATM    4  N   UNL     1     -39.573 -47.509  11.099  1.00  0.00    -0.293 N 
HETATM    5  H   UNL     1     -37.896 -49.227  11.772  1.00  0.00     0.164 HD
HETATM    6  H   UNL     1     -39.345 -48.052  10.282  1.00  0.00     0.172 HD
ENDROOT
BRANCH   1   7
HETATM    7  C   UNL     1     -38.678 -50.043  13.532  1.00  0.00     0.154 C 
BRANCH   7   8
HETATM    8  C   UNL     1     -38.859 -51.560  13.374  1.00  0.00     0.292 C 
BRANCH   8   9
HETATM    9  N   UNL     1     -40.248 -52.048  13.520  1.00  0.00     0.094 N 
HETATM   10  C   UNL     1     -40.309 -53.266  14.368  1.00  0.00     0.219 C 
HETATM   11  C   UNL     1     -39.460 -54.457  13.886  1.00  0.00     0.043 C 
HETATM   12  C   UNL     1     -41.775 -53.697  14.568  1.00  0.00     0.035 C 
HETATM   13  C   UNL     1     -42.504 -53.907  13.247  1.00  0.00     0.004 C 
HETATM   14  C   UNL     1     -42.364 -52.671  12.372  1.00  0.00     0.030 C 
HETATM   15  C   UNL     1     -40.904 -52.247  12.216  1.00  0.00     0.273 C 
ENDBRANCH   8   9
ENDBRANCH   7   8
ENDBRANCH   1   7
BRANCH   4  16
HETATM   16  C   UNL     1     -40.227 -46.301  10.914  1.00  0.00     0.132 A 
HETATM   17  C   UNL     1     -39.854 -45.075  11.522  1.00  0.00     0.084 A 
HETATM   18  C   UNL     1     -40.759 -44.157  11.042  1.00  0.00     0.076 A 
HETATM   19  C   UNL     1     -40.968 -42.709  11.206  1.00  0.00     0.079 C 
HETATM   20  O   UNL     1     -41.639 -44.792  10.228  1.00  0.00    -0.241 OA
HETATM   21  N   UNL     1     -41.313 -46.126  10.154  1.00  0.00    -0.245 N 
ATOM     22  HN  UNL     1     -41.806 -46.843   9.622  1.00  0.00     0.196 HD
ENDBRANCH   4  16
TORSDOF 4
ENDMDL
