MODEL 1
REMARK VINA RESULT:      -6.0      0.000      0.000
REMARK  6 active torsions:
REMARK  status: ('A' for Active; 'I' for Inactive)
REMARK    1  A    between atoms: C_2  and  C_3 
REMARK    2  A    between atoms: C_2  and  C_13 
REMARK    3  A    between atoms: C_3  and  N_4 
REMARK       I    between atoms: N_4  and  C_5 
REMARK    4  A    between atoms: C_5  and  C_7 
REMARK    5  A    between atoms: C_7  and  O_8 
REMARK    6  A    between atoms: O_8  and  C_9 
ROOT
HETATM    1  C   UNL     1     -43.378 -47.695  10.846  1.00  0.00     0.134 C 
ENDROOT
BRANCH   1   2
HETATM    2  C   UNL     1     -43.636 -47.232   9.398  1.00  0.00     0.069 C 
HETATM    3  C   UNL     1     -43.282 -45.756   9.211  1.00  0.00     0.020 C 
BRANCH   2   4
HETATM    4  C   UNL     1     -45.066 -47.479   9.043  1.00  0.00     0.112 A 
HETATM    5  N   UNL     1     -46.144 -46.917   9.549  1.00  0.00    -0.273 N 
HETATM    6  N   UNL     1     -47.213 -47.490   8.905  1.00  0.00    -0.007 NA
ATOM      7  HN  UNL     1     -46.179 -46.200  10.275  1.00  0.00     0.185 HD
HETATM    8  N   UNL     1     -46.805 -48.395   8.025  1.00  0.00    -0.007 NA
HETATM    9  N   UNL     1     -45.468 -48.392   8.108  1.00  0.00    -0.273 N 
HETATM   10  H   UNL     1     -44.927 -49.017   7.530  1.00  0.00     0.185 HD
ENDBRANCH   2   4
ENDBRANCH   1   2
BRANCH   1  11
HETATM   11  N   UNL     1     -42.434 -48.796  10.946  1.00  0.00    -0.358 N 
HETATM   12  C   UNL     1     -41.078 -48.581  11.056  1.00  0.00     0.241 C 
HETATM   13  O   UNL     1     -40.592 -47.454  11.139  1.00  0.00    -0.271 OA
HETATM   14  H   UNL     1     -42.746 -49.747  10.770  1.00  0.00     0.162 HD
BRANCH  12  15
HETATM   15  C   UNL     1     -40.239 -49.857  11.191  1.00  0.00     0.271 C 
BRANCH  15  16
HETATM   16  O   UNL     1     -39.700 -50.062  12.492  1.00  0.00    -0.372 OA
BRANCH  16  17
HETATM   17  C   UNL     1     -38.268 -49.921  12.615  1.00  0.00     0.050 C 
HETATM   18  C   UNL     1     -37.919 -48.697  13.474  1.00  0.00     0.045 C 
HETATM   19  C   UNL     1     -37.769 -51.180  13.343  1.00  0.00     0.045 C 
HETATM   20  C   UNL     1     -37.560 -49.847  11.255  1.00  0.00     0.045 C 
ENDBRANCH  16  17
ENDBRANCH  15  16
ENDBRANCH  12  15
ENDBRANCH   1  11
TORSDOF 6
ENDMDL
MODEL 2
REMARK VINA RESULT:      -5.5      2.870      3.872
REMARK  6 active torsions:
REMARK  status: ('A' for Active; 'I' for Inactive)
REMARK    1  A    between atoms: C_2  and  C_3 
REMARK    2  A    between atoms: C_2  and  C_13 
REMARK    3  A    between atoms: C_3  and  N_4 
REMARK       I    between atoms: N_4  and  C_5 
REMARK    4  A    between atoms: C_5  and  C_7 
REMARK    5  A    between atoms: C_7  and  O_8 
REMARK    6  A    between atoms: O_8  and  C_9 
ROOT
HETATM    1  C   UNL     1     -42.665 -47.780   9.520  1.00  0.00     0.134 C 
ENDROOT
BRANCH   1   2
HETATM    2  C   UNL     1     -43.566 -46.753   8.804  1.00  0.00     0.069 C 
HETATM    3  C   UNL     1     -43.581 -45.413   9.540  1.00  0.00     0.020 C 
BRANCH   2   4
HETATM    4  C   UNL     1     -44.950 -47.303   8.684  1.00  0.00     0.112 A 
HETATM    5  N   UNL     1     -45.360 -48.347   7.992  1.00  0.00    -0.273 N 
HETATM    6  N   UNL     1     -46.716 -48.430   8.193  1.00  0.00    -0.007 NA
ATOM      7  HN  UNL     1     -44.785 -48.969   7.423  1.00  0.00     0.185 HD
HETATM    8  N   UNL     1     -47.139 -47.452   8.983  1.00  0.00    -0.007 NA
HETATM    9  N   UNL     1     -46.041 -46.747   9.290  1.00  0.00    -0.273 N 
HETATM   10  H   UNL     1     -46.117 -45.934   9.883  1.00  0.00     0.185 HD
ENDBRANCH   2   4
ENDBRANCH   1   2
BRANCH   1  11
HETATM   11  N   UNL     1     -43.169 -48.187  10.822  1.00  0.00    -0.358 N 
HETATM   12  C   UNL     1     -42.392 -48.898  11.709  1.00  0.00     0.241 C 
HETATM   13  O   UNL     1     -41.215 -49.176  11.483  1.00  0.00    -0.271 OA
HETATM   14  H   UNL     1     -44.158 -48.095  11.032  1.00  0.00     0.162 HD
BRANCH  12  15
HETATM   15  C   UNL     1     -43.073 -49.205  13.048  1.00  0.00     0.271 C 
BRANCH  15  16
HETATM   16  O   UNL     1     -44.255 -49.990  12.931  1.00  0.00    -0.372 OA
BRANCH  16  17
HETATM   17  C   UNL     1     -44.405 -51.057  13.892  1.00  0.00     0.050 C 
HETATM   18  C   UNL     1     -43.998 -50.581  15.295  1.00  0.00     0.045 C 
HETATM   19  C   UNL     1     -45.902 -51.410  13.918  1.00  0.00     0.045 C 
HETATM   20  C   UNL     1     -43.626 -52.321  13.503  1.00  0.00     0.045 C 
ENDBRANCH  16  17
ENDBRANCH  15  16
ENDBRANCH  12  15
ENDBRANCH   1  11
TORSDOF 6
ENDMDL
MODEL 3
REMARK VINA RESULT:      -5.4      3.612      5.126
REMARK  6 active torsions:
REMARK  status: ('A' for Active; 'I' for Inactive)
REMARK    1  A    between atoms: C_2  and  C_3 
REMARK    2  A    between atoms: C_2  and  C_13 
REMARK    3  A    between atoms: C_3  and  N_4 
REMARK       I    between atoms: N_4  and  C_5 
REMARK    4  A    between atoms: C_5  and  C_7 
REMARK    5  A    between atoms: C_7  and  O_8 
REMARK    6  A    between atoms: O_8  and  C_9 
ROOT
HETATM    1  C   UNL     1     -41.619 -48.921  11.450  1.00  0.00     0.134 C 
ENDROOT
BRANCH   1   2
HETATM    2  C   UNL     1     -42.145 -47.492  11.204  1.00  0.00     0.069 C 
HETATM    3  C   UNL     1     -42.829 -46.926  12.450  1.00  0.00     0.020 C 
BRANCH   2   4
HETATM    4  C   UNL     1     -43.088 -47.500  10.045  1.00  0.00     0.112 A 
HETATM    5  N   UNL     1     -44.358 -47.152  10.020  1.00  0.00    -0.273 N 
HETATM    6  N   UNL     1     -44.784 -47.352   8.730  1.00  0.00    -0.007 NA
ATOM      7  HN  UNL     1     -44.914 -46.804  10.802  1.00  0.00     0.185 HD
HETATM    8  N   UNL     1     -43.801 -47.823   7.974  1.00  0.00    -0.007 NA
HETATM    9  N   UNL     1     -42.743 -47.917   8.790  1.00  0.00    -0.273 N 
HETATM   10  H   UNL     1     -41.865 -48.267   8.436  1.00  0.00     0.185 HD
ENDBRANCH   2   4
ENDBRANCH   1   2
BRANCH   1  11
HETATM   11  N   UNL     1     -42.643 -49.848  11.903  1.00  0.00    -0.358 N 
HETATM   12  C   UNL     1     -42.333 -50.963  12.648  1.00  0.00     0.241 C 
HETATM   13  O   UNL     1     -41.188 -51.208  13.027  1.00  0.00    -0.271 OA
HETATM   14  H   UNL     1     -43.588 -49.775  11.537  1.00  0.00     0.162 HD
BRANCH  12  15
HETATM   15  C   UNL     1     -43.543 -51.804  13.072  1.00  0.00     0.271 C 
BRANCH  15  16
HETATM   16  O   UNL     1     -44.760 -51.069  13.154  1.00  0.00    -0.372 OA
BRANCH  16  17
HETATM   17  C   UNL     1     -45.963 -51.851  13.309  1.00  0.00     0.050 C 
HETATM   18  C   UNL     1     -46.841 -51.745  12.053  1.00  0.00     0.045 C 
HETATM   19  C   UNL     1     -45.513 -53.314  13.461  1.00  0.00     0.045 C 
HETATM   20  C   UNL     1     -46.763 -51.469  14.563  1.00  0.00     0.045 C 
ENDBRANCH  16  17
ENDBRANCH  15  16
ENDBRANCH  12  15
ENDBRANCH   1  11
TORSDOF 6
ENDMDL
MODEL 4
REMARK VINA RESULT:      -5.4      4.832      5.760
REMARK  6 active torsions:
REMARK  status: ('A' for Active; 'I' for Inactive)
REMARK    1  A    between atoms: C_2  and  C_3 
REMARK    2  A    between atoms: C_2  and  C_13 
REMARK    3  A    between atoms: C_3  and  N_4 
REMARK       I    between atoms: N_4  and  C_5 
REMARK    4  A    between atoms: C_5  and  C_7 
REMARK    5  A    between atoms: C_7  and  O_8 
REMARK    6  A    between atoms: O_8  and  C_9 
ROOT
HETATM    1  C   UNL     1     -44.465 -51.312  13.258  1.00  0.00     0.134 C 
ENDROOT
BRANCH   1   2
HETATM    2  C   UNL     1     -45.458 -52.247  12.537  1.00  0.00     0.069 C 
HETATM    3  C   UNL     1     -46.800 -51.555  12.292  1.00  0.00     0.020 C 
BRANCH   2   4
HETATM    4  C   UNL     1     -45.646 -53.491  13.342  1.00  0.00     0.112 A 
HETATM    5  N   UNL     1     -46.658 -53.817  14.120  1.00  0.00    -0.273 N 
HETATM    6  N   UNL     1     -46.353 -55.048  14.648  1.00  0.00    -0.007 NA
ATOM      7  HN  UNL     1     -47.499 -53.267  14.296  1.00  0.00     0.185 HD
HETATM    8  N   UNL     1     -45.173 -55.470  14.214  1.00  0.00    -0.007 NA
HETATM    9  N   UNL     1     -44.729 -54.502  13.400  1.00  0.00    -0.273 N 
HETATM   10  H   UNL     1     -43.830 -54.597  12.950  1.00  0.00     0.185 HD
ENDBRANCH   2   4
ENDBRANCH   1   2
BRANCH   1  11
HETATM   11  N   UNL     1     -43.216 -51.123  12.537  1.00  0.00    -0.358 N 
HETATM   12  C   UNL     1     -42.116 -51.916  12.773  1.00  0.00     0.241 C 
HETATM   13  O   UNL     1     -42.139 -52.865  13.555  1.00  0.00    -0.271 OA
HETATM   14  H   UNL     1     -43.085 -50.295  11.963  1.00  0.00     0.162 HD
BRANCH  12  15
HETATM   15  C   UNL     1     -40.901 -51.598  11.892  1.00  0.00     0.271 C 
BRANCH  15  16
HETATM   16  O   UNL     1     -39.648 -51.838  12.524  1.00  0.00    -0.372 OA
BRANCH  16  17
HETATM   17  C   UNL     1     -38.889 -50.666  12.891  1.00  0.00     0.050 C 
HETATM   18  C   UNL     1     -39.050 -50.368  14.390  1.00  0.00     0.045 C 
HETATM   19  C   UNL     1     -37.413 -51.004  12.622  1.00  0.00     0.045 C 
HETATM   20  C   UNL     1     -39.254 -49.434  12.052  1.00  0.00     0.045 C 
ENDBRANCH  16  17
ENDBRANCH  15  16
ENDBRANCH  12  15
ENDBRANCH   1  11
TORSDOF 6
ENDMDL
MODEL 5
REMARK VINA RESULT:      -5.2      2.393      3.267
REMARK  6 active torsions:
REMARK  status: ('A' for Active; 'I' for Inactive)
REMARK    1  A    between atoms: C_2  and  C_3 
REMARK    2  A    between atoms: C_2  and  C_13 
REMARK    3  A    between atoms: C_3  and  N_4 
REMARK       I    between atoms: N_4  and  C_5 
REMARK    4  A    between atoms: C_5  and  C_7 
REMARK    5  A    between atoms: C_7  and  O_8 
REMARK    6  A    between atoms: O_8  and  C_9 
ROOT
HETATM    1  C   UNL     1     -41.113 -48.367  10.797  1.00  0.00     0.134 C 
ENDROOT
BRANCH   1   2
HETATM    2  C   UNL     1     -42.287 -47.394  11.030  1.00  0.00     0.069 C 
HETATM    3  C   UNL     1     -42.977 -47.661  12.368  1.00  0.00     0.020 C 
BRANCH   2   4
HETATM    4  C   UNL     1     -43.262 -47.510   9.904  1.00  0.00     0.112 A 
HETATM    5  N   UNL     1     -44.568 -47.335   9.929  1.00  0.00    -0.273 N 
HETATM    6  N   UNL     1     -45.010 -47.569   8.650  1.00  0.00    -0.007 NA
ATOM      7  HN  UNL     1     -45.136 -47.076  10.736  1.00  0.00     0.185 HD
HETATM    8  N   UNL     1     -44.001 -47.894   7.852  1.00  0.00    -0.007 NA
HETATM    9  N   UNL     1     -42.911 -47.858   8.630  1.00  0.00    -0.273 N 
HETATM   10  H   UNL     1     -42.007 -48.082   8.238  1.00  0.00     0.185 HD
ENDBRANCH   2   4
ENDBRANCH   1   2
BRANCH   1  11
HETATM   11  N   UNL     1     -41.433 -49.751  11.110  1.00  0.00    -0.358 N 
HETATM   12  C   UNL     1     -40.560 -50.557  11.805  1.00  0.00     0.241 C 
HETATM   13  O   UNL     1     -39.492 -50.143  12.254  1.00  0.00    -0.271 OA
HETATM   14  H   UNL     1     -42.239 -50.193  10.677  1.00  0.00     0.162 HD
BRANCH  12  15
HETATM   15  C   UNL     1     -41.082 -51.973  12.080  1.00  0.00     0.271 C 
BRANCH  15  16
HETATM   16  O   UNL     1     -40.075 -52.892  12.492  1.00  0.00    -0.372 OA
BRANCH  16  17
HETATM   17  C   UNL     1     -40.307 -53.564  13.748  1.00  0.00     0.050 C 
HETATM   18  C   UNL     1     -40.298 -52.558  14.908  1.00  0.00     0.045 C 
HETATM   19  C   UNL     1     -41.714 -54.181  13.656  1.00  0.00     0.045 C 
HETATM   20  C   UNL     1     -39.308 -54.700  14.008  1.00  0.00     0.045 C 
ENDBRANCH  16  17
ENDBRANCH  15  16
ENDBRANCH  12  15
ENDBRANCH   1  11
TORSDOF 6
ENDMDL
MODEL 6
REMARK VINA RESULT:      -5.2      3.111      4.345
REMARK  6 active torsions:
REMARK  status: ('A' for Active; 'I' for Inactive)
REMARK    1  A    between atoms: C_2  and  C_3 
REMARK    2  A    between atoms: C_2  and  C_13 
REMARK    3  A    between atoms: C_3  and  N_4 
REMARK       I    between atoms: N_4  and  C_5 
REMARK    4  A    between atoms: C_5  and  C_7 
REMARK    5  A    between atoms: C_7  and  O_8 
REMARK    6  A    between atoms: O_8  and  C_9 
ROOT
HETATM    1  C   UNL     1     -41.066 -48.970  11.047  1.00  0.00     0.134 C 
ENDROOT
BRANCH   1   2
HETATM    2  C   UNL     1     -42.107 -47.867  11.328  1.00  0.00     0.069 C 
HETATM    3  C   UNL     1     -42.944 -48.190  12.566  1.00  0.00     0.020 C 
BRANCH   2   4
HETATM    4  C   UNL     1     -42.984 -47.693  10.131  1.00  0.00     0.112 A 
HETATM    5  N   UNL     1     -42.756 -48.065   8.888  1.00  0.00    -0.273 N 
HETATM    6  N   UNL     1     -43.853 -47.667   8.163  1.00  0.00    -0.007 NA
ATOM      7  HN  UNL     1     -41.932 -48.551   8.535  1.00  0.00     0.185 HD
HETATM    8  N   UNL     1     -44.736 -47.052   8.938  1.00  0.00    -0.007 NA
HETATM    9  N   UNL     1     -44.197 -47.066  10.165  1.00  0.00    -0.273 N 
HETATM   10  H   UNL     1     -44.692 -46.639  10.935  1.00  0.00     0.185 HD
ENDBRANCH   2   4
ENDBRANCH   1   2
BRANCH   1  11
HETATM   11  N   UNL     1     -41.510 -50.300  11.433  1.00  0.00    -0.358 N 
HETATM   12  C   UNL     1     -40.651 -51.213  12.002  1.00  0.00     0.241 C 
HETATM   13  O   UNL     1     -39.483 -50.943  12.275  1.00  0.00    -0.271 OA
HETATM   14  H   UNL     1     -42.422 -50.633  11.137  1.00  0.00     0.162 HD
BRANCH  12  15
HETATM   15  C   UNL     1     -41.302 -52.549  12.381  1.00  0.00     0.271 C 
BRANCH  15  16
HETATM   16  O   UNL     1     -42.681 -52.640  12.039  1.00  0.00    -0.372 OA
BRANCH  16  17
HETATM   17  C   UNL     1     -43.597 -52.809  13.142  1.00  0.00     0.050 C 
HETATM   18  C   UNL     1     -44.485 -54.044  12.922  1.00  0.00     0.045 C 
HETATM   19  C   UNL     1     -42.733 -53.053  14.391  1.00  0.00     0.045 C 
HETATM   20  C   UNL     1     -44.457 -51.563  13.397  1.00  0.00     0.045 C 
ENDBRANCH  16  17
ENDBRANCH  15  16
ENDBRANCH  12  15
ENDBRANCH   1  11
TORSDOF 6
ENDMDL
MODEL 7
REMARK VINA RESULT:      -5.2      3.571      6.988
REMARK  6 active torsions:
REMARK  status: ('A' for Active; 'I' for Inactive)
REMARK    1  A    between atoms: C_2  and  C_3 
REMARK    2  A    between atoms: C_2  and  C_13 
REMARK    3  A    between atoms: C_3  and  N_4 
REMARK       I    between atoms: N_4  and  C_5 
REMARK    4  A    between atoms: C_5  and  C_7 
REMARK    5  A    between atoms: C_7  and  O_8 
REMARK    6  A    between atoms: O_8  and  C_9 
ROOT
HETATM    1  C   UNL     1     -42.564 -51.030  12.834  1.00  0.00     0.134 C 
ENDROOT
BRANCH   1   2
HETATM    2  C   UNL     1     -42.383 -52.414  12.178  1.00  0.00     0.069 C 
HETATM    3  C   UNL     1     -43.592 -53.316  12.433  1.00  0.00     0.020 C 
BRANCH   2   4
HETATM    4  C   UNL     1     -41.135 -53.051  12.694  1.00  0.00     0.112 A 
HETATM    5  N   UNL     1     -40.788 -54.322  12.659  1.00  0.00    -0.273 N 
HETATM    6  N   UNL     1     -39.562 -54.402  13.273  1.00  0.00    -0.007 NA
ATOM      7  HN  UNL     1     -41.323 -55.092  12.256  1.00  0.00     0.185 HD
HETATM    8  N   UNL     1     -39.162 -53.207  13.688  1.00  0.00    -0.007 NA
HETATM    9  N   UNL     1     -40.140 -52.364  13.330  1.00  0.00    -0.273 N 
HETATM   10  H   UNL     1     -40.062 -51.382  13.553  1.00  0.00     0.185 HD
ENDBRANCH   2   4
ENDBRANCH   1   2
BRANCH   1  11
HETATM   11  N   UNL     1     -42.429 -49.923  11.901  1.00  0.00    -0.358 N 
HETATM   12  C   UNL     1     -41.312 -49.117  11.889  1.00  0.00     0.241 C 
HETATM   13  O   UNL     1     -40.342 -49.320  12.617  1.00  0.00    -0.271 OA
HETATM   14  H   UNL     1     -43.230 -49.625  11.351  1.00  0.00     0.162 HD
BRANCH  12  15
HETATM   15  C   UNL     1     -41.325 -48.026  10.811  1.00  0.00     0.271 C 
BRANCH  15  16
HETATM   16  O   UNL     1     -42.205 -48.294   9.725  1.00  0.00    -0.372 OA
BRANCH  16  17
HETATM   17  C   UNL     1     -43.200 -47.285   9.451  1.00  0.00     0.050 C 
HETATM   18  C   UNL     1     -42.680 -45.894   9.844  1.00  0.00     0.045 C 
HETATM   19  C   UNL     1     -43.428 -47.302   7.930  1.00  0.00     0.045 C 
HETATM   20  C   UNL     1     -44.544 -47.574  10.135  1.00  0.00     0.045 C 
ENDBRANCH  16  17
ENDBRANCH  15  16
ENDBRANCH  12  15
ENDBRANCH   1  11
TORSDOF 6
ENDMDL
MODEL 8
REMARK VINA RESULT:      -5.1      5.350      6.612
REMARK  6 active torsions:
REMARK  status: ('A' for Active; 'I' for Inactive)
REMARK    1  A    between atoms: C_2  and  C_3 
REMARK    2  A    between atoms: C_2  and  C_13 
REMARK    3  A    between atoms: C_3  and  N_4 
REMARK       I    between atoms: N_4  and  C_5 
REMARK    4  A    between atoms: C_5  and  C_7 
REMARK    5  A    between atoms: C_7  and  O_8 
REMARK    6  A    between atoms: O_8  and  C_9 
ROOT
HETATM    1  C   UNL     1     -42.047 -54.264  14.221  1.00  0.00     0.134 C 
ENDROOT
BRANCH   1   2
HETATM    2  C   UNL     1     -43.305 -54.254  13.328  1.00  0.00     0.069 C 
HETATM    3  C   UNL     1     -43.396 -52.969  12.504  1.00  0.00     0.020 C 
BRANCH   2   4
HETATM    4  C   UNL     1     -44.522 -54.420  14.180  1.00  0.00     0.112 A 
HETATM    5  N   UNL     1     -44.661 -54.171  15.466  1.00  0.00    -0.273 N 
HETATM    6  N   UNL     1     -45.957 -54.499  15.780  1.00  0.00    -0.007 NA
ATOM      7  HN  UNL     1     -43.950 -53.808  16.101  1.00  0.00     0.185 HD
HETATM    8  N   UNL     1     -46.604 -54.951  14.714  1.00  0.00    -0.007 NA
HETATM    9  N   UNL     1     -45.712 -54.903  13.715  1.00  0.00    -0.273 N 
HETATM   10  H   UNL     1     -45.977 -55.212  12.791  1.00  0.00     0.185 HD
ENDBRANCH   2   4
ENDBRANCH   1   2
BRANCH   1  11
HETATM   11  N   UNL     1     -41.264 -53.042  14.135  1.00  0.00    -0.358 N 
HETATM   12  C   UNL     1     -39.930 -53.059  13.795  1.00  0.00     0.241 C 
HETATM   13  O   UNL     1     -39.338 -54.092  13.486  1.00  0.00    -0.271 OA
HETATM   14  H   UNL     1     -41.649 -52.169  14.483  1.00  0.00     0.162 HD
BRANCH  12  15
HETATM   15  C   UNL     1     -39.275 -51.674  13.714  1.00  0.00     0.271 C 
BRANCH  15  16
HETATM   16  O   UNL     1     -38.825 -51.321  12.410  1.00  0.00    -0.372 OA
BRANCH  16  17
HETATM   17  C   UNL     1     -38.393 -49.954  12.238  1.00  0.00     0.050 C 
HETATM   18  C   UNL     1     -37.725 -49.434  13.519  1.00  0.00     0.045 C 
HETATM   19  C   UNL     1     -37.341 -49.970  11.116  1.00  0.00     0.045 C 
HETATM   20  C   UNL     1     -39.533 -49.021  11.805  1.00  0.00     0.045 C 
ENDBRANCH  16  17
ENDBRANCH  15  16
ENDBRANCH  12  15
ENDBRANCH   1  11
TORSDOF 6
ENDMDL
MODEL 9
REMARK VINA RESULT:      -5.0      4.360      5.207
REMARK  6 active torsions:
REMARK  status: ('A' for Active; 'I' for Inactive)
REMARK    1  A    between atoms: C_2  and  C_3 
REMARK    2  A    between atoms: C_2  and  C_13 
REMARK    3  A    between atoms: C_3  and  N_4 
REMARK       I    between atoms: N_4  and  C_5 
REMARK    4  A    between atoms: C_5  and  C_7 
REMARK    5  A    between atoms: C_7  and  O_8 
REMARK    6  A    between atoms: O_8  and  C_9 
ROOT
HETATM    1  C   UNL     1     -42.461 -48.863  11.944  1.00  0.00     0.134 C 
ENDROOT
BRANCH   1   2
HETATM    2  C   UNL     1     -41.630 -48.313  10.767  1.00  0.00     0.069 C 
HETATM    3  C   UNL     1     -40.423 -47.513  11.260  1.00  0.00     0.020 C 
BRANCH   2   4
HETATM    4  C   UNL     1     -42.500 -47.469   9.894  1.00  0.00     0.112 A 
HETATM    5  N   UNL     1     -42.223 -46.305   9.343  1.00  0.00    -0.273 N 
HETATM    6  N   UNL     1     -43.349 -45.933   8.650  1.00  0.00    -0.007 NA
ATOM      7  HN  UNL     1     -41.349 -45.785   9.415  1.00  0.00     0.185 HD
HETATM    8  N   UNL     1     -44.306 -46.842   8.778  1.00  0.00    -0.007 NA
HETATM    9  N   UNL     1     -43.781 -47.800   9.553  1.00  0.00    -0.273 N 
HETATM   10  H   UNL     1     -44.336 -48.606   9.801  1.00  0.00     0.185 HD
ENDBRANCH   2   4
ENDBRANCH   1   2
BRANCH   1  11
HETATM   11  N   UNL     1     -42.449 -50.314  12.036  1.00  0.00    -0.358 N 
HETATM   12  C   UNL     1     -43.271 -50.992  12.908  1.00  0.00     0.241 C 
HETATM   13  O   UNL     1     -44.104 -50.421  13.612  1.00  0.00    -0.271 OA
HETATM   14  H   UNL     1     -41.715 -50.843  11.575  1.00  0.00     0.162 HD
BRANCH  12  15
HETATM   15  C   UNL     1     -43.152 -52.519  12.840  1.00  0.00     0.271 C 
BRANCH  15  16
HETATM   16  O   UNL     1     -44.394 -53.204  12.966  1.00  0.00    -0.372 OA
BRANCH  16  17
HETATM   17  C   UNL     1     -44.526 -54.072  14.112  1.00  0.00     0.050 C 
HETATM   18  C   UNL     1     -45.471 -55.242  13.796  1.00  0.00     0.045 C 
HETATM   19  C   UNL     1     -43.125 -54.644  14.386  1.00  0.00     0.045 C 
HETATM   20  C   UNL     1     -44.990 -53.327  15.371  1.00  0.00     0.045 C 
ENDBRANCH  16  17
ENDBRANCH  15  16
ENDBRANCH  12  15
ENDBRANCH   1  11
TORSDOF 6
ENDMDL
