MODEL 1
REMARK VINA RESULT:      -6.2      0.000      0.000
REMARK  5 active torsions:
REMARK  status: ('A' for Active; 'I' for Inactive)
REMARK    1  A    between atoms: O_2  and  C_3 
REMARK    2  A    between atoms: C_6  and  N_7 
REMARK       I    between atoms: N_7  and  C_8 
REMARK       I    between atoms: C_8  and  N_10 
REMARK    3  A    between atoms: N_10  and  C_11 
REMARK    4  A    between atoms: C_11  and  C_12 
REMARK    5  A    between atoms: C_12  and  C_13 
REMARK       I    between atoms: C_13  and  N_15 
ROOT
HETATM    1  N   UNL     1     -41.810 -52.560  11.829  1.00  0.00    -0.308 N 
HETATM    2  C   UNL     1     -41.276 -51.319  12.110  1.00  0.00     0.320 C 
HETATM    3  O   UNL     1     -41.483 -50.662  13.121  1.00  0.00    -0.247 OA
HETATM    4  N   UNL     1     -40.463 -50.852  11.108  1.00  0.00    -0.342 N 
HETATM    5  H   UNL     1     -41.361 -53.093  11.102  1.00  0.00     0.170 HD
HETATM    6  H   UNL     1     -40.100 -51.484  10.408  1.00  0.00     0.164 HD
ENDROOT
BRANCH   1   7
HETATM    7  C   UNL     1     -42.804 -53.206  12.603  1.00  0.00     0.051 A 
HETATM    8  C   UNL     1     -42.505 -54.060  13.661  1.00  0.00     0.035 A 
HETATM    9  C   UNL     1     -43.530 -54.657  14.389  1.00  0.00     0.058 A 
HETATM   10  C   UNL     1     -44.838 -54.376  14.040  1.00  0.00     0.141 A 
HETATM   11  N   UNL     1     -45.181 -53.546  13.032  1.00  0.00    -0.345 N 
HETATM   12  C   UNL     1     -44.155 -52.977  12.344  1.00  0.00     0.119 A 
ATOM     13  HN  UNL     1     -46.156 -53.356  12.799  1.00  0.00     0.167 HD
BRANCH  10  14
HETATM   14  O   UNL     1     -45.804 -54.982  14.819  1.00  0.00    -0.341 OA
HETATM   15  C   UNL     1     -46.198 -54.209  15.944  1.00  0.00     0.211 C 
ENDBRANCH  10  14
ENDBRANCH   1   7
BRANCH   4  16
HETATM   16  C   UNL     1     -39.776 -49.578  11.251  1.00  0.00     0.133 C 
BRANCH  16  17
HETATM   17  C   UNL     1     -38.271 -49.722  11.477  1.00  0.00     0.122 C 
BRANCH  17  18
HETATM   18  C   UNL     1     -37.954 -50.489  12.747  1.00  0.00     0.221 C 
HETATM   19  O   UNL     1     -37.775 -51.708  12.729  1.00  0.00    -0.273 OA
HETATM   20  N   UNL     1     -37.868 -49.757  13.920  1.00  0.00    -0.348 N 
HETATM   21  C   UNL     1     -38.072 -48.310  14.065  1.00  0.00     0.152 C 
HETATM   22  C   UNL     1     -37.563 -50.431  15.185  1.00  0.00     0.152 C 
HETATM   23  C   UNL     1     -36.882 -47.686  14.805  1.00  0.00     0.187 C 
HETATM   24  O   UNL     1     -36.665 -48.329  16.071  1.00  0.00    -0.388 OA
HETATM   25  C   UNL     1     -36.399 -49.732  15.895  1.00  0.00     0.187 C 
ENDBRANCH  17  18
ENDBRANCH  16  17
ENDBRANCH   4  16
TORSDOF 5
ENDMDL
MODEL 2
REMARK VINA RESULT:      -6.1      2.635      8.009
REMARK  5 active torsions:
REMARK  status: ('A' for Active; 'I' for Inactive)
REMARK    1  A    between atoms: O_2  and  C_3 
REMARK    2  A    between atoms: C_6  and  N_7 
REMARK       I    between atoms: N_7  and  C_8 
REMARK       I    between atoms: C_8  and  N_10 
REMARK    3  A    between atoms: N_10  and  C_11 
REMARK    4  A    between atoms: C_11  and  C_12 
REMARK    5  A    between atoms: C_12  and  C_13 
REMARK       I    between atoms: C_13  and  N_15 
ROOT
HETATM    1  N   UNL     1     -40.890 -50.965  11.282  1.00  0.00    -0.308 N 
HETATM    2  C   UNL     1     -41.563 -51.652  12.271  1.00  0.00     0.320 C 
HETATM    3  O   UNL     1     -42.086 -51.157  13.260  1.00  0.00    -0.247 OA
HETATM    4  N   UNL     1     -41.589 -53.007  12.052  1.00  0.00    -0.342 N 
HETATM    5  H   UNL     1     -40.741 -51.451  10.412  1.00  0.00     0.170 HD
HETATM    6  H   UNL     1     -41.384 -53.380  11.136  1.00  0.00     0.164 HD
ENDROOT
BRANCH   1   7
HETATM    7  C   UNL     1     -40.569 -49.587  11.332  1.00  0.00     0.051 A 
HETATM    8  C   UNL     1     -39.538 -49.076  12.116  1.00  0.00     0.035 A 
HETATM    9  C   UNL     1     -39.268 -47.711  12.113  1.00  0.00     0.058 A 
HETATM   10  C   UNL     1     -40.038 -46.887  11.313  1.00  0.00     0.141 A 
HETATM   11  N   UNL     1     -41.041 -47.333  10.526  1.00  0.00    -0.345 N 
HETATM   12  C   UNL     1     -41.275 -48.672  10.551  1.00  0.00     0.119 A 
ATOM     13  HN  UNL     1     -41.592 -46.701   9.945  1.00  0.00     0.167 HD
BRANCH  10  14
HETATM   14  O   UNL     1     -39.700 -45.549  11.339  1.00  0.00    -0.341 OA
HETATM   15  C   UNL     1     -39.756 -44.921  10.066  1.00  0.00     0.211 C 
ENDBRANCH  10  14
ENDBRANCH   1   7
BRANCH   4  16
HETATM   16  C   UNL     1     -42.295 -53.887  12.969  1.00  0.00     0.133 C 
BRANCH  16  17
HETATM   17  C   UNL     1     -43.755 -54.121  12.583  1.00  0.00     0.122 C 
BRANCH  17  18
HETATM   18  C   UNL     1     -44.619 -54.456  13.785  1.00  0.00     0.221 C 
HETATM   19  O   UNL     1     -44.356 -55.414  14.513  1.00  0.00    -0.273 OA
HETATM   20  N   UNL     1     -45.707 -53.633  14.027  1.00  0.00    -0.348 N 
HETATM   21  C   UNL     1     -46.123 -52.475  13.226  1.00  0.00     0.152 C 
HETATM   22  C   UNL     1     -46.584 -53.896  15.170  1.00  0.00     0.152 C 
HETATM   23  C   UNL     1     -46.308 -51.252  14.133  1.00  0.00     0.187 C 
HETATM   24  O   UNL     1     -47.231 -51.531  15.197  1.00  0.00    -0.388 OA
HETATM   25  C   UNL     1     -46.765 -52.624  16.007  1.00  0.00     0.187 C 
ENDBRANCH  17  18
ENDBRANCH  16  17
ENDBRANCH   4  16
TORSDOF 5
ENDMDL
MODEL 3
REMARK VINA RESULT:      -6.1      3.480      7.698
REMARK  5 active torsions:
REMARK  status: ('A' for Active; 'I' for Inactive)
REMARK    1  A    between atoms: O_2  and  C_3 
REMARK    2  A    between atoms: C_6  and  N_7 
REMARK       I    between atoms: N_7  and  C_8 
REMARK       I    between atoms: C_8  and  N_10 
REMARK    3  A    between atoms: N_10  and  C_11 
REMARK    4  A    between atoms: C_11  and  C_12 
REMARK    5  A    between atoms: C_12  and  C_13 
REMARK       I    between atoms: C_13  and  N_15 
ROOT
HETATM    1  N   UNL     1     -41.209 -49.011  10.474  1.00  0.00    -0.308 N 
HETATM    2  C   UNL     1     -41.179 -49.805  11.601  1.00  0.00     0.320 C 
HETATM    3  O   UNL     1     -41.669 -49.528  12.687  1.00  0.00    -0.247 OA
HETATM    4  N   UNL     1     -40.511 -50.987  11.400  1.00  0.00    -0.342 N 
HETATM    5  H   UNL     1     -41.005 -49.461   9.596  1.00  0.00     0.170 HD
HETATM    6  H   UNL     1     -40.331 -51.319  10.463  1.00  0.00     0.164 HD
ENDROOT
BRANCH   1   7
HETATM    7  C   UNL     1     -41.685 -47.678  10.437  1.00  0.00     0.051 A 
HETATM    8  C   UNL     1     -40.894 -46.581  10.767  1.00  0.00     0.035 A 
HETATM    9  C   UNL     1     -41.421 -45.294  10.702  1.00  0.00     0.058 A 
HETATM   10  C   UNL     1     -42.734 -45.138  10.299  1.00  0.00     0.141 A 
HETATM   11  N   UNL     1     -43.539 -46.167   9.957  1.00  0.00    -0.345 N 
HETATM   12  C   UNL     1     -42.992 -47.409  10.029  1.00  0.00     0.119 A 
ATOM     13  HN  UNL     1     -44.505 -46.020   9.661  1.00  0.00     0.167 HD
BRANCH  10  14
HETATM   14  O   UNL     1     -43.184 -43.834  10.233  1.00  0.00    -0.341 OA
HETATM   15  C   UNL     1     -42.637 -42.990  11.236  1.00  0.00     0.211 C 
ENDBRANCH  10  14
ENDBRANCH   1   7
BRANCH   4  16
HETATM   16  C   UNL     1     -40.417 -51.971  12.466  1.00  0.00     0.133 C 
BRANCH  16  17
HETATM   17  C   UNL     1     -41.256 -53.223  12.212  1.00  0.00     0.122 C 
BRANCH  17  18
HETATM   18  C   UNL     1     -41.708 -53.882  13.501  1.00  0.00     0.221 C 
HETATM   19  O   UNL     1     -40.909 -54.130  14.406  1.00  0.00    -0.273 OA
HETATM   20  N   UNL     1     -43.055 -54.183  13.616  1.00  0.00    -0.348 N 
HETATM   21  C   UNL     1     -44.093 -53.946  12.605  1.00  0.00     0.152 C 
HETATM   22  C   UNL     1     -43.563 -54.819  14.834  1.00  0.00     0.152 C 
HETATM   23  C   UNL     1     -45.269 -53.186  13.231  1.00  0.00     0.187 C 
HETATM   24  O   UNL     1     -45.782 -53.882  14.378  1.00  0.00    -0.388 OA
HETATM   25  C   UNL     1     -44.764 -54.039  15.381  1.00  0.00     0.187 C 
ENDBRANCH  17  18
ENDBRANCH  16  17
ENDBRANCH   4  16
TORSDOF 5
ENDMDL
MODEL 4
REMARK VINA RESULT:      -6.0      3.342      6.010
REMARK  5 active torsions:
REMARK  status: ('A' for Active; 'I' for Inactive)
REMARK    1  A    between atoms: O_2  and  C_3 
REMARK    2  A    between atoms: C_6  and  N_7 
REMARK       I    between atoms: N_7  and  C_8 
REMARK       I    between atoms: C_8  and  N_10 
REMARK    3  A    between atoms: N_10  and  C_11 
REMARK    4  A    between atoms: C_11  and  C_12 
REMARK    5  A    between atoms: C_12  and  C_13 
REMARK       I    between atoms: C_13  and  N_15 
ROOT
HETATM    1  N   UNL     1     -41.003 -49.301  10.560  1.00  0.00    -0.308 N 
HETATM    2  C   UNL     1     -41.354 -50.224  11.522  1.00  0.00     0.320 C 
HETATM    3  O   UNL     1     -42.248 -50.096  12.347  1.00  0.00    -0.247 OA
HETATM    4  N   UNL     1     -40.571 -51.351  11.486  1.00  0.00    -0.342 N 
HETATM    5  H   UNL     1     -40.439 -49.634   9.795  1.00  0.00     0.170 HD
HETATM    6  H   UNL     1     -40.016 -51.562  10.669  1.00  0.00     0.164 HD
ENDROOT
BRANCH   1   7
HETATM    7  C   UNL     1     -41.529 -47.989  10.470  1.00  0.00     0.051 A 
HETATM    8  C   UNL     1     -42.760 -47.703   9.886  1.00  0.00     0.035 A 
HETATM    9  C   UNL     1     -43.223 -46.392   9.838  1.00  0.00     0.058 A 
HETATM   10  C   UNL     1     -42.439 -45.394  10.385  1.00  0.00     0.141 A 
HETATM   11  N   UNL     1     -41.244 -45.619  10.973  1.00  0.00    -0.345 N 
HETATM   12  C   UNL     1     -40.823 -46.911  11.005  1.00  0.00     0.119 A 
ATOM     13  HN  UNL     1     -40.687 -44.861  11.370  1.00  0.00     0.167 HD
BRANCH  10  14
HETATM   14  O   UNL     1     -42.970 -44.120  10.325  1.00  0.00    -0.341 OA
HETATM   15  C   UNL     1     -42.672 -43.323  11.462  1.00  0.00     0.211 C 
ENDBRANCH  10  14
ENDBRANCH   1   7
BRANCH   4  16
HETATM   16  C   UNL     1     -40.826 -52.454  12.400  1.00  0.00     0.133 C 
BRANCH  16  17
HETATM   17  C   UNL     1     -39.932 -52.434  13.639  1.00  0.00     0.122 C 
BRANCH  17  18
HETATM   18  C   UNL     1     -38.767 -51.474  13.491  1.00  0.00     0.221 C 
HETATM   19  O   UNL     1     -37.815 -51.735  12.753  1.00  0.00    -0.273 OA
HETATM   20  N   UNL     1     -38.827 -50.294  14.213  1.00  0.00    -0.348 N 
HETATM   21  C   UNL     1     -39.899 -49.883  15.128  1.00  0.00     0.152 C 
HETATM   22  C   UNL     1     -37.737 -49.320  14.118  1.00  0.00     0.152 C 
HETATM   23  C   UNL     1     -40.385 -48.474  14.763  1.00  0.00     0.187 C 
HETATM   24  O   UNL     1     -39.297 -47.537  14.752  1.00  0.00    -0.388 OA
HETATM   25  C   UNL     1     -38.294 -47.928  13.798  1.00  0.00     0.187 C 
ENDBRANCH  17  18
ENDBRANCH  16  17
ENDBRANCH   4  16
TORSDOF 5
ENDMDL
MODEL 5
REMARK VINA RESULT:      -6.0      3.578      7.380
REMARK  5 active torsions:
REMARK  status: ('A' for Active; 'I' for Inactive)
REMARK    1  A    between atoms: O_2  and  C_3 
REMARK    2  A    between atoms: C_6  and  N_7 
REMARK       I    between atoms: N_7  and  C_8 
REMARK       I    between atoms: C_8  and  N_10 
REMARK    3  A    between atoms: N_10  and  C_11 
REMARK    4  A    between atoms: C_11  and  C_12 
REMARK    5  A    between atoms: C_12  and  C_13 
REMARK       I    between atoms: C_13  and  N_15 
ROOT
HETATM    1  N   UNL     1     -41.561 -50.542  13.149  1.00  0.00    -0.308 N 
HETATM    2  C   UNL     1     -41.619 -51.909  12.980  1.00  0.00     0.320 C 
HETATM    3  O   UNL     1     -41.877 -52.494  11.937  1.00  0.00    -0.247 OA
HETATM    4  N   UNL     1     -41.361 -52.598  14.140  1.00  0.00    -0.342 N 
HETATM    5  H   UNL     1     -41.090 -50.205  13.972  1.00  0.00     0.170 HD
HETATM    6  H   UNL     1     -40.912 -52.137  14.918  1.00  0.00     0.164 HD
ENDROOT
BRANCH   1   7
HETATM    7  C   UNL     1     -41.940 -49.591  12.170  1.00  0.00     0.051 A 
HETATM    8  C   UNL     1     -43.103 -48.831  12.261  1.00  0.00     0.035 A 
HETATM    9  C   UNL     1     -43.414 -47.907  11.268  1.00  0.00     0.058 A 
HETATM   10  C   UNL     1     -42.542 -47.761  10.206  1.00  0.00     0.141 A 
HETATM   11  N   UNL     1     -41.396 -48.464  10.076  1.00  0.00    -0.345 N 
HETATM   12  C   UNL     1     -41.122 -49.356  11.065  1.00  0.00     0.119 A 
ATOM     13  HN  UNL     1     -40.771 -48.333   9.280  1.00  0.00     0.167 HD
BRANCH  10  14
HETATM   14  O   UNL     1     -42.899 -46.809   9.271  1.00  0.00    -0.341 OA
HETATM   15  C   UNL     1     -43.577 -47.344   8.142  1.00  0.00     0.211 C 
ENDBRANCH  10  14
ENDBRANCH   1   7
BRANCH   4  16
HETATM   16  C   UNL     1     -41.334 -54.052  14.142  1.00  0.00     0.133 C 
BRANCH  16  17
HETATM   17  C   UNL     1     -42.672 -54.684  14.522  1.00  0.00     0.122 C 
BRANCH  17  18
HETATM   18  C   UNL     1     -43.553 -53.731  15.309  1.00  0.00     0.221 C 
HETATM   19  O   UNL     1     -43.200 -53.295  16.406  1.00  0.00    -0.273 OA
HETATM   20  N   UNL     1     -44.762 -53.372  14.735  1.00  0.00    -0.348 N 
HETATM   21  C   UNL     1     -45.289 -53.836  13.446  1.00  0.00     0.152 C 
HETATM   22  C   UNL     1     -45.663 -52.455  15.438  1.00  0.00     0.152 C 
HETATM   23  C   UNL     1     -45.707 -52.633  12.590  1.00  0.00     0.187 C 
HETATM   24  O   UNL     1     -46.646 -51.801  13.289  1.00  0.00    -0.388 OA
HETATM   25  C   UNL     1     -46.078 -51.305  14.514  1.00  0.00     0.187 C 
ENDBRANCH  17  18
ENDBRANCH  16  17
ENDBRANCH   4  16
TORSDOF 5
ENDMDL
MODEL 6
REMARK VINA RESULT:      -5.8      1.948      3.346
REMARK  5 active torsions:
REMARK  status: ('A' for Active; 'I' for Inactive)
REMARK    1  A    between atoms: O_2  and  C_3 
REMARK    2  A    between atoms: C_6  and  N_7 
REMARK       I    between atoms: N_7  and  C_8 
REMARK       I    between atoms: C_8  and  N_10 
REMARK    3  A    between atoms: N_10  and  C_11 
REMARK    4  A    between atoms: C_11  and  C_12 
REMARK    5  A    between atoms: C_12  and  C_13 
REMARK       I    between atoms: C_13  and  N_15 
ROOT
HETATM    1  N   UNL     1     -40.020 -52.655  13.263  1.00  0.00    -0.308 N 
HETATM    2  C   UNL     1     -39.604 -51.655  14.117  1.00  0.00     0.320 C 
HETATM    3  O   UNL     1     -40.282 -51.126  14.987  1.00  0.00    -0.247 OA
HETATM    4  N   UNL     1     -38.304 -51.274  13.893  1.00  0.00    -0.342 N 
HETATM    5  H   UNL     1     -39.301 -53.172  12.784  1.00  0.00     0.170 HD
HETATM    6  H   UNL     1     -37.682 -51.867  13.362  1.00  0.00     0.164 HD
ENDROOT
BRANCH   1   7
HETATM    7  C   UNL     1     -41.352 -53.125  13.159  1.00  0.00     0.051 A 
HETATM    8  C   UNL     1     -41.880 -54.101  14.000  1.00  0.00     0.035 A 
HETATM    9  C   UNL     1     -43.201 -54.513  13.850  1.00  0.00     0.058 A 
HETATM   10  C   UNL     1     -43.967 -53.928  12.860  1.00  0.00     0.141 A 
HETATM   11  N   UNL     1     -43.508 -52.969  12.027  1.00  0.00    -0.345 N 
HETATM   12  C   UNL     1     -42.214 -52.588  12.203  1.00  0.00     0.119 A 
ATOM     13  HN  UNL     1     -44.098 -52.553  11.306  1.00  0.00     0.167 HD
BRANCH  10  14
HETATM   14  O   UNL     1     -45.274 -54.365  12.784  1.00  0.00    -0.341 OA
HETATM   15  C   UNL     1     -45.664 -55.192  13.871  1.00  0.00     0.211 C 
ENDBRANCH  10  14
ENDBRANCH   1   7
BRANCH   4  16
HETATM   16  C   UNL     1     -37.679 -50.263  14.730  1.00  0.00     0.133 C 
BRANCH  16  17
HETATM   17  C   UNL     1     -37.682 -48.869  14.103  1.00  0.00     0.122 C 
BRANCH  17  18
HETATM   18  C   UNL     1     -38.382 -48.848  12.757  1.00  0.00     0.221 C 
HETATM   19  O   UNL     1     -37.857 -49.339  11.757  1.00  0.00    -0.273 OA
HETATM   20  N   UNL     1     -39.636 -48.260  12.708  1.00  0.00    -0.348 N 
HETATM   21  C   UNL     1     -40.352 -47.635  13.827  1.00  0.00     0.152 C 
HETATM   22  C   UNL     1     -40.371 -48.204  11.442  1.00  0.00     0.152 C 
HETATM   23  C   UNL     1     -41.768 -48.216  13.931  1.00  0.00     0.187 C 
HETATM   24  O   UNL     1     -42.477 -48.075  12.690  1.00  0.00    -0.388 OA
HETATM   25  C   UNL     1     -41.789 -48.755  11.626  1.00  0.00     0.187 C 
ENDBRANCH  17  18
ENDBRANCH  16  17
ENDBRANCH   4  16
TORSDOF 5
ENDMDL
MODEL 7
REMARK VINA RESULT:      -5.7      3.016      4.764
REMARK  5 active torsions:
REMARK  status: ('A' for Active; 'I' for Inactive)
REMARK    1  A    between atoms: O_2  and  C_3 
REMARK    2  A    between atoms: C_6  and  N_7 
REMARK       I    between atoms: N_7  and  C_8 
REMARK       I    between atoms: C_8  and  N_10 
REMARK    3  A    between atoms: N_10  and  C_11 
REMARK    4  A    between atoms: C_11  and  C_12 
REMARK    5  A    between atoms: C_12  and  C_13 
REMARK       I    between atoms: C_13  and  N_15 
ROOT
HETATM    1  N   UNL     1     -40.969 -51.224  11.589  1.00  0.00    -0.308 N 
HETATM    2  C   UNL     1     -40.215 -50.255  12.217  1.00  0.00     0.320 C 
HETATM    3  O   UNL     1     -39.993 -50.185  13.418  1.00  0.00    -0.247 OA
HETATM    4  N   UNL     1     -39.720 -49.319  11.344  1.00  0.00    -0.342 N 
HETATM    5  H   UNL     1     -40.856 -51.312  10.592  1.00  0.00     0.170 HD
HETATM    6  H   UNL     1     -39.692 -49.510  10.352  1.00  0.00     0.164 HD
ENDROOT
BRANCH   1   7
HETATM    7  C   UNL     1     -41.731 -52.213  12.256  1.00  0.00     0.051 A 
HETATM    8  C   UNL     1     -41.194 -53.425  12.681  1.00  0.00     0.035 A 
HETATM    9  C   UNL     1     -41.996 -54.352  13.341  1.00  0.00     0.058 A 
HETATM   10  C   UNL     1     -43.323 -54.036  13.565  1.00  0.00     0.141 A 
HETATM   11  N   UNL     1     -43.889 -52.871  13.184  1.00  0.00    -0.345 N 
HETATM   12  C   UNL     1     -43.077 -51.987  12.545  1.00  0.00     0.119 A 
ATOM     13  HN  UNL     1     -44.872 -52.664  13.365  1.00  0.00     0.167 HD
BRANCH  10  14
HETATM   14  O   UNL     1     -44.054 -54.990  14.245  1.00  0.00    -0.341 OA
HETATM   15  C   UNL     1     -45.415 -55.061  13.842  1.00  0.00     0.211 C 
ENDBRANCH  10  14
ENDBRANCH   1   7
BRANCH   4  16
HETATM   16  C   UNL     1     -38.863 -48.245  11.822  1.00  0.00     0.133 C 
BRANCH  16  17
HETATM   17  C   UNL     1     -39.637 -47.009  12.279  1.00  0.00     0.122 C 
BRANCH  17  18
HETATM   18  C   UNL     1     -40.369 -46.336  11.133  1.00  0.00     0.221 C 
HETATM   19  O   UNL     1     -39.759 -45.701  10.271  1.00  0.00    -0.273 OA
HETATM   20  N   UNL     1     -41.747 -46.474  11.098  1.00  0.00    -0.348 N 
HETATM   21  C   UNL     1     -42.578 -47.193  12.071  1.00  0.00     0.152 C 
HETATM   22  C   UNL     1     -42.519 -45.851  10.020  1.00  0.00     0.152 C 
HETATM   23  C   UNL     1     -43.497 -48.183  11.343  1.00  0.00     0.187 C 
HETATM   24  O   UNL     1     -44.287 -47.517  10.346  1.00  0.00    -0.388 OA
HETATM   25  C   UNL     1     -43.448 -46.880   9.367  1.00  0.00     0.187 C 
ENDBRANCH  17  18
ENDBRANCH  16  17
ENDBRANCH   4  16
TORSDOF 5
ENDMDL
MODEL 8
REMARK VINA RESULT:      -5.7      3.562      7.929
REMARK  5 active torsions:
REMARK  status: ('A' for Active; 'I' for Inactive)
REMARK    1  A    between atoms: O_2  and  C_3 
REMARK    2  A    between atoms: C_6  and  N_7 
REMARK       I    between atoms: N_7  and  C_8 
REMARK       I    between atoms: C_8  and  N_10 
REMARK    3  A    between atoms: N_10  and  C_11 
REMARK    4  A    between atoms: C_11  and  C_12 
REMARK    5  A    between atoms: C_12  and  C_13 
REMARK       I    between atoms: C_13  and  N_15 
ROOT
HETATM    1  N   UNL     1     -43.075 -49.330  11.960  1.00  0.00    -0.308 N 
HETATM    2  C   UNL     1     -42.054 -50.244  12.115  1.00  0.00     0.320 C 
HETATM    3  O   UNL     1     -40.857 -50.004  12.028  1.00  0.00    -0.247 OA
HETATM    4  N   UNL     1     -42.512 -51.511  12.376  1.00  0.00    -0.342 N 
HETATM    5  H   UNL     1     -43.981 -49.596  12.310  1.00  0.00     0.170 HD
HETATM    6  H   UNL     1     -43.461 -51.657  12.690  1.00  0.00     0.164 HD
ENDROOT
BRANCH   1   7
HETATM    7  C   UNL     1     -42.903 -47.993  11.525  1.00  0.00     0.051 A 
HETATM    8  C   UNL     1     -42.609 -47.655  10.207  1.00  0.00     0.035 A 
HETATM    9  C   UNL     1     -42.461 -46.320   9.843  1.00  0.00     0.058 A 
HETATM   10  C   UNL     1     -42.619 -45.350  10.815  1.00  0.00     0.141 A 
HETATM   11  N   UNL     1     -42.916 -45.623  12.104  1.00  0.00    -0.345 N 
HETATM   12  C   UNL     1     -43.057 -46.937  12.424  1.00  0.00     0.119 A 
ATOM     13  HN  UNL     1     -43.029 -44.885  12.799  1.00  0.00     0.167 HD
BRANCH  10  14
HETATM   14  O   UNL     1     -42.483 -44.046  10.380  1.00  0.00    -0.341 OA
HETATM   15  C   UNL     1     -42.641 -43.081  11.411  1.00  0.00     0.211 C 
ENDBRANCH  10  14
ENDBRANCH   1   7
BRANCH   4  16
HETATM   16  C   UNL     1     -41.575 -52.598  12.615  1.00  0.00     0.133 C 
BRANCH  16  17
HETATM   17  C   UNL     1     -42.213 -53.811  13.291  1.00  0.00     0.122 C 
BRANCH  17  18
HETATM   18  C   UNL     1     -43.727 -53.791  13.195  1.00  0.00     0.221 C 
HETATM   19  O   UNL     1     -44.302 -54.059  12.139  1.00  0.00    -0.273 OA
HETATM   20  N   UNL     1     -44.427 -53.467  14.345  1.00  0.00    -0.348 N 
HETATM   21  C   UNL     1     -43.851 -53.120  15.650  1.00  0.00     0.152 C 
HETATM   22  C   UNL     1     -45.891 -53.429  14.326  1.00  0.00     0.152 C 
HETATM   23  C   UNL     1     -44.487 -53.983  16.748  1.00  0.00     0.187 C 
HETATM   24  O   UNL     1     -45.918 -53.860  16.739  1.00  0.00    -0.388 OA
HETATM   25  C   UNL     1     -46.461 -54.271  15.473  1.00  0.00     0.187 C 
ENDBRANCH  17  18
ENDBRANCH  16  17
ENDBRANCH   4  16
TORSDOF 5
ENDMDL
MODEL 9
REMARK VINA RESULT:      -5.5      3.282      8.067
REMARK  5 active torsions:
REMARK  status: ('A' for Active; 'I' for Inactive)
REMARK    1  A    between atoms: O_2  and  C_3 
REMARK    2  A    between atoms: C_6  and  N_7 
REMARK       I    between atoms: N_7  and  C_8 
REMARK       I    between atoms: C_8  and  N_10 
REMARK    3  A    between atoms: N_10  and  C_11 
REMARK    4  A    between atoms: C_11  and  C_12 
REMARK    5  A    between atoms: C_12  and  C_13 
REMARK       I    between atoms: C_13  and  N_15 
ROOT
HETATM    1  N   UNL     1     -40.707 -48.098  13.320  1.00  0.00    -0.308 N 
HETATM    2  C   UNL     1     -39.949 -49.239  13.483  1.00  0.00     0.320 C 
HETATM    3  O   UNL     1     -38.873 -49.469  12.947  1.00  0.00    -0.247 OA
HETATM    4  N   UNL     1     -40.534 -50.148  14.328  1.00  0.00    -0.342 N 
HETATM    5  H   UNL     1     -41.424 -47.926  14.006  1.00  0.00     0.170 HD
HETATM    6  H   UNL     1     -41.277 -49.862  14.951  1.00  0.00     0.164 HD
ENDROOT
BRANCH   1   7
HETATM    7  C   UNL     1     -40.429 -47.070  12.385  1.00  0.00     0.051 A 
HETATM    8  C   UNL     1     -39.750 -45.902  12.722  1.00  0.00     0.035 A 
HETATM    9  C   UNL     1     -39.501 -44.935  11.753  1.00  0.00     0.058 A 
HETATM   10  C   UNL     1     -39.934 -45.167  10.461  1.00  0.00     0.141 A 
HETATM   11  N   UNL     1     -40.586 -46.287  10.080  1.00  0.00    -0.345 N 
HETATM   12  C   UNL     1     -40.810 -47.213  11.051  1.00  0.00     0.119 A 
ATOM     13  HN  UNL     1     -40.892 -46.431   9.118  1.00  0.00     0.167 HD
BRANCH  10  14
HETATM   14  O   UNL     1     -39.632 -44.178   9.546  1.00  0.00    -0.341 OA
HETATM   15  C   UNL     1     -38.518 -44.485   8.721  1.00  0.00     0.211 C 
ENDBRANCH  10  14
ENDBRANCH   1   7
BRANCH   4  16
HETATM   16  C   UNL     1     -39.857 -51.392  14.655  1.00  0.00     0.133 C 
BRANCH  16  17
HETATM   17  C   UNL     1     -40.262 -52.559  13.755  1.00  0.00     0.122 C 
BRANCH  17  18
HETATM   18  C   UNL     1     -41.696 -52.439  13.273  1.00  0.00     0.221 C 
HETATM   19  O   UNL     1     -41.977 -51.798  12.259  1.00  0.00    -0.273 OA
HETATM   20  N   UNL     1     -42.667 -53.088  14.018  1.00  0.00    -0.348 N 
HETATM   21  C   UNL     1     -42.452 -53.868  15.243  1.00  0.00     0.152 C 
HETATM   22  C   UNL     1     -44.072 -53.017  13.611  1.00  0.00     0.152 C 
HETATM   23  C   UNL     1     -43.107 -55.248  15.105  1.00  0.00     0.187 C 
HETATM   24  O   UNL     1     -44.500 -55.130  14.778  1.00  0.00    -0.388 OA
HETATM   25  C   UNL     1     -44.677 -54.423  13.538  1.00  0.00     0.187 C 
ENDBRANCH  17  18
ENDBRANCH  16  17
ENDBRANCH   4  16
TORSDOF 5
ENDMDL
