MODEL 1
REMARK VINA RESULT:      -6.7      0.000      0.000
REMARK  4 active torsions:
REMARK  status: ('A' for Active; 'I' for Inactive)
REMARK    1  A    between atoms: C_5  and  N_6 
REMARK       I    between atoms: N_6  and  C_7 
REMARK       I    between atoms: C_7  and  N_9 
REMARK    2  A    between atoms: N_9  and  C_10 
REMARK    3  A    between atoms: C_10  and  C_11 
REMARK    4  A    between atoms: C_11  and  C_12 
ROOT
HETATM    1  N   UNL     1     -40.990 -49.018  10.605  1.00  0.00    -0.295 N 
HETATM    2  C   UNL     1     -41.225 -50.016  11.504  1.00  0.00     0.321 C 
HETATM    3  O   UNL     1     -40.321 -50.802  11.774  1.00  0.00    -0.247 OA
HETATM    4  N   UNL     1     -42.495 -50.127  11.984  1.00  0.00    -0.343 N 
HETATM    5  H   UNL     1     -40.081 -49.074  10.179  1.00  0.00     0.172 HD
HETATM    6  H   UNL     1     -43.048 -49.278  11.893  1.00  0.00     0.164 HD
ENDROOT
BRANCH   1   7
HETATM    7  C   UNL     1     -41.869 -48.014  10.173  1.00  0.00     0.108 A 
HETATM    8  C   UNL     1     -41.899 -46.816  10.883  1.00  0.00     0.052 A 
HETATM    9  C   UNL     1     -42.727 -45.778  10.433  1.00  0.00     0.047 A 
HETATM   10  C   UNL     1     -43.514 -45.991   9.319  1.00  0.00     0.131 A 
HETATM   11  F   UNL     1     -44.312 -45.021   8.861  1.00  0.00    -0.205 F 
HETATM   12  C   UNL     1     -43.457 -47.215   8.687  1.00  0.00     0.132 A 
HETATM   13  N   UNL     1     -42.640 -48.228   9.080  1.00  0.00    -0.349 N 
ATOM     14  HN  UNL     1     -42.608 -49.112   8.573  1.00  0.00     0.167 HD
ENDBRANCH   1   7
BRANCH   4  15
HETATM   15  C   UNL     1     -42.924 -51.152  12.918  1.00  0.00     0.127 C 
BRANCH  15  16
HETATM   16  C   UNL     1     -44.220 -50.742  13.622  1.00  0.00     0.051 C 
BRANCH  16  17
HETATM   17  C   UNL     1     -45.432 -51.585  13.196  1.00  0.00     0.123 C 
HETATM   18  C   UNL     1     -46.637 -51.385  14.132  1.00  0.00     0.032 C 
HETATM   19  C   UNL     1     -46.735 -52.422  15.239  1.00  0.00     0.004 C 
HETATM   20  C   UNL     1     -46.631 -53.803  14.623  1.00  0.00     0.026 C 
HETATM   21  C   UNL     1     -45.288 -53.924  13.925  1.00  0.00     0.168 C 
HETATM   22  O   UNL     1     -45.110 -52.945  12.906  1.00  0.00    -0.386 OA
ENDBRANCH  16  17
ENDBRANCH  15  16
ENDBRANCH   4  15
TORSDOF 4
ENDMDL
MODEL 2
REMARK VINA RESULT:      -6.4      1.767      2.400
REMARK  4 active torsions:
REMARK  status: ('A' for Active; 'I' for Inactive)
REMARK    1  A    between atoms: C_5  and  N_6 
REMARK       I    between atoms: N_6  and  C_7 
REMARK       I    between atoms: C_7  and  N_9 
REMARK    2  A    between atoms: N_9  and  C_10 
REMARK    3  A    between atoms: C_10  and  C_11 
REMARK    4  A    between atoms: C_11  and  C_12 
ROOT
HETATM    1  N   UNL     1     -41.223 -47.929  10.428  1.00  0.00    -0.295 N 
HETATM    2  C   UNL     1     -40.670 -48.941  11.156  1.00  0.00     0.321 C 
HETATM    3  O   UNL     1     -39.526 -48.813  11.584  1.00  0.00    -0.247 OA
HETATM    4  N   UNL     1     -41.405 -50.080  11.286  1.00  0.00    -0.343 N 
HETATM    5  H   UNL     1     -40.581 -47.176  10.245  1.00  0.00     0.172 HD
HETATM    6  H   UNL     1     -42.402 -49.950  11.125  1.00  0.00     0.164 HD
ENDROOT
BRANCH   1   7
HETATM    7  C   UNL     1     -42.506 -47.863   9.868  1.00  0.00     0.108 A 
HETATM    8  C   UNL     1     -43.586 -47.639  10.720  1.00  0.00     0.052 A 
HETATM    9  C   UNL     1     -44.870 -47.510  10.173  1.00  0.00     0.047 A 
HETATM   10  C   UNL     1     -45.028 -47.648   8.808  1.00  0.00     0.131 A 
HETATM   11  F   UNL     1     -46.239 -47.527   8.254  1.00  0.00    -0.205 F 
HETATM   12  C   UNL     1     -43.918 -47.904   8.031  1.00  0.00     0.132 A 
HETATM   13  N   UNL     1     -42.657 -47.999   8.528  1.00  0.00    -0.349 N 
ATOM     14  HN  UNL     1     -41.856 -48.166   7.919  1.00  0.00     0.167 HD
ENDBRANCH   1   7
BRANCH   4  15
HETATM   15  C   UNL     1     -40.953 -51.263  11.995  1.00  0.00     0.127 C 
BRANCH  15  16
HETATM   16  C   UNL     1     -41.988 -52.388  11.897  1.00  0.00     0.051 C 
BRANCH  16  17
HETATM   17  C   UNL     1     -42.878 -52.499  13.145  1.00  0.00     0.123 C 
HETATM   18  C   UNL     1     -44.091 -53.418  12.912  1.00  0.00     0.032 C 
HETATM   19  C   UNL     1     -45.353 -52.677  12.496  1.00  0.00     0.004 C 
HETATM   20  C   UNL     1     -45.593 -51.540  13.470  1.00  0.00     0.026 C 
HETATM   21  C   UNL     1     -44.405 -50.596  13.418  1.00  0.00     0.168 C 
HETATM   22  O   UNL     1     -43.178 -51.241  13.749  1.00  0.00    -0.386 OA
ENDBRANCH  16  17
ENDBRANCH  15  16
ENDBRANCH   4  15
TORSDOF 4
ENDMDL
MODEL 3
REMARK VINA RESULT:      -6.1      4.075      4.881
REMARK  4 active torsions:
REMARK  status: ('A' for Active; 'I' for Inactive)
REMARK    1  A    between atoms: C_5  and  N_6 
REMARK       I    between atoms: N_6  and  C_7 
REMARK       I    between atoms: C_7  and  N_9 
REMARK    2  A    between atoms: N_9  and  C_10 
REMARK    3  A    between atoms: C_10  and  C_11 
REMARK    4  A    between atoms: C_11  and  C_12 
ROOT
HETATM    1  N   UNL     1     -42.852 -53.791  12.526  1.00  0.00    -0.295 N 
HETATM    2  C   UNL     1     -44.207 -53.662  12.594  1.00  0.00     0.321 C 
HETATM    3  O   UNL     1     -44.908 -54.668  12.519  1.00  0.00    -0.247 OA
HETATM    4  N   UNL     1     -44.704 -52.395  12.652  1.00  0.00    -0.343 N 
HETATM    5  H   UNL     1     -42.552 -54.733  12.339  1.00  0.00     0.172 HD
HETATM    6  H   UNL     1     -44.032 -51.701  12.974  1.00  0.00     0.164 HD
ENDROOT
BRANCH   1   7
HETATM    7  C   UNL     1     -41.878 -52.786  12.607  1.00  0.00     0.108 A 
HETATM    8  C   UNL     1     -41.388 -52.445  13.867  1.00  0.00     0.052 A 
HETATM    9  C   UNL     1     -40.372 -51.484  13.964  1.00  0.00     0.047 A 
HETATM   10  C   UNL     1     -39.916 -50.878  12.810  1.00  0.00     0.131 A 
HETATM   11  F   UNL     1     -38.945 -49.961  12.868  1.00  0.00    -0.205 F 
HETATM   12  C   UNL     1     -40.473 -51.241  11.602  1.00  0.00     0.132 A 
HETATM   13  N   UNL     1     -41.434 -52.194  11.472  1.00  0.00    -0.349 N 
ATOM     14  HN  UNL     1     -41.805 -52.453  10.559  1.00  0.00     0.167 HD
ENDBRANCH   1   7
BRANCH   4  15
HETATM   15  C   UNL     1     -46.120 -52.078  12.693  1.00  0.00     0.127 C 
BRANCH  15  16
HETATM   16  C   UNL     1     -46.480 -51.356  13.994  1.00  0.00     0.051 C 
BRANCH  16  17
HETATM   17  C   UNL     1     -47.113 -52.284  15.043  1.00  0.00     0.123 C 
HETATM   18  C   UNL     1     -47.472 -51.536  16.339  1.00  0.00     0.032 C 
HETATM   19  C   UNL     1     -46.399 -51.616  17.413  1.00  0.00     0.004 C 
HETATM   20  C   UNL     1     -46.009 -53.068  17.605  1.00  0.00     0.026 C 
HETATM   21  C   UNL     1     -45.461 -53.601  16.292  1.00  0.00     0.168 C 
HETATM   22  O   UNL     1     -46.404 -53.508  15.227  1.00  0.00    -0.386 OA
ENDBRANCH  16  17
ENDBRANCH  15  16
ENDBRANCH   4  15
TORSDOF 4
ENDMDL
MODEL 4
REMARK VINA RESULT:      -6.1      1.593      2.131
REMARK  4 active torsions:
REMARK  status: ('A' for Active; 'I' for Inactive)
REMARK    1  A    between atoms: C_5  and  N_6 
REMARK       I    between atoms: N_6  and  C_7 
REMARK       I    between atoms: C_7  and  N_9 
REMARK    2  A    between atoms: N_9  and  C_10 
REMARK    3  A    between atoms: C_10  and  C_11 
REMARK    4  A    between atoms: C_11  and  C_12 
ROOT
HETATM    1  N   UNL     1     -40.281 -50.758  11.399  1.00  0.00    -0.295 N 
HETATM    2  C   UNL     1     -40.978 -51.706  12.087  1.00  0.00     0.321 C 
HETATM    3  O   UNL     1     -40.531 -52.848  12.151  1.00  0.00    -0.247 OA
HETATM    4  N   UNL     1     -42.189 -51.337  12.590  1.00  0.00    -0.343 N 
HETATM    5  H   UNL     1     -39.470 -51.124  10.931  1.00  0.00     0.172 HD
HETATM    6  H   UNL     1     -42.304 -50.331  12.698  1.00  0.00     0.164 HD
ENDROOT
BRANCH   1   7
HETATM    7  C   UNL     1     -40.600 -49.404  11.219  1.00  0.00     0.108 A 
HETATM    8  C   UNL     1     -39.773 -48.449  11.807  1.00  0.00     0.052 A 
HETATM    9  C   UNL     1     -40.042 -47.090  11.590  1.00  0.00     0.047 A 
HETATM   10  C   UNL     1     -41.141 -46.742  10.830  1.00  0.00     0.131 A 
HETATM   11  F   UNL     1     -41.423 -45.455  10.601  1.00  0.00    -0.205 F 
HETATM   12  C   UNL     1     -41.935 -47.742  10.310  1.00  0.00     0.132 A 
HETATM   13  N   UNL     1     -41.681 -49.067  10.474  1.00  0.00    -0.349 N 
ATOM     14  HN  UNL     1     -42.278 -49.779  10.054  1.00  0.00     0.167 HD
ENDBRANCH   1   7
BRANCH   4  15
HETATM   15  C   UNL     1     -43.075 -52.230  13.315  1.00  0.00     0.127 C 
BRANCH  15  16
HETATM   16  C   UNL     1     -43.897 -53.087  12.348  1.00  0.00     0.051 C 
BRANCH  16  17
HETATM   17  C   UNL     1     -45.413 -52.935  12.547  1.00  0.00     0.123 C 
HETATM   18  C   UNL     1     -45.802 -51.512  12.985  1.00  0.00     0.032 C 
HETATM   19  C   UNL     1     -45.932 -51.345  14.491  1.00  0.00     0.004 C 
HETATM   20  C   UNL     1     -46.830 -52.443  15.026  1.00  0.00     0.026 C 
HETATM   21  C   UNL     1     -46.195 -53.787  14.713  1.00  0.00     0.168 C 
HETATM   22  O   UNL     1     -45.998 -53.987  13.315  1.00  0.00    -0.386 OA
ENDBRANCH  16  17
ENDBRANCH  15  16
ENDBRANCH   4  15
TORSDOF 4
ENDMDL
MODEL 5
REMARK VINA RESULT:      -6.0      2.029      2.691
REMARK  4 active torsions:
REMARK  status: ('A' for Active; 'I' for Inactive)
REMARK    1  A    between atoms: C_5  and  N_6 
REMARK       I    between atoms: N_6  and  C_7 
REMARK       I    between atoms: C_7  and  N_9 
REMARK    2  A    between atoms: N_9  and  C_10 
REMARK    3  A    between atoms: C_10  and  C_11 
REMARK    4  A    between atoms: C_11  and  C_12 
ROOT
HETATM    1  N   UNL     1     -40.306 -51.352  11.589  1.00  0.00    -0.295 N 
HETATM    2  C   UNL     1     -40.540 -52.169  12.656  1.00  0.00     0.321 C 
HETATM    3  O   UNL     1     -40.259 -53.361  12.568  1.00  0.00    -0.247 OA
HETATM    4  N   UNL     1     -41.164 -51.614  13.732  1.00  0.00    -0.343 N 
HETATM    5  H   UNL     1     -39.978 -51.846  10.776  1.00  0.00     0.172 HD
HETATM    6  H   UNL     1     -41.091 -50.600  13.775  1.00  0.00     0.164 HD
ENDROOT
BRANCH   1   7
HETATM    7  C   UNL     1     -40.534 -49.973  11.485  1.00  0.00     0.108 A 
HETATM    8  C   UNL     1     -39.500 -49.106  11.835  1.00  0.00     0.052 A 
HETATM    9  C   UNL     1     -39.688 -47.725  11.681  1.00  0.00     0.047 A 
HETATM   10  C   UNL     1     -40.908 -47.267  11.223  1.00  0.00     0.131 A 
HETATM   11  F   UNL     1     -41.118 -45.956  11.062  1.00  0.00    -0.205 F 
HETATM   12  C   UNL     1     -41.896 -48.182  10.930  1.00  0.00     0.132 A 
HETATM   13  N   UNL     1     -41.732 -49.527  11.036  1.00  0.00    -0.349 N 
ATOM     14  HN  UNL     1     -42.479 -50.175  10.787  1.00  0.00     0.167 HD
ENDBRANCH   1   7
BRANCH   4  15
HETATM   15  C   UNL     1     -41.520 -52.348  14.932  1.00  0.00     0.127 C 
BRANCH  15  16
HETATM   16  C   UNL     1     -43.041 -52.444  15.082  1.00  0.00     0.051 C 
BRANCH  16  17
HETATM   17  C   UNL     1     -43.802 -51.497  14.141  1.00  0.00     0.123 C 
HETATM   18  C   UNL     1     -44.978 -50.799  14.846  1.00  0.00     0.032 C 
HETATM   19  C   UNL     1     -46.313 -51.504  14.660  1.00  0.00     0.004 C 
HETATM   20  C   UNL     1     -46.523 -51.767  13.182  1.00  0.00     0.026 C 
HETATM   21  C   UNL     1     -45.399 -52.658  12.682  1.00  0.00     0.168 C 
HETATM   22  O   UNL     1     -44.112 -52.076  12.873  1.00  0.00    -0.386 OA
ENDBRANCH  16  17
ENDBRANCH  15  16
ENDBRANCH   4  15
TORSDOF 4
ENDMDL
MODEL 6
REMARK VINA RESULT:      -5.8      2.484      3.747
REMARK  4 active torsions:
REMARK  status: ('A' for Active; 'I' for Inactive)
REMARK    1  A    between atoms: C_5  and  N_6 
REMARK       I    between atoms: N_6  and  C_7 
REMARK       I    between atoms: C_7  and  N_9 
REMARK    2  A    between atoms: N_9  and  C_10 
REMARK    3  A    between atoms: C_10  and  C_11 
REMARK    4  A    between atoms: C_11  and  C_12 
ROOT
HETATM    1  N   UNL     1     -42.173 -46.465   9.819  1.00  0.00    -0.295 N 
HETATM    2  C   UNL     1     -41.170 -47.074  10.515  1.00  0.00     0.321 C 
HETATM    3  O   UNL     1     -40.214 -46.403  10.895  1.00  0.00    -0.247 OA
HETATM    4  N   UNL     1     -41.256 -48.425  10.664  1.00  0.00    -0.343 N 
HETATM    5  H   UNL     1     -41.985 -45.498   9.617  1.00  0.00     0.172 HD
HETATM    6  H   UNL     1     -42.196 -48.796  10.547  1.00  0.00     0.164 HD
ENDROOT
BRANCH   1   7
HETATM    7  C   UNL     1     -43.350 -47.036   9.314  1.00  0.00     0.108 A 
HETATM    8  C   UNL     1     -43.313 -47.604   8.042  1.00  0.00     0.052 A 
HETATM    9  C   UNL     1     -44.462 -48.232   7.543  1.00  0.00     0.047 A 
HETATM   10  C   UNL     1     -45.607 -48.233   8.315  1.00  0.00     0.131 A 
HETATM   11  F   UNL     1     -46.720 -48.827   7.870  1.00  0.00    -0.205 F 
HETATM   12  C   UNL     1     -45.580 -47.620   9.549  1.00  0.00     0.132 A 
HETATM   13  N   UNL     1     -44.471 -47.035  10.074  1.00  0.00    -0.349 N 
ATOM     14  HN  UNL     1     -44.482 -46.612  11.002  1.00  0.00     0.167 HD
ENDBRANCH   1   7
BRANCH   4  15
HETATM   15  C   UNL     1     -40.259 -49.232  11.344  1.00  0.00     0.127 C 
BRANCH  15  16
HETATM   16  C   UNL     1     -40.821 -50.612  11.696  1.00  0.00     0.051 C 
BRANCH  16  17
HETATM   17  C   UNL     1     -41.315 -50.711  13.147  1.00  0.00     0.123 C 
HETATM   18  C   UNL     1     -42.188 -51.956  13.380  1.00  0.00     0.032 C 
HETATM   19  C   UNL     1     -43.681 -51.694  13.250  1.00  0.00     0.004 C 
HETATM   20  C   UNL     1     -44.041 -50.496  14.105  1.00  0.00     0.026 C 
HETATM   21  C   UNL     1     -43.263 -49.290  13.605  1.00  0.00     0.168 C 
HETATM   22  O   UNL     1     -41.853 -49.490  13.654  1.00  0.00    -0.386 OA
ENDBRANCH  16  17
ENDBRANCH  15  16
ENDBRANCH   4  15
TORSDOF 4
ENDMDL
MODEL 7
REMARK VINA RESULT:      -5.7      3.855      7.377
REMARK  4 active torsions:
REMARK  status: ('A' for Active; 'I' for Inactive)
REMARK    1  A    between atoms: C_5  and  N_6 
REMARK       I    between atoms: N_6  and  C_7 
REMARK       I    between atoms: C_7  and  N_9 
REMARK    2  A    between atoms: N_9  and  C_10 
REMARK    3  A    between atoms: C_10  and  C_11 
REMARK    4  A    between atoms: C_11  and  C_12 
ROOT
HETATM    1  N   UNL     1     -40.857 -51.841  11.482  1.00  0.00    -0.295 N 
HETATM    2  C   UNL     1     -40.645 -50.505  11.655  1.00  0.00     0.321 C 
HETATM    3  O   UNL     1     -39.806 -49.939  10.960  1.00  0.00    -0.247 OA
HETATM    4  N   UNL     1     -41.328 -49.899  12.665  1.00  0.00    -0.343 N 
HETATM    5  H   UNL     1     -40.224 -52.261  10.822  1.00  0.00     0.172 HD
HETATM    6  H   UNL     1     -42.158 -50.404  12.966  1.00  0.00     0.164 HD
ENDROOT
BRANCH   1   7
HETATM    7  C   UNL     1     -41.770 -52.669  12.150  1.00  0.00     0.108 A 
HETATM    8  C   UNL     1     -41.302 -53.448  13.207  1.00  0.00     0.052 A 
HETATM    9  C   UNL     1     -42.210 -54.238  13.925  1.00  0.00     0.047 A 
HETATM   10  C   UNL     1     -43.535 -54.247  13.538  1.00  0.00     0.131 A 
HETATM   11  F   UNL     1     -44.428 -54.986  14.204  1.00  0.00    -0.205 F 
HETATM   12  C   UNL     1     -43.919 -53.478  12.460  1.00  0.00     0.132 A 
HETATM   13  N   UNL     1     -43.069 -52.676  11.766  1.00  0.00    -0.349 N 
ATOM     14  HN  UNL     1     -43.395 -52.102  10.988  1.00  0.00     0.167 HD
ENDBRANCH   1   7
BRANCH   4  15
HETATM   15  C   UNL     1     -41.193 -48.494  13.009  1.00  0.00     0.127 C 
BRANCH  15  16
HETATM   16  C   UNL     1     -42.199 -47.643  12.230  1.00  0.00     0.051 C 
BRANCH  16  17
HETATM   17  C   UNL     1     -41.558 -46.855  11.076  1.00  0.00     0.123 C 
HETATM   18  C   UNL     1     -40.086 -46.505  11.360  1.00  0.00     0.032 C 
HETATM   19  C   UNL     1     -39.887 -45.123  11.962  1.00  0.00     0.004 C 
HETATM   20  C   UNL     1     -40.629 -44.111  11.113  1.00  0.00     0.026 C 
HETATM   21  C   UNL     1     -42.107 -44.463  11.116  1.00  0.00     0.168 C 
HETATM   22  O   UNL     1     -42.359 -45.770  10.609  1.00  0.00    -0.386 OA
ENDBRANCH  16  17
ENDBRANCH  15  16
ENDBRANCH   4  15
TORSDOF 4
ENDMDL
MODEL 8
REMARK VINA RESULT:      -5.7      4.933      8.302
REMARK  4 active torsions:
REMARK  status: ('A' for Active; 'I' for Inactive)
REMARK    1  A    between atoms: C_5  and  N_6 
REMARK       I    between atoms: N_6  and  C_7 
REMARK       I    between atoms: C_7  and  N_9 
REMARK    2  A    between atoms: N_9  and  C_10 
REMARK    3  A    between atoms: C_10  and  C_11 
REMARK    4  A    between atoms: C_11  and  C_12 
ROOT
HETATM    1  N   UNL     1     -41.130 -49.417  10.624  1.00  0.00    -0.295 N 
HETATM    2  C   UNL     1     -41.574 -48.164  10.317  1.00  0.00     0.321 C 
HETATM    3  O   UNL     1     -42.604 -48.040   9.661  1.00  0.00    -0.247 OA
HETATM    4  N   UNL     1     -40.781 -47.121  10.690  1.00  0.00    -0.343 N 
HETATM    5  H   UNL     1     -41.678 -50.146  10.201  1.00  0.00     0.172 HD
HETATM    6  H   UNL     1     -40.126 -47.345  11.436  1.00  0.00     0.164 HD
ENDROOT
BRANCH   1   7
HETATM    7  C   UNL     1     -39.999 -49.779  11.370  1.00  0.00     0.108 A 
HETATM    8  C   UNL     1     -40.170 -50.086  12.718  1.00  0.00     0.052 A 
HETATM    9  C   UNL     1     -39.062 -50.508  13.466  1.00  0.00     0.047 A 
HETATM   10  C   UNL     1     -37.828 -50.570  12.849  1.00  0.00     0.131 A 
HETATM   11  F   UNL     1     -36.751 -50.971  13.533  1.00  0.00    -0.205 F 
HETATM   12  C   UNL     1     -37.729 -50.216  11.520  1.00  0.00     0.132 A 
HETATM   13  N   UNL     1     -38.790 -49.837  10.761  1.00  0.00    -0.349 N 
ATOM     14  HN  UNL     1     -38.682 -49.606   9.773  1.00  0.00     0.167 HD
ENDBRANCH   1   7
BRANCH   4  15
HETATM   15  C   UNL     1     -41.085 -45.729  10.411  1.00  0.00     0.127 C 
BRANCH  15  16
HETATM   16  C   UNL     1     -40.982 -44.883  11.682  1.00  0.00     0.051 C 
BRANCH  16  17
HETATM   17  C   UNL     1     -40.267 -43.541  11.458  1.00  0.00     0.123 C 
HETATM   18  C   UNL     1     -39.657 -42.983  12.756  1.00  0.00     0.032 C 
HETATM   19  C   UNL     1     -40.556 -41.994  13.482  1.00  0.00     0.004 C 
HETATM   20  C   UNL     1     -41.019 -40.942  12.494  1.00  0.00     0.026 C 
HETATM   21  C   UNL     1     -41.801 -41.626  11.386  1.00  0.00     0.168 C 
HETATM   22  O   UNL     1     -41.029 -42.606  10.695  1.00  0.00    -0.386 OA
ENDBRANCH  16  17
ENDBRANCH  15  16
ENDBRANCH   4  15
TORSDOF 4
ENDMDL
MODEL 9
REMARK VINA RESULT:      -5.7      3.010      5.899
REMARK  4 active torsions:
REMARK  status: ('A' for Active; 'I' for Inactive)
REMARK    1  A    between atoms: C_5  and  N_6 
REMARK       I    between atoms: N_6  and  C_7 
REMARK       I    between atoms: C_7  and  N_9 
REMARK    2  A    between atoms: N_9  and  C_10 
REMARK    3  A    between atoms: C_10  and  C_11 
REMARK    4  A    between atoms: C_11  and  C_12 
ROOT
HETATM    1  N   UNL     1     -42.582 -53.069  12.676  1.00  0.00    -0.295 N 
HETATM    2  C   UNL     1     -41.570 -52.406  12.046  1.00  0.00     0.321 C 
HETATM    3  O   UNL     1     -40.548 -53.018  11.751  1.00  0.00    -0.247 OA
HETATM    4  N   UNL     1     -41.731 -51.065  11.866  1.00  0.00    -0.343 N 
HETATM    5  H   UNL     1     -42.348 -54.019  12.910  1.00  0.00     0.172 HD
HETATM    6  H   UNL     1     -42.699 -50.755  11.906  1.00  0.00     0.164 HD
ENDROOT
BRANCH   1   7
HETATM    7  C   UNL     1     -43.828 -52.570  13.081  1.00  0.00     0.108 A 
HETATM    8  C   UNL     1     -43.918 -51.963  14.333  1.00  0.00     0.052 A 
HETATM    9  C   UNL     1     -45.141 -51.405  14.732  1.00  0.00     0.047 A 
HETATM   10  C   UNL     1     -46.227 -51.508  13.886  1.00  0.00     0.131 A 
HETATM   11  F   UNL     1     -47.406 -50.983  14.235  1.00  0.00    -0.205 F 
HETATM   12  C   UNL     1     -46.072 -52.154  12.678  1.00  0.00     0.132 A 
HETATM   13  N   UNL     1     -44.891 -52.674  12.248  1.00  0.00    -0.349 N 
ATOM     14  HN  UNL     1     -44.809 -53.124  11.337  1.00  0.00     0.167 HD
ENDBRANCH   1   7
BRANCH   4  15
HETATM   15  C   UNL     1     -40.739 -50.204  11.248  1.00  0.00     0.127 C 
BRANCH  15  16
HETATM   16  C   UNL     1     -41.138 -48.731  11.377  1.00  0.00     0.051 C 
BRANCH  16  17
HETATM   17  C   UNL     1     -42.471 -48.530  12.115  1.00  0.00     0.123 C 
HETATM   18  C   UNL     1     -43.104 -47.160  11.808  1.00  0.00     0.032 C 
HETATM   19  C   UNL     1     -42.767 -46.085  12.830  1.00  0.00     0.004 C 
HETATM   20  C   UNL     1     -43.057 -46.623  14.217  1.00  0.00     0.026 C 
HETATM   21  C   UNL     1     -42.188 -47.846  14.455  1.00  0.00     0.168 C 
HETATM   22  O   UNL     1     -42.418 -48.877  13.498  1.00  0.00    -0.386 OA
ENDBRANCH  16  17
ENDBRANCH  15  16
ENDBRANCH   4  15
TORSDOF 4
ENDMDL
