MODEL 1
REMARK VINA RESULT:      -6.7      0.000      0.000
REMARK  4 active torsions:
REMARK  status: ('A' for Active; 'I' for Inactive)
REMARK    1  A    between atoms: C_2  and  C_3 
REMARK       I    between atoms: C_2  and  N_15 
REMARK    2  A    between atoms: C_3  and  C_4 
REMARK    3  A    between atoms: C_4  and  N_5 
REMARK       I    between atoms: N_5  and  C_6 
REMARK       I    between atoms: C_6  and  N_8 
REMARK    4  A    between atoms: N_8  and  C_9 
ROOT
HETATM    1  N   UNL     1     -40.412 -49.716  10.649  1.00  0.00    -0.342 N 
HETATM    2  C   UNL     1     -41.221 -48.600  10.675  1.00  0.00     0.323 C 
HETATM    3  O   UNL     1     -41.154 -47.778  11.579  1.00  0.00    -0.247 OA
HETATM    4  N   UNL     1     -42.019 -48.540   9.563  1.00  0.00    -0.274 N 
HETATM    5  H   UNL     1     -40.801 -50.556  10.235  1.00  0.00     0.164 HD
HETATM    6  H   UNL     1     -41.784 -49.095   8.760  1.00  0.00     0.174 HD
ENDROOT
BRANCH   1   7
HETATM    7  C   UNL     1     -39.412 -49.940  11.680  1.00  0.00     0.133 C 
BRANCH   7   8
HETATM    8  C   UNL     1     -40.000 -50.439  12.999  1.00  0.00     0.122 C 
BRANCH   8   9
HETATM    9  C   UNL     1     -39.887 -51.948  13.132  1.00  0.00     0.221 C 
HETATM   10  O   UNL     1     -38.808 -52.471  13.424  1.00  0.00    -0.273 OA
HETATM   11  N   UNL     1     -41.044 -52.699  12.928  1.00  0.00    -0.352 N 
HETATM   12  C   UNL     1     -40.986 -54.140  13.193  1.00  0.00     0.125 C 
HETATM   13  C   UNL     1     -42.301 -52.166  12.403  1.00  0.00     0.125 C 
HETATM   14  C   UNL     1     -41.688 -54.484  14.503  1.00  0.00     0.020 C 
HETATM   15  C   UNL     1     -43.194 -54.719  14.376  1.00  0.00     0.002 C 
HETATM   16  C   UNL     1     -43.949 -53.858  13.367  1.00  0.00     0.002 C 
HETATM   17  C   UNL     1     -43.511 -52.396  13.311  1.00  0.00     0.020 C 
ENDBRANCH   8   9
ENDBRANCH   7   8
ENDBRANCH   1   7
BRANCH   4  18
HETATM   18  C   UNL     1     -42.870 -47.503   9.328  1.00  0.00     0.231 A 
HETATM   19  N   UNL     1     -42.538 -46.229   9.325  1.00  0.00    -0.330 N 
HETATM   20  C   UNL     1     -43.723 -45.582   9.072  1.00  0.00     0.116 A 
ATOM     21  HN  UNL     1     -41.616 -45.819   9.474  1.00  0.00     0.168 HD
HETATM   22  C   UNL     1     -44.725 -46.502   8.891  1.00  0.00     0.162 A 
HETATM   23  O   UNL     1     -44.185 -47.739   9.050  1.00  0.00    -0.290 OA
ENDBRANCH   4  18
TORSDOF 4
ENDMDL
MODEL 2
REMARK VINA RESULT:      -6.5      2.498      4.280
REMARK  4 active torsions:
REMARK  status: ('A' for Active; 'I' for Inactive)
REMARK    1  A    between atoms: C_2  and  C_3 
REMARK       I    between atoms: C_2  and  N_15 
REMARK    2  A    between atoms: C_3  and  C_4 
REMARK    3  A    between atoms: C_4  and  N_5 
REMARK       I    between atoms: N_5  and  C_6 
REMARK       I    between atoms: C_6  and  N_8 
REMARK    4  A    between atoms: N_8  and  C_9 
ROOT
HETATM    1  N   UNL     1     -41.345 -52.970  11.923  1.00  0.00    -0.342 N 
HETATM    2  C   UNL     1     -40.942 -51.691  12.242  1.00  0.00     0.323 C 
HETATM    3  O   UNL     1     -40.495 -51.414  13.347  1.00  0.00    -0.247 OA
HETATM    4  N   UNL     1     -41.063 -50.851  11.167  1.00  0.00    -0.274 N 
HETATM    5  H   UNL     1     -42.115 -53.060  11.269  1.00  0.00     0.164 HD
HETATM    6  H   UNL     1     -41.155 -51.241  10.246  1.00  0.00     0.174 HD
ENDROOT
BRANCH   1   7
HETATM    7  C   UNL     1     -41.216 -54.057  12.880  1.00  0.00     0.133 C 
BRANCH   7   8
HETATM    8  C   UNL     1     -42.425 -54.202  13.803  1.00  0.00     0.122 C 
BRANCH   8   9
HETATM    9  C   UNL     1     -43.677 -53.597  13.191  1.00  0.00     0.221 C 
HETATM   10  O   UNL     1     -44.159 -54.068  12.158  1.00  0.00    -0.273 OA
HETATM   11  N   UNL     1     -44.255 -52.512  13.850  1.00  0.00    -0.352 N 
HETATM   12  C   UNL     1     -45.540 -52.010  13.356  1.00  0.00     0.125 C 
HETATM   13  C   UNL     1     -43.640 -51.791  14.965  1.00  0.00     0.125 C 
HETATM   14  C   UNL     1     -46.684 -52.435  14.271  1.00  0.00     0.020 C 
HETATM   15  C   UNL     1     -46.939 -51.494  15.449  1.00  0.00     0.002 C 
HETATM   16  C   UNL     1     -45.720 -50.834  16.089  1.00  0.00     0.002 C 
HETATM   17  C   UNL     1     -44.498 -51.738  16.231  1.00  0.00     0.020 C 
ENDBRANCH   8   9
ENDBRANCH   7   8
ENDBRANCH   1   7
BRANCH   4  18
HETATM   18  C   UNL     1     -40.679 -49.545  11.212  1.00  0.00     0.231 A 
HETATM   19  N   UNL     1     -39.477 -49.114  11.533  1.00  0.00    -0.330 N 
HETATM   20  C   UNL     1     -39.589 -47.747  11.463  1.00  0.00     0.116 A 
ATOM     21  HN  UNL     1     -38.655 -49.667  11.777  1.00  0.00     0.168 HD
HETATM   22  C   UNL     1     -40.854 -47.405  11.059  1.00  0.00     0.162 A 
HETATM   23  O   UNL     1     -41.561 -48.554  10.892  1.00  0.00    -0.290 OA
ENDBRANCH   4  18
TORSDOF 4
ENDMDL
MODEL 3
REMARK VINA RESULT:      -6.4      2.299      3.628
REMARK  4 active torsions:
REMARK  status: ('A' for Active; 'I' for Inactive)
REMARK    1  A    between atoms: C_2  and  C_3 
REMARK       I    between atoms: C_2  and  N_15 
REMARK    2  A    between atoms: C_3  and  C_4 
REMARK    3  A    between atoms: C_4  and  N_5 
REMARK       I    between atoms: N_5  and  C_6 
REMARK       I    between atoms: C_6  and  N_8 
REMARK    4  A    between atoms: N_8  and  C_9 
ROOT
HETATM    1  N   UNL     1     -40.630 -52.203  12.086  1.00  0.00    -0.342 N 
HETATM    2  C   UNL     1     -41.231 -50.963  12.042  1.00  0.00     0.323 C 
HETATM    3  O   UNL     1     -42.089 -50.635  12.851  1.00  0.00    -0.247 OA
HETATM    4  N   UNL     1     -40.701 -50.190  11.044  1.00  0.00    -0.274 N 
HETATM    5  H   UNL     1     -40.349 -52.609  11.200  1.00  0.00     0.164 HD
HETATM    6  H   UNL     1     -39.815 -50.445  10.643  1.00  0.00     0.174 HD
ENDROOT
BRANCH   1   7
HETATM    7  C   UNL     1     -40.966 -53.162  13.127  1.00  0.00     0.133 C 
BRANCH   7   8
HETATM    8  C   UNL     1     -42.196 -54.007  12.802  1.00  0.00     0.122 C 
BRANCH   8   9
HETATM    9  C   UNL     1     -43.075 -54.217  14.024  1.00  0.00     0.221 C 
HETATM   10  O   UNL     1     -42.657 -54.856  14.993  1.00  0.00    -0.273 OA
HETATM   11  N   UNL     1     -44.349 -53.648  14.005  1.00  0.00    -0.352 N 
HETATM   12  C   UNL     1     -45.152 -53.717  15.228  1.00  0.00     0.125 C 
HETATM   13  C   UNL     1     -44.972 -53.041  12.828  1.00  0.00     0.125 C 
HETATM   14  C   UNL     1     -45.191 -52.365  15.936  1.00  0.00     0.020 C 
HETATM   15  C   UNL     1     -46.288 -51.421  15.445  1.00  0.00     0.002 C 
HETATM   16  C   UNL     1     -46.622 -51.456  13.956  1.00  0.00     0.002 C 
HETATM   17  C   UNL     1     -45.416 -51.591  13.028  1.00  0.00     0.020 C 
ENDBRANCH   8   9
ENDBRANCH   7   8
ENDBRANCH   1   7
BRANCH   4  18
HETATM   18  C   UNL     1     -41.089 -48.903  10.831  1.00  0.00     0.231 A 
HETATM   19  N   UNL     1     -42.232 -48.529  10.295  1.00  0.00    -0.330 N 
HETATM   20  C   UNL     1     -42.147 -47.158  10.265  1.00  0.00     0.116 A 
ATOM     21  HN  UNL     1     -43.000 -49.120   9.976  1.00  0.00     0.168 HD
HETATM   22  C   UNL     1     -40.964 -46.754  10.828  1.00  0.00     0.162 A 
HETATM   23  O   UNL     1     -40.278 -47.867  11.198  1.00  0.00    -0.290 OA
ENDBRANCH   4  18
TORSDOF 4
ENDMDL
MODEL 4
REMARK VINA RESULT:      -6.3      2.195      2.997
REMARK  4 active torsions:
REMARK  status: ('A' for Active; 'I' for Inactive)
REMARK    1  A    between atoms: C_2  and  C_3 
REMARK       I    between atoms: C_2  and  N_15 
REMARK    2  A    between atoms: C_3  and  C_4 
REMARK    3  A    between atoms: C_4  and  N_5 
REMARK       I    between atoms: N_5  and  C_6 
REMARK       I    between atoms: C_6  and  N_8 
REMARK    4  A    between atoms: N_8  and  C_9 
ROOT
HETATM    1  N   UNL     1     -41.229 -51.224  11.472  1.00  0.00    -0.342 N 
HETATM    2  C   UNL     1     -41.059 -49.865  11.638  1.00  0.00     0.323 C 
HETATM    3  O   UNL     1     -40.416 -49.407  12.573  1.00  0.00    -0.247 OA
HETATM    4  N   UNL     1     -41.643 -49.164  10.617  1.00  0.00    -0.274 N 
HETATM    5  H   UNL     1     -42.102 -51.530  11.055  1.00  0.00     0.164 HD
HETATM    6  H   UNL     1     -41.880 -49.642   9.766  1.00  0.00     0.174 HD
ENDROOT
BRANCH   1   7
HETATM    7  C   UNL     1     -40.612 -52.173  12.384  1.00  0.00     0.133 C 
BRANCH   7   8
HETATM    8  C   UNL     1     -41.607 -53.142  13.019  1.00  0.00     0.122 C 
BRANCH   8   9
HETATM    9  C   UNL     1     -42.459 -52.463  14.077  1.00  0.00     0.221 C 
HETATM   10  O   UNL     1     -42.180 -51.328  14.472  1.00  0.00    -0.273 OA
HETATM   11  N   UNL     1     -43.563 -53.165  14.562  1.00  0.00    -0.352 N 
HETATM   12  C   UNL     1     -44.476 -52.470  15.474  1.00  0.00     0.125 C 
HETATM   13  C   UNL     1     -43.845 -54.572  14.278  1.00  0.00     0.125 C 
HETATM   14  C   UNL     1     -45.767 -52.076  14.763  1.00  0.00     0.020 C 
HETATM   15  C   UNL     1     -46.844 -53.161  14.750  1.00  0.00     0.002 C 
HETATM   16  C   UNL     1     -46.372 -54.608  14.624  1.00  0.00     0.002 C 
HETATM   17  C   UNL     1     -45.217 -54.826  13.649  1.00  0.00     0.020 C 
ENDBRANCH   8   9
ENDBRANCH   7   8
ENDBRANCH   1   7
BRANCH   4  18
HETATM   18  C   UNL     1     -41.568 -47.808  10.524  1.00  0.00     0.231 A 
HETATM   19  N   UNL     1     -40.462 -47.098  10.599  1.00  0.00    -0.330 N 
HETATM   20  C   UNL     1     -40.896 -45.800  10.481  1.00  0.00     0.116 A 
ATOM     21  HN  UNL     1     -39.506 -47.434  10.718  1.00  0.00     0.168 HD
HETATM   22  C   UNL     1     -42.255 -45.780  10.296  1.00  0.00     0.162 A 
HETATM   23  O   UNL     1     -42.696 -47.066  10.319  1.00  0.00    -0.290 OA
ENDBRANCH   4  18
TORSDOF 4
ENDMDL
MODEL 5
REMARK VINA RESULT:      -6.3      1.238      1.578
REMARK  4 active torsions:
REMARK  status: ('A' for Active; 'I' for Inactive)
REMARK    1  A    between atoms: C_2  and  C_3 
REMARK       I    between atoms: C_2  and  N_15 
REMARK    2  A    between atoms: C_3  and  C_4 
REMARK    3  A    between atoms: C_4  and  N_5 
REMARK       I    between atoms: N_5  and  C_6 
REMARK       I    between atoms: C_6  and  N_8 
REMARK    4  A    between atoms: N_8  and  C_9 
ROOT
HETATM    1  N   UNL     1     -40.527 -49.539  10.674  1.00  0.00    -0.342 N 
HETATM    2  C   UNL     1     -41.719 -48.847  10.707  1.00  0.00     0.323 C 
HETATM    3  O   UNL     1     -42.428 -48.832  11.704  1.00  0.00    -0.247 OA
HETATM    4  N   UNL     1     -41.935 -48.176   9.533  1.00  0.00    -0.274 N 
HETATM    5  H   UNL     1     -40.251 -49.936   9.783  1.00  0.00     0.164 HD
HETATM    6  H   UNL     1     -41.164 -48.019   8.908  1.00  0.00     0.174 HD
ENDROOT
BRANCH   1   7
HETATM    7  C   UNL     1     -40.042 -50.250  11.847  1.00  0.00     0.133 C 
BRANCH   7   8
HETATM    8  C   UNL     1     -40.790 -51.554  12.120  1.00  0.00     0.122 C 
BRANCH   8   9
HETATM    9  C   UNL     1     -40.009 -52.467  13.051  1.00  0.00     0.221 C 
HETATM   10  O   UNL     1     -38.833 -52.218  13.330  1.00  0.00    -0.273 OA
HETATM   11  N   UNL     1     -40.678 -53.572  13.578  1.00  0.00    -0.352 N 
HETATM   12  C   UNL     1     -39.988 -54.379  14.588  1.00  0.00     0.125 C 
HETATM   13  C   UNL     1     -42.001 -54.026  13.149  1.00  0.00     0.125 C 
HETATM   14  C   UNL     1     -40.542 -54.104  15.982  1.00  0.00     0.020 C 
HETATM   15  C   UNL     1     -41.762 -54.946  16.359  1.00  0.00     0.002 C 
HETATM   16  C   UNL     1     -42.756 -55.267  15.246  1.00  0.00     0.002 C 
HETATM   17  C   UNL     1     -43.031 -54.120  14.277  1.00  0.00     0.020 C 
ENDBRANCH   8   9
ENDBRANCH   7   8
ENDBRANCH   1   7
BRANCH   4  18
HETATM   18  C   UNL     1     -43.018 -47.375   9.336  1.00  0.00     0.231 A 
HETATM   19  N   UNL     1     -44.275 -47.747   9.460  1.00  0.00    -0.330 N 
HETATM   20  C   UNL     1     -44.985 -46.616   9.137  1.00  0.00     0.116 A 
ATOM     21  HN  UNL     1     -44.636 -48.661   9.732  1.00  0.00     0.168 HD
HETATM   22  C   UNL     1     -44.120 -45.586   8.869  1.00  0.00     0.162 A 
HETATM   23  O   UNL     1     -42.854 -46.063   8.997  1.00  0.00    -0.290 OA
ENDBRANCH   4  18
TORSDOF 4
ENDMDL
MODEL 6
REMARK VINA RESULT:      -6.2      1.341      1.511
REMARK  4 active torsions:
REMARK  status: ('A' for Active; 'I' for Inactive)
REMARK    1  A    between atoms: C_2  and  C_3 
REMARK       I    between atoms: C_2  and  N_15 
REMARK    2  A    between atoms: C_3  and  C_4 
REMARK    3  A    between atoms: C_4  and  N_5 
REMARK       I    between atoms: N_5  and  C_6 
REMARK       I    between atoms: C_6  and  N_8 
REMARK    4  A    between atoms: N_8  and  C_9 
ROOT
HETATM    1  N   UNL     1     -39.820 -48.328  11.421  1.00  0.00    -0.342 N 
HETATM    2  C   UNL     1     -41.087 -47.794  11.325  1.00  0.00     0.323 C 
HETATM    3  O   UNL     1     -41.661 -47.320  12.297  1.00  0.00    -0.247 OA
HETATM    4  N   UNL     1     -41.543 -47.828  10.034  1.00  0.00    -0.274 N 
HETATM    5  H   UNL     1     -39.601 -49.104  10.806  1.00  0.00     0.164 HD
HETATM    6  H   UNL     1     -40.887 -47.961   9.285  1.00  0.00     0.174 HD
ENDROOT
BRANCH   1   7
HETATM    7  C   UNL     1     -39.094 -48.312  12.681  1.00  0.00     0.133 C 
BRANCH   7   8
HETATM    8  C   UNL     1     -39.380 -49.526  13.564  1.00  0.00     0.122 C 
BRANCH   8   9
HETATM    9  C   UNL     1     -39.542 -50.794  12.743  1.00  0.00     0.221 C 
HETATM   10  O   UNL     1     -38.597 -51.241  12.088  1.00  0.00    -0.273 OA
HETATM   11  N   UNL     1     -40.785 -51.428  12.778  1.00  0.00    -0.352 N 
HETATM   12  C   UNL     1     -40.915 -52.726  12.111  1.00  0.00     0.125 C 
HETATM   13  C   UNL     1     -41.992 -50.860  13.379  1.00  0.00     0.125 C 
HETATM   14  C   UNL     1     -40.953 -53.863  13.127  1.00  0.00     0.020 C 
HETATM   15  C   UNL     1     -42.343 -54.175  13.681  1.00  0.00     0.002 C 
HETATM   16  C   UNL     1     -43.288 -52.995  13.895  1.00  0.00     0.002 C 
HETATM   17  C   UNL     1     -42.631 -51.737  14.458  1.00  0.00     0.020 C 
ENDBRANCH   8   9
ENDBRANCH   7   8
ENDBRANCH   1   7
BRANCH   4  18
HETATM   18  C   UNL     1     -42.748 -47.310   9.670  1.00  0.00     0.231 A 
HETATM   19  N   UNL     1     -43.919 -47.867   9.897  1.00  0.00    -0.330 N 
HETATM   20  C   UNL     1     -44.814 -46.995   9.327  1.00  0.00     0.116 A 
ATOM     21  HN  UNL     1     -44.115 -48.742  10.383  1.00  0.00     0.168 HD
HETATM   22  C   UNL     1     -44.145 -45.915   8.810  1.00  0.00     0.162 A 
HETATM   23  O   UNL     1     -42.817 -46.107   9.028  1.00  0.00    -0.290 OA
ENDBRANCH   4  18
TORSDOF 4
ENDMDL
MODEL 7
REMARK VINA RESULT:      -6.0      1.628      2.183
REMARK  4 active torsions:
REMARK  status: ('A' for Active; 'I' for Inactive)
REMARK    1  A    between atoms: C_2  and  C_3 
REMARK       I    between atoms: C_2  and  N_15 
REMARK    2  A    between atoms: C_3  and  C_4 
REMARK    3  A    between atoms: C_4  and  N_5 
REMARK       I    between atoms: N_5  and  C_6 
REMARK       I    between atoms: C_6  and  N_8 
REMARK    4  A    between atoms: N_8  and  C_9 
ROOT
HETATM    1  N   UNL     1     -39.155 -50.350  11.436  1.00  0.00    -0.342 N 
HETATM    2  C   UNL     1     -39.736 -49.103  11.348  1.00  0.00     0.323 C 
HETATM    3  O   UNL     1     -39.179 -48.102  11.780  1.00  0.00    -0.247 OA
HETATM    4  N   UNL     1     -40.936 -49.160  10.690  1.00  0.00    -0.274 N 
HETATM    5  H   UNL     1     -39.779 -51.141  11.548  1.00  0.00     0.164 HD
HETATM    6  H   UNL     1     -41.150 -49.966  10.129  1.00  0.00     0.174 HD
ENDROOT
BRANCH   1   7
HETATM    7  C   UNL     1     -37.830 -50.520  12.010  1.00  0.00     0.133 C 
BRANCH   7   8
HETATM    8  C   UNL     1     -37.822 -51.370  13.280  1.00  0.00     0.122 C 
BRANCH   8   9
HETATM    9  C   UNL     1     -39.027 -51.083  14.159  1.00  0.00     0.221 C 
HETATM   10  O   UNL     1     -39.182 -49.969  14.665  1.00  0.00    -0.273 OA
HETATM   11  N   UNL     1     -39.944 -52.117  14.350  1.00  0.00    -0.352 N 
HETATM   12  C   UNL     1     -41.182 -51.815  15.074  1.00  0.00     0.125 C 
HETATM   13  C   UNL     1     -39.733 -53.505  13.937  1.00  0.00     0.125 C 
HETATM   14  C   UNL     1     -42.367 -51.719  14.117  1.00  0.00     0.020 C 
HETATM   15  C   UNL     1     -43.047 -53.054  13.810  1.00  0.00     0.002 C 
HETATM   16  C   UNL     1     -42.150 -54.286  13.715  1.00  0.00     0.002 C 
HETATM   17  C   UNL     1     -40.815 -54.058  13.009  1.00  0.00     0.020 C 
ENDBRANCH   8   9
ENDBRANCH   7   8
ENDBRANCH   1   7
BRANCH   4  18
HETATM   18  C   UNL     1     -41.680 -48.050  10.428  1.00  0.00     0.231 A 
HETATM   19  N   UNL     1     -41.199 -46.857  10.152  1.00  0.00    -0.330 N 
HETATM   20  C   UNL     1     -42.321 -46.079   9.995  1.00  0.00     0.116 A 
ATOM     21  HN  UNL     1     -40.222 -46.575  10.072  1.00  0.00     0.168 HD
HETATM   22  C   UNL     1     -43.445 -46.851  10.144  1.00  0.00     0.162 A 
HETATM   23  O   UNL     1     -43.043 -48.121  10.419  1.00  0.00    -0.290 OA
ENDBRANCH   4  18
TORSDOF 4
ENDMDL
MODEL 8
REMARK VINA RESULT:      -6.0      3.201      7.077
REMARK  4 active torsions:
REMARK  status: ('A' for Active; 'I' for Inactive)
REMARK    1  A    between atoms: C_2  and  C_3 
REMARK       I    between atoms: C_2  and  N_15 
REMARK    2  A    between atoms: C_3  and  C_4 
REMARK    3  A    between atoms: C_4  and  N_5 
REMARK       I    between atoms: N_5  and  C_6 
REMARK       I    between atoms: C_6  and  N_8 
REMARK    4  A    between atoms: N_8  and  C_9 
ROOT
HETATM    1  N   UNL     1     -41.220 -51.615  11.441  1.00  0.00    -0.342 N 
HETATM    2  C   UNL     1     -42.008 -52.077  12.474  1.00  0.00     0.323 C 
HETATM    3  O   UNL     1     -41.757 -51.813  13.642  1.00  0.00    -0.247 OA
HETATM    4  N   UNL     1     -43.080 -52.785  12.001  1.00  0.00    -0.274 N 
HETATM    5  H   UNL     1     -41.139 -52.210  10.624  1.00  0.00     0.164 HD
HETATM    6  H   UNL     1     -43.347 -52.688  11.037  1.00  0.00     0.174 HD
ENDROOT
BRANCH   1   7
HETATM    7  C   UNL     1     -40.076 -50.756  11.699  1.00  0.00     0.133 C 
BRANCH   7   8
HETATM    8  C   UNL     1     -40.314 -49.295  11.323  1.00  0.00     0.122 C 
BRANCH   8   9
HETATM    9  C   UNL     1     -40.367 -48.398  12.548  1.00  0.00     0.221 C 
HETATM   10  O   UNL     1     -40.252 -48.877  13.679  1.00  0.00    -0.273 OA
HETATM   11  N   UNL     1     -40.533 -47.029  12.336  1.00  0.00    -0.352 N 
HETATM   12  C   UNL     1     -40.441 -46.137  13.495  1.00  0.00     0.125 C 
HETATM   13  C   UNL     1     -40.858 -46.420  11.047  1.00  0.00     0.125 C 
HETATM   14  C   UNL     1     -39.113 -45.387  13.506  1.00  0.00     0.020 C 
HETATM   15  C   UNL     1     -39.107 -44.091  12.695  1.00  0.00     0.002 C 
HETATM   16  C   UNL     1     -39.926 -44.073  11.406  1.00  0.00     0.002 C 
HETATM   17  C   UNL     1     -39.860 -45.357  10.583  1.00  0.00     0.020 C 
ENDBRANCH   8   9
ENDBRANCH   7   8
ENDBRANCH   1   7
BRANCH   4  18
HETATM   18  C   UNL     1     -44.037 -53.300  12.822  1.00  0.00     0.231 A 
HETATM   19  N   UNL     1     -44.534 -52.702  13.884  1.00  0.00    -0.330 N 
HETATM   20  C   UNL     1     -45.429 -53.616  14.386  1.00  0.00     0.116 A 
ATOM     21  HN  UNL     1     -44.308 -51.776  14.248  1.00  0.00     0.168 HD
HETATM   22  C   UNL     1     -45.466 -54.722  13.577  1.00  0.00     0.162 A 
HETATM   23  O   UNL     1     -44.577 -54.528  12.566  1.00  0.00    -0.290 OA
ENDBRANCH   4  18
TORSDOF 4
ENDMDL
MODEL 9
REMARK VINA RESULT:      -5.8      3.633      5.346
REMARK  4 active torsions:
REMARK  status: ('A' for Active; 'I' for Inactive)
REMARK    1  A    between atoms: C_2  and  C_3 
REMARK       I    between atoms: C_2  and  N_15 
REMARK    2  A    between atoms: C_3  and  C_4 
REMARK    3  A    between atoms: C_4  and  N_5 
REMARK       I    between atoms: N_5  and  C_6 
REMARK       I    between atoms: C_6  and  N_8 
REMARK    4  A    between atoms: N_8  and  C_9 
ROOT
HETATM    1  N   UNL     1     -42.990 -52.711  11.736  1.00  0.00    -0.342 N 
HETATM    2  C   UNL     1     -42.122 -51.800  12.301  1.00  0.00     0.323 C 
HETATM    3  O   UNL     1     -42.389 -51.219  13.344  1.00  0.00    -0.247 OA
HETATM    4  N   UNL     1     -40.965 -51.702  11.575  1.00  0.00    -0.274 N 
HETATM    5  H   UNL     1     -42.996 -52.773  10.724  1.00  0.00     0.164 HD
HETATM    6  H   UNL     1     -40.734 -52.427  10.919  1.00  0.00     0.174 HD
ENDROOT
BRANCH   1   7
HETATM    7  C   UNL     1     -44.245 -53.051  12.386  1.00  0.00     0.133 C 
BRANCH   7   8
HETATM    8  C   UNL     1     -44.167 -54.317  13.237  1.00  0.00     0.122 C 
BRANCH   8   9
HETATM    9  C   UNL     1     -43.983 -53.996  14.710  1.00  0.00     0.221 C 
HETATM   10  O   UNL     1     -42.907 -54.222  15.270  1.00  0.00    -0.273 OA
HETATM   11  N   UNL     1     -45.065 -53.430  15.384  1.00  0.00    -0.352 N 
HETATM   12  C   UNL     1     -44.859 -52.982  16.765  1.00  0.00     0.125 C 
HETATM   13  C   UNL     1     -46.416 -53.308  14.837  1.00  0.00     0.125 C 
HETATM   14  C   UNL     1     -44.760 -51.461  16.838  1.00  0.00     0.020 C 
HETATM   15  C   UNL     1     -46.103 -50.741  16.962  1.00  0.00     0.002 C 
HETATM   16  C   UNL     1     -47.288 -51.344  16.210  1.00  0.00     0.002 C 
HETATM   17  C   UNL     1     -46.962 -51.879  14.818  1.00  0.00     0.020 C 
ENDBRANCH   8   9
ENDBRANCH   7   8
ENDBRANCH   1   7
BRANCH   4  18
HETATM   18  C   UNL     1     -39.927 -50.907  11.957  1.00  0.00     0.231 A 
HETATM   19  N   UNL     1     -39.234 -51.039  13.068  1.00  0.00    -0.330 N 
HETATM   20  C   UNL     1     -38.332 -50.004  13.016  1.00  0.00     0.116 A 
ATOM     21  HN  UNL     1     -39.343 -51.743  13.798  1.00  0.00     0.168 HD
HETATM   22  C   UNL     1     -38.490 -49.308  11.845  1.00  0.00     0.162 A 
HETATM   23  O   UNL     1     -39.511 -49.883  11.155  1.00  0.00    -0.290 OA
ENDBRANCH   4  18
TORSDOF 4
ENDMDL
