MODEL 1
REMARK VINA RESULT:      -6.1      0.000      0.000
REMARK  3 active torsions:
REMARK  status: ('A' for Active; 'I' for Inactive)
REMARK    1  A    between atoms: C_8  and  N_9 
REMARK       I    between atoms: N_9  and  C_10 
REMARK       I    between atoms: C_10  and  N_12 
REMARK    2  A    between atoms: N_12  and  C_13 
REMARK    3  A    between atoms: N_16  and  C_19 
ROOT
HETATM    1  N   UNL     1     -45.084 -51.447  12.804  1.00  0.00    -0.307 N 
HETATM    2  C   UNL     1     -43.906 -50.812  13.143  1.00  0.00     0.321 C 
HETATM    3  O   UNL     1     -43.181 -51.112  14.086  1.00  0.00    -0.247 OA
HETATM    4  N   UNL     1     -43.601 -49.742  12.315  1.00  0.00    -0.338 N 
HETATM    5  H   UNL     1     -45.737 -50.909  12.258  1.00  0.00     0.170 HD
HETATM    6  H   UNL     1     -43.949 -49.795  11.368  1.00  0.00     0.164 HD
ENDROOT
BRANCH   4   7
HETATM    7  C   UNL     1     -42.328 -49.031  12.533  1.00  0.00     0.089 C 
HETATM    8  C   UNL     1     -42.479 -47.782  13.405  1.00  0.00     0.055 C 
HETATM    9  C   UNL     1     -42.973 -46.556  12.634  1.00  0.00     0.275 C 
HETATM   10  N   UNL     1     -42.233 -46.266  11.391  1.00  0.00     0.093 N 
HETATM   11  C   UNL     1     -42.223 -47.467  10.541  1.00  0.00     0.275 C 
HETATM   12  C   UNL     1     -41.619 -48.697  11.215  1.00  0.00     0.055 C 
BRANCH  10  13
HETATM   13  C   UNL     1     -40.907 -45.647  11.616  1.00  0.00     0.223 C 
HETATM   14  C   UNL     1     -40.992 -44.222  12.223  1.00  0.00     0.036 C 
HETATM   15  C   UNL     1     -40.438 -43.267  11.174  1.00  0.00     0.002 C 
HETATM   16  C   UNL     1     -39.392 -44.096  10.458  1.00  0.00     0.002 C 
HETATM   17  C   UNL     1     -40.071 -45.451  10.328  1.00  0.00     0.036 C 
ENDBRANCH  10  13
ENDBRANCH   4   7
BRANCH   1  18
HETATM   18  C   UNL     1     -45.559 -52.633  13.438  1.00  0.00     0.057 A 
HETATM   19  C   UNL     1     -46.448 -52.578  14.526  1.00  0.00    -0.033 A 
HETATM   20  C   UNL     1     -46.984 -51.298  15.103  1.00  0.00     0.050 C 
HETATM   21  C   UNL     1     -46.883 -53.784  15.108  1.00  0.00     0.026 A 
HETATM   22  C   UNL     1     -46.426 -54.991  14.606  1.00  0.00     0.088 A 
HETATM   23  N   UNL     1     -45.590 -55.083  13.561  1.00  0.00    -0.373 N 
HETATM   24  C   UNL     1     -45.183 -53.913  13.005  1.00  0.00     0.117 A 
ATOM     25  HN  UNL     1     -45.277 -55.985  13.201  1.00  0.00     0.164 HD
ENDBRANCH   1  18
TORSDOF 3
ENDMDL
MODEL 2
REMARK VINA RESULT:      -6.0      1.401      2.003
REMARK  3 active torsions:
REMARK  status: ('A' for Active; 'I' for Inactive)
REMARK    1  A    between atoms: C_8  and  N_9 
REMARK       I    between atoms: N_9  and  C_10 
REMARK       I    between atoms: C_10  and  N_12 
REMARK    2  A    between atoms: N_12  and  C_13 
REMARK    3  A    between atoms: N_16  and  C_19 
ROOT
HETATM    1  N   UNL     1     -43.444 -51.856  12.406  1.00  0.00    -0.307 N 
HETATM    2  C   UNL     1     -43.193 -50.669  13.064  1.00  0.00     0.321 C 
HETATM    3  O   UNL     1     -43.643 -50.354  14.161  1.00  0.00    -0.247 OA
HETATM    4  N   UNL     1     -42.378 -49.806  12.348  1.00  0.00    -0.338 N 
HETATM    5  H   UNL     1     -43.317 -51.846  11.407  1.00  0.00     0.170 HD
HETATM    6  H   UNL     1     -41.723 -50.235  11.710  1.00  0.00     0.164 HD
ENDROOT
BRANCH   4   7
HETATM    7  C   UNL     1     -41.979 -48.536  12.981  1.00  0.00     0.089 C 
HETATM    8  C   UNL     1     -43.031 -47.433  12.830  1.00  0.00     0.055 C 
HETATM    9  C   UNL     1     -42.975 -46.718  11.478  1.00  0.00     0.275 C 
HETATM   10  N   UNL     1     -41.634 -46.249  11.080  1.00  0.00     0.093 N 
HETATM   11  C   UNL     1     -40.692 -47.379  11.130  1.00  0.00     0.275 C 
HETATM   12  C   UNL     1     -40.607 -48.054  12.497  1.00  0.00     0.055 C 
BRANCH  10  13
HETATM   13  C   UNL     1     -41.190 -45.031  11.795  1.00  0.00     0.223 C 
HETATM   14  C   UNL     1     -42.348 -44.044  12.098  1.00  0.00     0.036 C 
HETATM   15  C   UNL     1     -42.066 -42.781  11.294  1.00  0.00     0.002 C 
HETATM   16  C   UNL     1     -40.553 -42.720  11.249  1.00  0.00     0.002 C 
HETATM   17  C   UNL     1     -40.168 -44.172  11.011  1.00  0.00     0.036 C 
ENDBRANCH  10  13
ENDBRANCH   4   7
BRANCH   1  18
HETATM   18  C   UNL     1     -44.169 -52.944  12.977  1.00  0.00     0.057 A 
HETATM   19  C   UNL     1     -43.508 -54.043  13.557  1.00  0.00    -0.033 A 
HETATM   20  C   UNL     1     -42.012 -54.167  13.644  1.00  0.00     0.050 C 
HETATM   21  C   UNL     1     -44.279 -55.085  14.105  1.00  0.00     0.026 A 
HETATM   22  C   UNL     1     -45.660 -55.013  14.059  1.00  0.00     0.088 A 
HETATM   23  N   UNL     1     -46.325 -53.976  13.528  1.00  0.00    -0.373 N 
HETATM   24  C   UNL     1     -45.570 -52.974  13.007  1.00  0.00     0.117 A 
ATOM     25  HN  UNL     1     -47.345 -53.940  13.516  1.00  0.00     0.164 HD
ENDBRANCH   1  18
TORSDOF 3
ENDMDL
MODEL 3
REMARK VINA RESULT:      -5.6      3.380      8.389
REMARK  3 active torsions:
REMARK  status: ('A' for Active; 'I' for Inactive)
REMARK    1  A    between atoms: C_8  and  N_9 
REMARK       I    between atoms: N_9  and  C_10 
REMARK       I    between atoms: C_10  and  N_12 
REMARK    2  A    between atoms: N_12  and  C_13 
REMARK    3  A    between atoms: N_16  and  C_19 
ROOT
HETATM    1  N   UNL     1     -42.631 -48.761  10.775  1.00  0.00    -0.307 N 
HETATM    2  C   UNL     1     -42.725 -49.115  12.106  1.00  0.00     0.321 C 
HETATM    3  O   UNL     1     -43.171 -48.405  13.001  1.00  0.00    -0.247 OA
HETATM    4  N   UNL     1     -42.228 -50.382  12.374  1.00  0.00    -0.338 N 
HETATM    5  H   UNL     1     -41.950 -49.265  10.228  1.00  0.00     0.170 HD
HETATM    6  H   UNL     1     -42.277 -51.051  11.618  1.00  0.00     0.164 HD
ENDROOT
BRANCH   4   7
HETATM    7  C   UNL     1     -42.343 -50.900  13.749  1.00  0.00     0.089 C 
HETATM    8  C   UNL     1     -40.987 -51.211  14.388  1.00  0.00     0.055 C 
HETATM    9  C   UNL     1     -40.416 -52.570  13.978  1.00  0.00     0.275 C 
HETATM   10  N   UNL     1     -41.353 -53.702  14.112  1.00  0.00     0.093 N 
HETATM   11  C   UNL     1     -42.591 -53.395  13.378  1.00  0.00     0.275 C 
HETATM   12  C   UNL     1     -43.279 -52.111  13.835  1.00  0.00     0.055 C 
BRANCH  10  13
HETATM   13  C   UNL     1     -41.548 -54.154  15.508  1.00  0.00     0.223 C 
HETATM   14  C   UNL     1     -40.234 -54.617  16.190  1.00  0.00     0.036 C 
HETATM   15  C   UNL     1     -40.388 -56.107  16.467  1.00  0.00     0.002 C 
HETATM   16  C   UNL     1     -41.873 -56.269  16.718  1.00  0.00     0.002 C 
HETATM   17  C   UNL     1     -42.490 -55.373  15.656  1.00  0.00     0.036 C 
ENDBRANCH  10  13
ENDBRANCH   4   7
BRANCH   1  18
HETATM   18  C   UNL     1     -43.164 -47.555  10.233  1.00  0.00     0.057 A 
HETATM   19  C   UNL     1     -42.421 -46.360  10.229  1.00  0.00    -0.033 A 
HETATM   20  C   UNL     1     -41.023 -46.245  10.767  1.00  0.00     0.050 C 
HETATM   21  C   UNL     1     -43.002 -45.202   9.678  1.00  0.00     0.026 A 
HETATM   22  C   UNL     1     -44.284 -45.259   9.159  1.00  0.00     0.088 A 
HETATM   23  N   UNL     1     -45.017 -46.383   9.132  1.00  0.00    -0.373 N 
HETATM   24  C   UNL     1     -44.443 -47.494   9.662  1.00  0.00     0.117 A 
ATOM     25  HN  UNL     1     -45.956 -46.403   8.733  1.00  0.00     0.164 HD
ENDBRANCH   1  18
TORSDOF 3
ENDMDL
MODEL 4
REMARK VINA RESULT:      -5.5      1.572      8.422
REMARK  3 active torsions:
REMARK  status: ('A' for Active; 'I' for Inactive)
REMARK    1  A    between atoms: C_8  and  N_9 
REMARK       I    between atoms: N_9  and  C_10 
REMARK       I    between atoms: C_10  and  N_12 
REMARK    2  A    between atoms: N_12  and  C_13 
REMARK    3  A    between atoms: N_16  and  C_19 
ROOT
HETATM    1  N   UNL     1     -41.930 -49.371  11.259  1.00  0.00    -0.307 N 
HETATM    2  C   UNL     1     -42.448 -49.742  12.483  1.00  0.00     0.321 C 
HETATM    3  O   UNL     1     -42.484 -49.033  13.484  1.00  0.00    -0.247 OA
HETATM    4  N   UNL     1     -42.922 -51.044  12.508  1.00  0.00    -0.338 N 
HETATM    5  H   UNL     1     -41.644 -50.123  10.652  1.00  0.00     0.170 HD
HETATM    6  H   UNL     1     -43.257 -51.415  11.630  1.00  0.00     0.164 HD
ENDROOT
BRANCH   4   7
HETATM    7  C   UNL     1     -43.568 -51.529  13.741  1.00  0.00     0.089 C 
HETATM    8  C   UNL     1     -43.605 -53.057  13.838  1.00  0.00     0.055 C 
HETATM    9  C   UNL     1     -44.754 -53.690  13.049  1.00  0.00     0.275 C 
HETATM   10  N   UNL     1     -46.081 -53.096  13.301  1.00  0.00     0.093 N 
HETATM   11  C   UNL     1     -46.010 -51.643  13.076  1.00  0.00     0.275 C 
HETATM   12  C   UNL     1     -44.967 -50.933  13.935  1.00  0.00     0.055 C 
BRANCH  10  13
HETATM   13  C   UNL     1     -46.682 -53.502  14.591  1.00  0.00     0.223 C 
HETATM   14  C   UNL     1     -47.141 -52.300  15.457  1.00  0.00     0.036 C 
HETATM   15  C   UNL     1     -46.270 -52.305  16.707  1.00  0.00     0.002 C 
HETATM   16  C   UNL     1     -45.981 -53.775  16.931  1.00  0.00     0.002 C 
HETATM   17  C   UNL     1     -45.723 -54.283  15.521  1.00  0.00     0.036 C 
ENDBRANCH  10  13
ENDBRANCH   4   7
BRANCH   1  18
HETATM   18  C   UNL     1     -41.475 -48.054  10.952  1.00  0.00     0.057 A 
HETATM   19  C   UNL     1     -40.209 -47.600  11.364  1.00  0.00    -0.033 A 
HETATM   20  C   UNL     1     -39.230 -48.441  12.134  1.00  0.00     0.050 C 
HETATM   21  C   UNL     1     -39.817 -46.290  11.029  1.00  0.00     0.026 A 
HETATM   22  C   UNL     1     -40.679 -45.479  10.312  1.00  0.00     0.088 A 
HETATM   23  N   UNL     1     -41.887 -45.882   9.889  1.00  0.00    -0.373 N 
HETATM   24  C   UNL     1     -42.251 -47.150  10.214  1.00  0.00     0.117 A 
ATOM     25  HN  UNL     1     -42.500 -45.269   9.351  1.00  0.00     0.164 HD
ENDBRANCH   1  18
TORSDOF 3
ENDMDL
MODEL 5
REMARK VINA RESULT:      -5.4      6.013      9.726
REMARK  3 active torsions:
REMARK  status: ('A' for Active; 'I' for Inactive)
REMARK    1  A    between atoms: C_8  and  N_9 
REMARK       I    between atoms: N_9  and  C_10 
REMARK       I    between atoms: C_10  and  N_12 
REMARK    2  A    between atoms: N_12  and  C_13 
REMARK    3  A    between atoms: N_16  and  C_19 
ROOT
HETATM    1  N   UNL     1     -43.645 -52.823  15.272  1.00  0.00    -0.307 N 
HETATM    2  C   UNL     1     -43.680 -53.980  16.025  1.00  0.00     0.321 C 
HETATM    3  O   UNL     1     -44.616 -54.770  16.071  1.00  0.00    -0.247 OA
HETATM    4  N   UNL     1     -42.535 -54.177  16.781  1.00  0.00    -0.338 N 
HETATM    5  H   UNL     1     -43.002 -52.111  15.581  1.00  0.00     0.170 HD
HETATM    6  H   UNL     1     -41.681 -53.781  16.414  1.00  0.00     0.164 HD
ENDROOT
BRANCH   4   7
HETATM    7  C   UNL     1     -42.424 -55.418  17.570  1.00  0.00     0.089 C 
HETATM    8  C   UNL     1     -41.725 -55.213  18.917  1.00  0.00     0.055 C 
HETATM    9  C   UNL     1     -40.198 -55.202  18.816  1.00  0.00     0.275 C 
HETATM   10  N   UNL     1     -39.618 -56.334  18.068  1.00  0.00     0.093 N 
HETATM   11  C   UNL     1     -40.244 -56.407  16.738  1.00  0.00     0.275 C 
HETATM   12  C   UNL     1     -41.763 -56.551  16.777  1.00  0.00     0.055 C 
BRANCH  10  13
HETATM   13  C   UNL     1     -39.604 -57.606  18.825  1.00  0.00     0.223 C 
HETATM   14  C   UNL     1     -38.533 -57.638  19.946  1.00  0.00     0.036 C 
HETATM   15  C   UNL     1     -37.528 -58.716  19.558  1.00  0.00     0.002 C 
HETATM   16  C   UNL     1     -38.368 -59.730  18.810  1.00  0.00     0.002 C 
HETATM   17  C   UNL     1     -39.280 -58.852  17.967  1.00  0.00     0.036 C 
ENDBRANCH  10  13
ENDBRANCH   4   7
BRANCH   1  18
HETATM   18  C   UNL     1     -44.656 -52.452  14.337  1.00  0.00     0.057 A 
HETATM   19  C   UNL     1     -45.766 -51.679  14.724  1.00  0.00    -0.033 A 
HETATM   20  C   UNL     1     -45.983 -51.170  16.122  1.00  0.00     0.050 C 
HETATM   21  C   UNL     1     -46.730 -51.343  13.754  1.00  0.00     0.026 A 
HETATM   22  C   UNL     1     -46.570 -51.780  12.450  1.00  0.00     0.088 A 
HETATM   23  N   UNL     1     -45.517 -52.504  12.041  1.00  0.00    -0.373 N 
HETATM   24  C   UNL     1     -44.593 -52.817  12.985  1.00  0.00     0.117 A 
ATOM     25  HN  UNL     1     -45.416 -52.804  11.071  1.00  0.00     0.164 HD
ENDBRANCH   1  18
TORSDOF 3
ENDMDL
MODEL 6
REMARK VINA RESULT:      -5.3      6.684      9.041
REMARK  3 active torsions:
REMARK  status: ('A' for Active; 'I' for Inactive)
REMARK    1  A    between atoms: C_8  and  N_9 
REMARK       I    between atoms: N_9  and  C_10 
REMARK       I    between atoms: C_10  and  N_12 
REMARK    2  A    between atoms: N_12  and  C_13 
REMARK    3  A    between atoms: N_16  and  C_19 
ROOT
HETATM    1  N   UNL     1     -39.729 -56.359  18.144  1.00  0.00    -0.307 N 
HETATM    2  C   UNL     1     -39.911 -55.774  16.907  1.00  0.00     0.321 C 
HETATM    3  O   UNL     1     -39.285 -56.052  15.890  1.00  0.00    -0.247 OA
HETATM    4  N   UNL     1     -40.881 -54.784  16.905  1.00  0.00    -0.338 N 
HETATM    5  H   UNL     1     -40.036 -55.821  18.939  1.00  0.00     0.170 HD
HETATM    6  H   UNL     1     -41.621 -54.880  17.586  1.00  0.00     0.164 HD
ENDROOT
BRANCH   4   7
HETATM    7  C   UNL     1     -41.217 -54.138  15.623  1.00  0.00     0.089 C 
HETATM    8  C   UNL     1     -41.568 -52.655  15.772  1.00  0.00     0.055 C 
HETATM    9  C   UNL     1     -43.013 -52.412  16.214  1.00  0.00     0.275 C 
HETATM   10  N   UNL     1     -44.032 -53.137  15.430  1.00  0.00     0.093 N 
HETATM   11  C   UNL     1     -43.705 -54.572  15.423  1.00  0.00     0.275 C 
HETATM   12  C   UNL     1     -42.320 -54.889  14.868  1.00  0.00     0.055 C 
BRANCH  10  13
HETATM   13  C   UNL     1     -44.292 -52.546  14.098  1.00  0.00     0.223 C 
HETATM   14  C   UNL     1     -45.046 -51.193  14.166  1.00  0.00     0.036 C 
HETATM   15  C   UNL     1     -46.404 -51.417  13.514  1.00  0.00     0.002 C 
HETATM   16  C   UNL     1     -46.122 -52.466  12.459  1.00  0.00     0.002 C 
HETATM   17  C   UNL     1     -45.181 -53.419  13.179  1.00  0.00     0.036 C 
ENDBRANCH  10  13
ENDBRANCH   4   7
BRANCH   1  18
HETATM   18  C   UNL     1     -38.865 -57.468  18.380  1.00  0.00     0.057 A 
HETATM   19  C   UNL     1     -37.541 -57.287  18.820  1.00  0.00    -0.033 A 
HETATM   20  C   UNL     1     -36.928 -55.942  19.092  1.00  0.00     0.050 C 
HETATM   21  C   UNL     1     -36.737 -58.423  19.038  1.00  0.00     0.026 A 
HETATM   22  C   UNL     1     -37.259 -59.685  18.811  1.00  0.00     0.088 A 
HETATM   23  N   UNL     1     -38.520 -59.897  18.407  1.00  0.00    -0.373 N 
HETATM   24  C   UNL     1     -39.286 -58.794  18.206  1.00  0.00     0.117 A 
ATOM     25  HN  UNL     1     -38.885 -60.838  18.258  1.00  0.00     0.164 HD
ENDBRANCH   1  18
TORSDOF 3
ENDMDL
MODEL 7
REMARK VINA RESULT:      -5.3      2.005      2.539
REMARK  3 active torsions:
REMARK  status: ('A' for Active; 'I' for Inactive)
REMARK    1  A    between atoms: C_8  and  N_9 
REMARK       I    between atoms: N_9  and  C_10 
REMARK       I    between atoms: C_10  and  N_12 
REMARK    2  A    between atoms: N_12  and  C_13 
REMARK    3  A    between atoms: N_16  and  C_19 
ROOT
HETATM    1  N   UNL     1     -43.047 -51.799  14.478  1.00  0.00    -0.307 N 
HETATM    2  C   UNL     1     -42.383 -51.129  13.470  1.00  0.00     0.321 C 
HETATM    3  O   UNL     1     -42.334 -51.479  12.295  1.00  0.00    -0.247 OA
HETATM    4  N   UNL     1     -41.721 -49.993  13.909  1.00  0.00    -0.338 N 
HETATM    5  H   UNL     1     -42.729 -51.617  15.416  1.00  0.00     0.170 HD
HETATM    6  H   UNL     1     -42.113 -49.530  14.716  1.00  0.00     0.164 HD
ENDROOT
BRANCH   4   7
HETATM    7  C   UNL     1     -41.036 -49.153  12.909  1.00  0.00     0.089 C 
HETATM    8  C   UNL     1     -39.709 -48.581  13.413  1.00  0.00     0.055 C 
HETATM    9  C   UNL     1     -39.873 -47.329  14.277  1.00  0.00     0.275 C 
HETATM   10  N   UNL     1     -40.731 -46.280  13.692  1.00  0.00     0.093 N 
HETATM   11  C   UNL     1     -42.034 -46.863  13.338  1.00  0.00     0.275 C 
HETATM   12  C   UNL     1     -41.943 -48.040  12.370  1.00  0.00     0.055 C 
BRANCH  10  13
HETATM   13  C   UNL     1     -40.076 -45.506  12.614  1.00  0.00     0.223 C 
HETATM   14  C   UNL     1     -39.039 -44.479  13.140  1.00  0.00     0.036 C 
HETATM   15  C   UNL     1     -39.579 -43.097  12.795  1.00  0.00     0.002 C 
HETATM   16  C   UNL     1     -40.341 -43.327  11.506  1.00  0.00     0.002 C 
HETATM   17  C   UNL     1     -41.048 -44.648  11.768  1.00  0.00     0.036 C 
ENDBRANCH  10  13
ENDBRANCH   4   7
BRANCH   1  18
HETATM   18  C   UNL     1     -43.883 -52.934  14.263  1.00  0.00     0.057 A 
HETATM   19  C   UNL     1     -43.423 -54.241  14.507  1.00  0.00    -0.033 A 
HETATM   20  C   UNL     1     -42.047 -54.560  15.021  1.00  0.00     0.050 C 
HETATM   21  C   UNL     1     -44.297 -55.321  14.277  1.00  0.00     0.026 A 
HETATM   22  C   UNL     1     -45.578 -55.079  13.813  1.00  0.00     0.088 A 
HETATM   23  N   UNL     1     -46.056 -53.846  13.584  1.00  0.00    -0.373 N 
HETATM   24  C   UNL     1     -45.206 -52.814  13.814  1.00  0.00     0.117 A 
ATOM     25  HN  UNL     1     -47.009 -53.693  13.253  1.00  0.00     0.164 HD
ENDBRANCH   1  18
TORSDOF 3
ENDMDL
MODEL 8
REMARK VINA RESULT:      -5.1      2.004      2.680
REMARK  3 active torsions:
REMARK  status: ('A' for Active; 'I' for Inactive)
REMARK    1  A    between atoms: C_8  and  N_9 
REMARK       I    between atoms: N_9  and  C_10 
REMARK       I    between atoms: C_10  and  N_12 
REMARK    2  A    between atoms: N_12  and  C_13 
REMARK    3  A    between atoms: N_16  and  C_19 
ROOT
HETATM    1  N   UNL     1     -42.538 -51.750  12.606  1.00  0.00    -0.307 N 
HETATM    2  C   UNL     1     -43.050 -50.510  12.933  1.00  0.00     0.321 C 
HETATM    3  O   UNL     1     -43.738 -50.262  13.917  1.00  0.00    -0.247 OA
HETATM    4  N   UNL     1     -42.736 -49.525  12.009  1.00  0.00    -0.338 N 
HETATM    5  H   UNL     1     -42.305 -51.893  11.636  1.00  0.00     0.170 HD
HETATM    6  H   UNL     1     -41.875 -49.651  11.495  1.00  0.00     0.164 HD
ENDROOT
BRANCH   4   7
HETATM    7  C   UNL     1     -43.165 -48.143  12.289  1.00  0.00     0.089 C 
HETATM    8  C   UNL     1     -43.162 -47.250  11.046  1.00  0.00     0.055 C 
HETATM    9  C   UNL     1     -41.778 -46.696  10.696  1.00  0.00     0.275 C 
HETATM   10  N   UNL     1     -41.061 -46.065  11.821  1.00  0.00     0.093 N 
HETATM   11  C   UNL     1     -40.992 -47.015  12.943  1.00  0.00     0.275 C 
HETATM   12  C   UNL     1     -42.355 -47.505  13.424  1.00  0.00     0.055 C 
BRANCH  10  13
HETATM   13  C   UNL     1     -41.563 -44.718  12.169  1.00  0.00     0.223 C 
HETATM   14  C   UNL     1     -41.147 -43.627  11.149  1.00  0.00     0.036 C 
HETATM   15  C   UNL     1     -40.224 -42.666  11.888  1.00  0.00     0.002 C 
HETATM   16  C   UNL     1     -40.745 -42.699  13.310  1.00  0.00     0.002 C 
HETATM   17  C   UNL     1     -41.041 -44.176  13.523  1.00  0.00     0.036 C 
ENDBRANCH  10  13
ENDBRANCH   4   7
BRANCH   1  18
HETATM   18  C   UNL     1     -42.636 -52.898  13.446  1.00  0.00     0.057 A 
HETATM   19  C   UNL     1     -43.801 -53.687  13.478  1.00  0.00    -0.033 A 
HETATM   20  C   UNL     1     -45.018 -53.414  12.640  1.00  0.00     0.050 C 
HETATM   21  C   UNL     1     -43.836 -54.810  14.327  1.00  0.00     0.026 A 
HETATM   22  C   UNL     1     -42.736 -55.110  15.112  1.00  0.00     0.088 A 
HETATM   23  N   UNL     1     -41.603 -54.390  15.097  1.00  0.00    -0.373 N 
HETATM   24  C   UNL     1     -41.581 -53.314  14.270  1.00  0.00     0.117 A 
ATOM     25  HN  UNL     1     -40.801 -54.639  15.676  1.00  0.00     0.164 HD
ENDBRANCH   1  18
TORSDOF 3
ENDMDL
MODEL 9
REMARK VINA RESULT:      -5.1      4.561      5.114
REMARK  3 active torsions:
REMARK  status: ('A' for Active; 'I' for Inactive)
REMARK    1  A    between atoms: C_8  and  N_9 
REMARK       I    between atoms: N_9  and  C_10 
REMARK       I    between atoms: C_10  and  N_12 
REMARK    2  A    between atoms: N_12  and  C_13 
REMARK    3  A    between atoms: N_16  and  C_19 
ROOT
HETATM    1  N   UNL     1     -39.296 -53.044  15.485  1.00  0.00    -0.307 N 
HETATM    2  C   UNL     1     -39.460 -52.723  14.153  1.00  0.00     0.321 C 
HETATM    3  O   UNL     1     -39.660 -53.526  13.247  1.00  0.00    -0.247 OA
HETATM    4  N   UNL     1     -39.350 -51.365  13.898  1.00  0.00    -0.338 N 
HETATM    5  H   UNL     1     -38.804 -52.368  16.048  1.00  0.00     0.170 HD
HETATM    6  H   UNL     1     -39.608 -50.745  14.652  1.00  0.00     0.164 HD
ENDROOT
BRANCH   4   7
HETATM    7  C   UNL     1     -39.580 -50.892  12.520  1.00  0.00     0.089 C 
HETATM    8  C   UNL     1     -38.819 -49.605  12.192  1.00  0.00     0.055 C 
HETATM    9  C   UNL     1     -39.520 -48.338  12.690  1.00  0.00     0.275 C 
HETATM   10  N   UNL     1     -40.946 -48.235  12.326  1.00  0.00     0.093 N 
HETATM   11  C   UNL     1     -41.648 -49.449  12.773  1.00  0.00     0.275 C 
HETATM   12  C   UNL     1     -41.072 -50.743  12.202  1.00  0.00     0.055 C 
BRANCH  10  13
HETATM   13  C   UNL     1     -41.177 -47.862  10.912  1.00  0.00     0.223 C 
HETATM   14  C   UNL     1     -40.844 -46.378  10.609  1.00  0.00     0.036 C 
HETATM   15  C   UNL     1     -42.157 -45.705  10.230  1.00  0.00     0.002 C 
HETATM   16  C   UNL     1     -42.943 -46.814   9.561  1.00  0.00     0.002 C 
HETATM   17  C   UNL     1     -42.645 -48.015  10.446  1.00  0.00     0.036 C 
ENDBRANCH  10  13
ENDBRANCH   4   7
BRANCH   1  18
HETATM   18  C   UNL     1     -39.465 -54.358  16.014  1.00  0.00     0.057 A 
HETATM   19  C   UNL     1     -40.744 -54.904  16.228  1.00  0.00    -0.033 A 
HETATM   20  C   UNL     1     -42.024 -54.182  15.916  1.00  0.00     0.050 C 
HETATM   21  C   UNL     1     -40.845 -56.208  16.751  1.00  0.00     0.026 A 
HETATM   22  C   UNL     1     -39.695 -56.919  17.046  1.00  0.00     0.088 A 
HETATM   23  N   UNL     1     -38.459 -56.437  16.840  1.00  0.00    -0.373 N 
HETATM   24  C   UNL     1     -38.376 -55.181  16.331  1.00  0.00     0.117 A 
ATOM     25  HN  UNL     1     -37.626 -56.986  17.055  1.00  0.00     0.164 HD
ENDBRANCH   1  18
TORSDOF 3
ENDMDL
