MODEL 1
REMARK VINA RESULT:      -6.0      0.000      0.000
REMARK  4 active torsions:
REMARK  status: ('A' for Active; 'I' for Inactive)
REMARK    1  A    between atoms: C_2  and  C_3 
REMARK    2  A    between atoms: C_3  and  C_4 
REMARK    3  A    between atoms: C_6  and  N_7 
REMARK       I    between atoms: N_7  and  C_8 
REMARK       I    between atoms: C_8  and  N_10 
REMARK    4  A    between atoms: N_10  and  C_11 
ROOT
HETATM    1  N   UNL     1     -42.202 -47.939   9.677  1.00  0.00    -0.338 N 
HETATM    2  C   UNL     1     -41.417 -48.348  10.739  1.00  0.00     0.321 C 
HETATM    3  O   UNL     1     -41.378 -47.766  11.813  1.00  0.00    -0.247 OA
HETATM    4  N   UNL     1     -40.756 -49.529  10.446  1.00  0.00    -0.306 N 
HETATM    5  H   UNL     1     -41.827 -48.129   8.755  1.00  0.00     0.164 HD
HETATM    6  H   UNL     1     -41.283 -50.151   9.853  1.00  0.00     0.171 HD
ENDROOT
BRANCH   1   7
HETATM    7  C   UNL     1     -43.162 -46.889   9.811  1.00  0.00     0.090 A 
HETATM    8  C   UNL     1     -44.495 -46.957   9.101  1.00  0.00     0.010 A 
HETATM    9  C   UNL     1     -43.463 -45.939   8.686  1.00  0.00     0.032 A 
BRANCH   8  10
HETATM   10  C   UNL     1     -44.847 -48.077   8.162  1.00  0.00     0.006 C 
BRANCH  10  11
HETATM   11  C   UNL     1     -46.305 -48.520   8.292  1.00  0.00    -0.004 C 
HETATM   12  C   UNL     1     -47.150 -47.584   9.141  1.00  0.00     0.005 C 
ENDBRANCH  10  11
ENDBRANCH   8  10
ENDBRANCH   1   7
BRANCH   4  13
HETATM   13  C   UNL     1     -39.923 -50.159  11.405  1.00  0.00     0.077 A 
HETATM   14  C   UNL     1     -38.580 -49.818  11.559  1.00  0.00     0.050 A 
HETATM   15  C   UNL     1     -37.853 -50.457  12.551  1.00  0.00     0.090 A 
HETATM   16  N   UNL     1     -38.366 -51.389  13.386  1.00  0.00    -0.372 N 
HETATM   17  C   UNL     1     -39.672 -51.700  13.208  1.00  0.00     0.132 A 
ATOM     18  HN  UNL     1     -37.801 -51.834  14.110  1.00  0.00     0.164 HD
HETATM   19  C   UNL     1     -40.469 -51.135  12.231  1.00  0.00     0.158 A 
HETATM   20  F   UNL     1     -41.760 -51.479  12.120  1.00  0.00    -0.202 F 
ENDBRANCH   4  13
TORSDOF 4
ENDMDL
MODEL 2
REMARK VINA RESULT:      -5.5      4.484      5.789
REMARK  4 active torsions:
REMARK  status: ('A' for Active; 'I' for Inactive)
REMARK    1  A    between atoms: C_2  and  C_3 
REMARK    2  A    between atoms: C_3  and  C_4 
REMARK    3  A    between atoms: C_6  and  N_7 
REMARK       I    between atoms: N_7  and  C_8 
REMARK       I    between atoms: C_8  and  N_10 
REMARK    4  A    between atoms: N_10  and  C_11 
ROOT
HETATM    1  N   UNL     1     -42.072 -51.063  11.920  1.00  0.00    -0.338 N 
HETATM    2  C   UNL     1     -42.838 -51.750  12.842  1.00  0.00     0.321 C 
HETATM    3  O   UNL     1     -42.629 -51.724  14.047  1.00  0.00    -0.247 OA
HETATM    4  N   UNL     1     -43.901 -52.394  12.229  1.00  0.00    -0.306 N 
HETATM    5  H   UNL     1     -41.980 -51.501  11.011  1.00  0.00     0.164 HD
HETATM    6  H   UNL     1     -44.273 -51.894  11.437  1.00  0.00     0.171 HD
ENDROOT
BRANCH   1   7
HETATM    7  C   UNL     1     -41.067 -50.130  12.322  1.00  0.00     0.090 A 
HETATM    8  C   UNL     1     -40.983 -48.758  11.692  1.00  0.00     0.010 A 
HETATM    9  C   UNL     1     -39.906 -49.781  11.434  1.00  0.00     0.032 A 
BRANCH   8  10
HETATM   10  C   UNL     1     -41.885 -48.335  10.567  1.00  0.00     0.006 C 
BRANCH  10  11
HETATM   11  C   UNL     1     -43.035 -47.442  11.036  1.00  0.00    -0.004 C 
HETATM   12  C   UNL     1     -44.231 -47.453  10.097  1.00  0.00     0.005 C 
ENDBRANCH  10  11
ENDBRANCH   8  10
ENDBRANCH   1   7
BRANCH   4  13
HETATM   13  C   UNL     1     -44.846 -53.129  12.987  1.00  0.00     0.077 A 
HETATM   14  C   UNL     1     -44.724 -54.503  13.193  1.00  0.00     0.050 A 
HETATM   15  C   UNL     1     -45.674 -55.133  13.982  1.00  0.00     0.090 A 
HETATM   16  N   UNL     1     -46.711 -54.497  14.574  1.00  0.00    -0.372 N 
HETATM   17  C   UNL     1     -46.802 -53.164  14.352  1.00  0.00     0.132 A 
ATOM     18  HN  UNL     1     -47.387 -54.993  15.154  1.00  0.00     0.164 HD
HETATM   19  C   UNL     1     -45.919 -52.455  13.560  1.00  0.00     0.158 A 
HETATM   20  F   UNL     1     -46.060 -51.132  13.394  1.00  0.00    -0.202 F 
ENDBRANCH   4  13
TORSDOF 4
ENDMDL
MODEL 3
REMARK VINA RESULT:      -5.3      3.545      5.265
REMARK  4 active torsions:
REMARK  status: ('A' for Active; 'I' for Inactive)
REMARK    1  A    between atoms: C_2  and  C_3 
REMARK    2  A    between atoms: C_3  and  C_4 
REMARK    3  A    between atoms: C_6  and  N_7 
REMARK       I    between atoms: N_7  and  C_8 
REMARK       I    between atoms: C_8  and  N_10 
REMARK    4  A    between atoms: N_10  and  C_11 
ROOT
HETATM    1  N   UNL     1     -43.251 -50.942  12.680  1.00  0.00    -0.338 N 
HETATM    2  C   UNL     1     -42.886 -49.614  12.563  1.00  0.00     0.321 C 
HETATM    3  O   UNL     1     -43.035 -48.792  13.455  1.00  0.00    -0.247 OA
HETATM    4  N   UNL     1     -42.268 -49.371  11.347  1.00  0.00    -0.306 N 
HETATM    5  H   UNL     1     -43.557 -51.391  11.825  1.00  0.00     0.164 HD
HETATM    6  H   UNL     1     -41.718 -50.147  11.011  1.00  0.00     0.171 HD
ENDROOT
BRANCH   1   7
HETATM    7  C   UNL     1     -43.684 -51.497  13.924  1.00  0.00     0.090 A 
HETATM    8  C   UNL     1     -44.880 -52.420  13.990  1.00  0.00     0.010 A 
HETATM    9  C   UNL     1     -44.947 -51.043  14.600  1.00  0.00     0.032 A 
BRANCH   8  10
HETATM   10  C   UNL     1     -45.717 -52.736  12.783  1.00  0.00     0.006 C 
BRANCH  10  11
HETATM   11  C   UNL     1     -46.836 -51.717  12.559  1.00  0.00    -0.004 C 
HETATM   12  C   UNL     1     -47.332 -51.669  11.122  1.00  0.00     0.005 C 
ENDBRANCH  10  11
ENDBRANCH   8  10
ENDBRANCH   1   7
BRANCH   4  13
HETATM   13  C   UNL     1     -41.772 -48.084  11.023  1.00  0.00     0.077 A 
HETATM   14  C   UNL     1     -40.476 -47.684  11.351  1.00  0.00     0.050 A 
HETATM   15  C   UNL     1     -40.062 -46.422  10.957  1.00  0.00     0.090 A 
HETATM   16  N   UNL     1     -40.834 -45.552  10.266  1.00  0.00    -0.372 N 
HETATM   17  C   UNL     1     -42.087 -45.969   9.966  1.00  0.00     0.132 A 
ATOM     18  HN  UNL     1     -40.492 -44.632   9.987  1.00  0.00     0.164 HD
HETATM   19  C   UNL     1     -42.596 -47.199  10.338  1.00  0.00     0.158 A 
HETATM   20  F   UNL     1     -43.842 -47.554   9.994  1.00  0.00    -0.202 F 
ENDBRANCH   4  13
TORSDOF 4
ENDMDL
MODEL 4
REMARK VINA RESULT:      -5.2      4.099      5.763
REMARK  4 active torsions:
REMARK  status: ('A' for Active; 'I' for Inactive)
REMARK    1  A    between atoms: C_2  and  C_3 
REMARK    2  A    between atoms: C_3  and  C_4 
REMARK    3  A    between atoms: C_6  and  N_7 
REMARK       I    between atoms: N_7  and  C_8 
REMARK       I    between atoms: C_8  and  N_10 
REMARK    4  A    between atoms: N_10  and  C_11 
ROOT
HETATM    1  N   UNL     1     -44.366 -50.926  13.057  1.00  0.00    -0.338 N 
HETATM    2  C   UNL     1     -43.461 -49.882  13.026  1.00  0.00     0.321 C 
HETATM    3  O   UNL     1     -43.327 -49.077  13.937  1.00  0.00    -0.247 OA
HETATM    4  N   UNL     1     -42.688 -49.924  11.877  1.00  0.00    -0.306 N 
HETATM    5  H   UNL     1     -44.753 -51.199  12.161  1.00  0.00     0.164 HD
HETATM    6  H   UNL     1     -42.492 -50.860  11.556  1.00  0.00     0.171 HD
ENDROOT
BRANCH   1   7
HETATM    7  C   UNL     1     -45.108 -51.245  14.236  1.00  0.00     0.090 A 
HETATM    8  C   UNL     1     -45.689 -52.626  14.441  1.00  0.00     0.010 A 
HETATM    9  C   UNL     1     -46.597 -51.445  14.207  1.00  0.00     0.032 A 
BRANCH   8  10
HETATM   10  C   UNL     1     -45.590 -53.700  13.395  1.00  0.00     0.006 C 
BRANCH  10  11
HETATM   11  C   UNL     1     -44.985 -54.997  13.935  1.00  0.00    -0.004 C 
HETATM   12  C   UNL     1     -43.608 -54.811  14.554  1.00  0.00     0.005 C 
ENDBRANCH  10  11
ENDBRANCH   8  10
ENDBRANCH   1   7
BRANCH   4  13
HETATM   13  C   UNL     1     -41.662 -48.973  11.650  1.00  0.00     0.077 A 
HETATM   14  C   UNL     1     -40.347 -49.187  12.063  1.00  0.00     0.050 A 
HETATM   15  C   UNL     1     -39.401 -48.220  11.761  1.00  0.00     0.090 A 
HETATM   16  N   UNL     1     -39.671 -47.081  11.082  1.00  0.00    -0.372 N 
HETATM   17  C   UNL     1     -40.958 -46.902  10.698  1.00  0.00     0.132 A 
ATOM     18  HN  UNL     1     -38.947 -46.395  10.872  1.00  0.00     0.164 HD
HETATM   19  C   UNL     1     -41.973 -47.798  10.976  1.00  0.00     0.158 A 
HETATM   20  F   UNL     1     -43.224 -47.565  10.552  1.00  0.00    -0.202 F 
ENDBRANCH   4  13
TORSDOF 4
ENDMDL
MODEL 5
REMARK VINA RESULT:      -5.2      3.332      4.058
REMARK  4 active torsions:
REMARK  status: ('A' for Active; 'I' for Inactive)
REMARK    1  A    between atoms: C_2  and  C_3 
REMARK    2  A    between atoms: C_3  and  C_4 
REMARK    3  A    between atoms: C_6  and  N_7 
REMARK       I    between atoms: N_7  and  C_8 
REMARK       I    between atoms: C_8  and  N_10 
REMARK    4  A    between atoms: N_10  and  C_11 
ROOT
HETATM    1  N   UNL     1     -42.398 -49.563  11.666  1.00  0.00    -0.338 N 
HETATM    2  C   UNL     1     -42.738 -50.509  12.614  1.00  0.00     0.321 C 
HETATM    3  O   UNL     1     -43.135 -50.228  13.736  1.00  0.00    -0.247 OA
HETATM    4  N   UNL     1     -42.642 -51.790  12.098  1.00  0.00    -0.306 N 
HETATM    5  H   UNL     1     -41.660 -49.828  11.025  1.00  0.00     0.164 HD
HETATM    6  H   UNL     1     -42.880 -51.851  11.120  1.00  0.00     0.171 HD
ENDROOT
BRANCH   1   7
HETATM    7  C   UNL     1     -42.643 -48.169  11.870  1.00  0.00     0.090 A 
HETATM    8  C   UNL     1     -42.970 -47.258  10.709  1.00  0.00     0.010 A 
HETATM    9  C   UNL     1     -41.659 -47.118  11.441  1.00  0.00     0.032 A 
BRANCH   8  10
HETATM   10  C   UNL     1     -42.973 -47.741   9.286  1.00  0.00     0.006 C 
BRANCH  10  11
HETATM   11  C   UNL     1     -44.292 -47.453   8.567  1.00  0.00    -0.004 C 
HETATM   12  C   UNL     1     -45.506 -47.517   9.480  1.00  0.00     0.005 C 
ENDBRANCH  10  11
ENDBRANCH   8  10
ENDBRANCH   1   7
BRANCH   4  13
HETATM   13  C   UNL     1     -42.983 -52.922  12.881  1.00  0.00     0.077 A 
HETATM   14  C   UNL     1     -42.072 -53.527  13.746  1.00  0.00     0.050 A 
HETATM   15  C   UNL     1     -42.505 -54.603  14.504  1.00  0.00     0.090 A 
HETATM   16  N   UNL     1     -43.762 -55.102  14.463  1.00  0.00    -0.372 N 
HETATM   17  C   UNL     1     -44.621 -54.494  13.611  1.00  0.00     0.132 A 
ATOM     18  HN  UNL     1     -44.047 -55.893  15.041  1.00  0.00     0.164 HD
HETATM   19  C   UNL     1     -44.274 -53.432  12.798  1.00  0.00     0.158 A 
HETATM   20  F   UNL     1     -45.180 -52.868  11.987  1.00  0.00    -0.202 F 
ENDBRANCH   4  13
TORSDOF 4
ENDMDL
MODEL 6
REMARK VINA RESULT:      -5.1      2.366      2.948
REMARK  4 active torsions:
REMARK  status: ('A' for Active; 'I' for Inactive)
REMARK    1  A    between atoms: C_2  and  C_3 
REMARK    2  A    between atoms: C_3  and  C_4 
REMARK    3  A    between atoms: C_6  and  N_7 
REMARK       I    between atoms: N_7  and  C_8 
REMARK       I    between atoms: C_8  and  N_10 
REMARK    4  A    between atoms: N_10  and  C_11 
ROOT
HETATM    1  N   UNL     1     -42.286 -49.199  11.226  1.00  0.00    -0.338 N 
HETATM    2  C   UNL     1     -41.964 -50.068  12.251  1.00  0.00     0.321 C 
HETATM    3  O   UNL     1     -41.670 -49.702  13.380  1.00  0.00    -0.247 OA
HETATM    4  N   UNL     1     -42.098 -51.387  11.848  1.00  0.00    -0.306 N 
HETATM    5  H   UNL     1     -42.028 -49.503  10.295  1.00  0.00     0.164 HD
HETATM    6  H   UNL     1     -42.845 -51.534  11.188  1.00  0.00     0.171 HD
ENDROOT
BRANCH   1   7
HETATM    7  C   UNL     1     -42.460 -47.798  11.453  1.00  0.00     0.090 A 
HETATM    8  C   UNL     1     -43.330 -46.964  10.540  1.00  0.00     0.010 A 
HETATM    9  C   UNL     1     -41.835 -46.765  10.559  1.00  0.00     0.032 A 
BRANCH   8  10
HETATM   10  C   UNL     1     -43.983 -47.534   9.313  1.00  0.00     0.006 C 
BRANCH  10  11
HETATM   11  C   UNL     1     -45.404 -47.008   9.102  1.00  0.00    -0.004 C 
HETATM   12  C   UNL     1     -46.437 -48.109   8.917  1.00  0.00     0.005 C 
ENDBRANCH  10  11
ENDBRANCH   8  10
ENDBRANCH   1   7
BRANCH   4  13
HETATM   13  C   UNL     1     -41.860 -52.455  12.749  1.00  0.00     0.077 A 
HETATM   14  C   UNL     1     -40.596 -53.022  12.909  1.00  0.00     0.050 A 
HETATM   15  C   UNL     1     -40.447 -54.035  13.844  1.00  0.00     0.090 A 
HETATM   16  N   UNL     1     -41.451 -54.505  14.619  1.00  0.00    -0.372 N 
HETATM   17  C   UNL     1     -42.667 -53.935  14.437  1.00  0.00     0.132 A 
ATOM     18  HN  UNL     1     -41.302 -55.248  15.301  1.00  0.00     0.164 HD
HETATM   19  C   UNL     1     -42.916 -52.938  13.512  1.00  0.00     0.158 A 
HETATM   20  F   UNL     1     -44.142 -52.408  13.395  1.00  0.00    -0.202 F 
ENDBRANCH   4  13
TORSDOF 4
ENDMDL
MODEL 7
REMARK VINA RESULT:      -5.1      5.243      6.261
REMARK  4 active torsions:
REMARK  status: ('A' for Active; 'I' for Inactive)
REMARK    1  A    between atoms: C_2  and  C_3 
REMARK    2  A    between atoms: C_3  and  C_4 
REMARK    3  A    between atoms: C_6  and  N_7 
REMARK       I    between atoms: N_7  and  C_8 
REMARK       I    between atoms: C_8  and  N_10 
REMARK    4  A    between atoms: N_10  and  C_11 
ROOT
HETATM    1  N   UNL     1     -44.633 -52.699  13.167  1.00  0.00    -0.338 N 
HETATM    2  C   UNL     1     -43.359 -52.724  13.701  1.00  0.00     0.321 C 
HETATM    3  O   UNL     1     -42.785 -51.730  14.123  1.00  0.00    -0.247 OA
HETATM    4  N   UNL     1     -42.867 -54.017  13.761  1.00  0.00    -0.306 N 
HETATM    5  H   UNL     1     -44.817 -53.376  12.436  1.00  0.00     0.164 HD
HETATM    6  H   UNL     1     -43.576 -54.711  13.942  1.00  0.00     0.171 HD
ENDROOT
BRANCH   1   7
HETATM    7  C   UNL     1     -45.449 -51.527  13.218  1.00  0.00     0.090 A 
HETATM    8  C   UNL     1     -46.569 -51.401  14.227  1.00  0.00     0.010 A 
HETATM    9  C   UNL     1     -46.879 -51.533  12.757  1.00  0.00     0.032 A 
BRANCH   8  10
HETATM   10  C   UNL     1     -46.935 -52.519  15.162  1.00  0.00     0.006 C 
BRANCH  10  11
HETATM   11  C   UNL     1     -46.960 -52.080  16.627  1.00  0.00    -0.004 C 
HETATM   12  C   UNL     1     -48.035 -51.048  16.931  1.00  0.00     0.005 C 
ENDBRANCH  10  11
ENDBRANCH   8  10
ENDBRANCH   1   7
BRANCH   4  13
HETATM   13  C   UNL     1     -41.590 -54.290  14.312  1.00  0.00     0.077 A 
HETATM   14  C   UNL     1     -41.420 -54.647  15.650  1.00  0.00     0.050 A 
HETATM   15  C   UNL     1     -40.139 -54.937  16.092  1.00  0.00     0.090 A 
HETATM   16  N   UNL     1     -39.039 -54.901  15.305  1.00  0.00    -0.372 N 
HETATM   17  C   UNL     1     -39.238 -54.548  14.012  1.00  0.00     0.132 A 
ATOM     18  HN  UNL     1     -38.112 -55.127  15.664  1.00  0.00     0.164 HD
HETATM   19  C   UNL     1     -40.473 -54.218  13.488  1.00  0.00     0.158 A 
HETATM   20  F   UNL     1     -40.600 -53.891  12.194  1.00  0.00    -0.202 F 
ENDBRANCH   4  13
TORSDOF 4
ENDMDL
MODEL 8
REMARK VINA RESULT:      -5.0      4.220      5.207
REMARK  4 active torsions:
REMARK  status: ('A' for Active; 'I' for Inactive)
REMARK    1  A    between atoms: C_2  and  C_3 
REMARK    2  A    between atoms: C_3  and  C_4 
REMARK    3  A    between atoms: C_6  and  N_7 
REMARK       I    between atoms: N_7  and  C_8 
REMARK       I    between atoms: C_8  and  N_10 
REMARK    4  A    between atoms: N_10  and  C_11 
ROOT
HETATM    1  N   UNL     1     -42.947 -52.752  13.396  1.00  0.00    -0.338 N 
HETATM    2  C   UNL     1     -41.835 -52.279  12.725  1.00  0.00     0.321 C 
HETATM    3  O   UNL     1     -41.610 -52.511  11.546  1.00  0.00    -0.247 OA
HETATM    4  N   UNL     1     -41.072 -51.459  13.539  1.00  0.00    -0.306 N 
HETATM    5  H   UNL     1     -42.816 -52.948  14.381  1.00  0.00     0.164 HD
HETATM    6  H   UNL     1     -41.616 -50.919  14.194  1.00  0.00     0.171 HD
ENDROOT
BRANCH   1   7
HETATM    7  C   UNL     1     -44.012 -53.418  12.714  1.00  0.00     0.090 A 
HETATM    8  C   UNL     1     -45.376 -52.777  12.586  1.00  0.00     0.010 A 
HETATM    9  C   UNL     1     -45.187 -53.999  13.449  1.00  0.00     0.032 A 
BRANCH   8  10
HETATM   10  C   UNL     1     -45.707 -51.461  13.231  1.00  0.00     0.006 C 
BRANCH  10  11
HETATM   11  C   UNL     1     -46.840 -51.572  14.252  1.00  0.00    -0.004 C 
HETATM   12  C   UNL     1     -46.402 -51.275  15.678  1.00  0.00     0.005 C 
ENDBRANCH  10  11
ENDBRANCH   8  10
ENDBRANCH   1   7
BRANCH   4  13
HETATM   13  C   UNL     1     -39.902 -50.826  13.049  1.00  0.00     0.077 A 
HETATM   14  C   UNL     1     -39.943 -49.596  12.393  1.00  0.00     0.050 A 
HETATM   15  C   UNL     1     -38.745 -49.032  11.985  1.00  0.00     0.090 A 
HETATM   16  N   UNL     1     -37.533 -49.596  12.190  1.00  0.00    -0.372 N 
HETATM   17  C   UNL     1     -37.527 -50.792  12.828  1.00  0.00     0.132 A 
ATOM     18  HN  UNL     1     -36.670 -49.147  11.881  1.00  0.00     0.164 HD
HETATM   19  C   UNL     1     -38.672 -51.442  13.248  1.00  0.00     0.158 A 
HETATM   20  F   UNL     1     -38.593 -52.618  13.887  1.00  0.00    -0.202 F 
ENDBRANCH   4  13
TORSDOF 4
ENDMDL
MODEL 9
REMARK VINA RESULT:      -5.0      4.170      5.158
REMARK  4 active torsions:
REMARK  status: ('A' for Active; 'I' for Inactive)
REMARK    1  A    between atoms: C_2  and  C_3 
REMARK    2  A    between atoms: C_3  and  C_4 
REMARK    3  A    between atoms: C_6  and  N_7 
REMARK       I    between atoms: N_7  and  C_8 
REMARK       I    between atoms: C_8  and  N_10 
REMARK    4  A    between atoms: N_10  and  C_11 
ROOT
HETATM    1  N   UNL     1     -43.314 -52.133  13.106  1.00  0.00    -0.338 N 
HETATM    2  C   UNL     1     -42.013 -52.091  12.641  1.00  0.00     0.321 C 
HETATM    3  O   UNL     1     -41.580 -52.844  11.780  1.00  0.00    -0.247 OA
HETATM    4  N   UNL     1     -41.309 -51.047  13.217  1.00  0.00    -0.306 N 
HETATM    5  H   UNL     1     -43.441 -51.872  14.077  1.00  0.00     0.164 HD
HETATM    6  H   UNL     1     -41.874 -50.234  13.405  1.00  0.00     0.171 HD
ENDROOT
BRANCH   1   7
HETATM    7  C   UNL     1     -44.307 -52.959  12.495  1.00  0.00     0.090 A 
HETATM    8  C   UNL     1     -45.778 -52.643  12.638  1.00  0.00     0.010 A 
HETATM    9  C   UNL     1     -45.194 -53.864  13.302  1.00  0.00     0.032 A 
BRANCH   8  10
HETATM   10  C   UNL     1     -46.275 -51.507  13.487  1.00  0.00     0.006 C 
BRANCH  10  11
HETATM   11  C   UNL     1     -46.889 -51.980  14.806  1.00  0.00    -0.004 C 
HETATM   12  C   UNL     1     -46.453 -51.157  16.007  1.00  0.00     0.005 C 
ENDBRANCH  10  11
ENDBRANCH   8  10
ENDBRANCH   1   7
BRANCH   4  13
HETATM   13  C   UNL     1     -39.963 -50.786  12.857  1.00  0.00     0.077 A 
HETATM   14  C   UNL     1     -38.889 -51.364  13.533  1.00  0.00     0.050 A 
HETATM   15  C   UNL     1     -37.607 -51.085  13.086  1.00  0.00     0.090 A 
HETATM   16  N   UNL     1     -37.330 -50.289  12.027  1.00  0.00    -0.372 N 
HETATM   17  C   UNL     1     -38.395 -49.741  11.394  1.00  0.00     0.132 A 
ATOM     18  HN  UNL     1     -36.373 -50.112  11.722  1.00  0.00     0.164 HD
HETATM   19  C   UNL     1     -39.706 -49.942  11.783  1.00  0.00     0.158 A 
HETATM   20  F   UNL     1     -40.714 -49.379  11.101  1.00  0.00    -0.202 F 
ENDBRANCH   4  13
TORSDOF 4
ENDMDL
