MODEL 1
REMARK VINA RESULT:      -5.4      0.000      0.000
REMARK  3 active torsions:
REMARK  status: ('A' for Active; 'I' for Inactive)
REMARK       I    between atoms: C_2  and  N_4 
REMARK    1  A    between atoms: N_4  and  C_5 
REMARK    2  A    between atoms: C_5  and  C_6 
REMARK    3  A    between atoms: N_8  and  C_12 
ROOT
HETATM    1  C   UNL     1     -40.310 -49.343  11.382  1.00  0.00     0.157 C 
HETATM    2  C   UNL     1     -40.866 -50.777  11.444  1.00  0.00     0.158 C 
HETATM    3  N   UNL     1     -41.529 -51.015  12.728  1.00  0.00    -0.360 N 
HETATM    4  C   UNL     1     -40.747 -50.694  13.917  1.00  0.00     0.151 C 
HETATM    5  C   UNL     1     -40.169 -49.272  13.785  1.00  0.00     0.188 C 
HETATM    6  O   UNL     1     -39.488 -49.048  12.541  1.00  0.00    -0.381 OA
ENDROOT
BRANCH   3   7
HETATM    7  C   UNL     1     -42.810 -51.512  12.765  1.00  0.00     0.142 A 
HETATM    8  N   UNL     1     -42.996 -52.776  12.311  1.00  0.00    -0.350 N 
HETATM    9  C   UNL     1     -44.248 -53.291  12.312  1.00  0.00     0.090 A 
ATOM     10  HN  UNL     1     -42.207 -53.329  11.975  1.00  0.00     0.166 HD
HETATM   11  C   UNL     1     -45.362 -52.614  12.770  1.00  0.00     0.020 A 
HETATM   12  C   UNL     1     -45.181 -51.325  13.250  1.00  0.00     0.047 A 
HETATM   13  C   UNL     1     -43.903 -50.772  13.238  1.00  0.00     0.160 A 
HETATM   14  F   UNL     1     -43.748 -49.533  13.733  1.00  0.00    -0.202 F 
ENDBRANCH   3   7
BRANCH   1  15
HETATM   15  C   UNL     1     -41.441 -48.316  11.189  1.00  0.00     0.156 C 
BRANCH  15  16
HETATM   16  N   UNL     1     -41.904 -48.263   9.810  1.00  0.00    -0.359 N 
HETATM   17  C   UNL     1     -43.100 -47.676   9.471  1.00  0.00     0.213 C 
HETATM   18  C   UNL     1     -43.403 -47.749   8.000  1.00  0.00     0.117 C 
HETATM   19  O   UNL     1     -43.844 -47.124  10.274  1.00  0.00    -0.274 OA
HETATM   20  H   UNL     1     -41.482 -48.910   9.157  1.00  0.00     0.162 HD
ENDBRANCH  15  16
ENDBRANCH   1  15
TORSDOF 3
ENDMDL
MODEL 2
REMARK VINA RESULT:      -5.4      3.493      4.308
REMARK  3 active torsions:
REMARK  status: ('A' for Active; 'I' for Inactive)
REMARK       I    between atoms: C_2  and  N_4 
REMARK    1  A    between atoms: N_4  and  C_5 
REMARK    2  A    between atoms: C_5  and  C_6 
REMARK    3  A    between atoms: N_8  and  C_12 
ROOT
HETATM    1  C   UNL     1     -41.067 -52.551  12.188  1.00  0.00     0.157 C 
HETATM    2  C   UNL     1     -42.593 -52.732  12.102  1.00  0.00     0.158 C 
HETATM    3  N   UNL     1     -43.129 -53.178  13.390  1.00  0.00    -0.360 N 
HETATM    4  C   UNL     1     -42.484 -54.347  13.978  1.00  0.00     0.151 C 
HETATM    5  C   UNL     1     -40.958 -54.141  13.992  1.00  0.00     0.188 C 
HETATM    6  O   UNL     1     -40.426 -53.738  12.721  1.00  0.00    -0.381 OA
ENDROOT
BRANCH   3   7
HETATM    7  C   UNL     1     -44.176 -52.507  13.975  1.00  0.00     0.142 A 
HETATM    8  N   UNL     1     -43.960 -51.975  15.203  1.00  0.00    -0.350 N 
HETATM    9  C   UNL     1     -44.975 -51.324  15.819  1.00  0.00     0.090 A 
ATOM     10  HN  UNL     1     -43.049 -52.062  15.654  1.00  0.00     0.166 HD
HETATM   11  C   UNL     1     -46.228 -51.146  15.265  1.00  0.00     0.020 A 
HETATM   12  C   UNL     1     -46.456 -51.674  14.003  1.00  0.00     0.047 A 
HETATM   13  C   UNL     1     -45.430 -52.364  13.363  1.00  0.00     0.160 A 
HETATM   14  F   UNL     1     -45.665 -52.842  12.130  1.00  0.00    -0.202 F 
ENDBRANCH   3   7
BRANCH   1  15
HETATM   15  C   UNL     1     -40.701 -51.281  12.979  1.00  0.00     0.156 C 
BRANCH  15  16
HETATM   16  N   UNL     1     -39.753 -50.442  12.261  1.00  0.00    -0.359 N 
HETATM   17  C   UNL     1     -38.399 -50.678  12.309  1.00  0.00     0.213 C 
HETATM   18  C   UNL     1     -37.593 -49.685  11.519  1.00  0.00     0.117 C 
HETATM   19  O   UNL     1     -37.888 -51.615  12.912  1.00  0.00    -0.274 OA
HETATM   20  H   UNL     1     -40.073 -49.528  11.971  1.00  0.00     0.162 HD
ENDBRANCH  15  16
ENDBRANCH   1  15
TORSDOF 3
ENDMDL
MODEL 3
REMARK VINA RESULT:      -5.4      1.357      1.631
REMARK  3 active torsions:
REMARK  status: ('A' for Active; 'I' for Inactive)
REMARK       I    between atoms: C_2  and  N_4 
REMARK    1  A    between atoms: N_4  and  C_5 
REMARK    2  A    between atoms: C_5  and  C_6 
REMARK    3  A    between atoms: N_8  and  C_12 
ROOT
HETATM    1  C   UNL     1     -40.633 -48.966  11.393  1.00  0.00     0.157 C 
HETATM    2  C   UNL     1     -40.922 -50.470  11.555  1.00  0.00     0.158 C 
HETATM    3  N   UNL     1     -41.642 -50.722  12.804  1.00  0.00    -0.360 N 
HETATM    4  C   UNL     1     -41.042 -50.160  14.010  1.00  0.00     0.151 C 
HETATM    5  C   UNL     1     -40.722 -48.671  13.781  1.00  0.00     0.188 C 
HETATM    6  O   UNL     1     -39.985 -48.426  12.574  1.00  0.00    -0.381 OA
ENDROOT
BRANCH   3   7
HETATM    7  C   UNL     1     -42.810 -51.447  12.797  1.00  0.00     0.142 A 
HETATM    8  N   UNL     1     -43.966 -50.756  12.953  1.00  0.00    -0.350 N 
HETATM    9  C   UNL     1     -45.136 -51.439  12.972  1.00  0.00     0.090 A 
ATOM     10  HN  UNL     1     -43.956 -49.741  13.054  1.00  0.00     0.166 HD
HETATM   11  C   UNL     1     -45.233 -52.809  12.821  1.00  0.00     0.020 A 
HETATM   12  C   UNL     1     -44.057 -53.524  12.646  1.00  0.00     0.047 A 
HETATM   13  C   UNL     1     -42.844 -52.840  12.644  1.00  0.00     0.160 A 
HETATM   14  F   UNL     1     -41.721 -53.549  12.446  1.00  0.00    -0.202 F 
ENDBRANCH   3   7
BRANCH   1  15
HETATM   15  C   UNL     1     -41.910 -48.191  11.018  1.00  0.00     0.156 C 
BRANCH  15  16
HETATM   16  N   UNL     1     -42.249 -48.342   9.611  1.00  0.00    -0.359 N 
HETATM   17  C   UNL     1     -43.242 -47.594   9.022  1.00  0.00     0.213 C 
HETATM   18  C   UNL     1     -43.450 -47.920   7.569  1.00  0.00     0.117 C 
HETATM   19  O   UNL     1     -43.885 -46.730   9.606  1.00  0.00    -0.274 OA
HETATM   20  H   UNL     1     -41.950 -49.193   9.153  1.00  0.00     0.162 HD
ENDBRANCH  15  16
ENDBRANCH   1  15
TORSDOF 3
ENDMDL
MODEL 4
REMARK VINA RESULT:      -5.4      2.468      3.424
REMARK  3 active torsions:
REMARK  status: ('A' for Active; 'I' for Inactive)
REMARK       I    between atoms: C_2  and  N_4 
REMARK    1  A    between atoms: N_4  and  C_5 
REMARK    2  A    between atoms: C_5  and  C_6 
REMARK    3  A    between atoms: N_8  and  C_12 
ROOT
HETATM    1  C   UNL     1     -41.426 -52.328  11.983  1.00  0.00     0.157 C 
HETATM    2  C   UNL     1     -42.821 -52.978  12.020  1.00  0.00     0.158 C 
HETATM    3  N   UNL     1     -43.175 -53.356  13.390  1.00  0.00    -0.360 N 
HETATM    4  C   UNL     1     -42.190 -54.163  14.102  1.00  0.00     0.151 C 
HETATM    5  C   UNL     1     -40.804 -53.501  13.992  1.00  0.00     0.188 C 
HETATM    6  O   UNL     1     -40.440 -53.163  12.645  1.00  0.00    -0.381 OA
ENDROOT
BRANCH   3   7
HETATM    7  C   UNL     1     -44.371 -52.952  13.932  1.00  0.00     0.142 A 
HETATM    8  N   UNL     1     -44.421 -51.702  14.457  1.00  0.00    -0.350 N 
HETATM    9  C   UNL     1     -45.577 -51.277  15.019  1.00  0.00     0.090 A 
ATOM     10  HN  UNL     1     -43.602 -51.093  14.428  1.00  0.00     0.166 HD
HETATM   11  C   UNL     1     -46.732 -52.034  15.078  1.00  0.00     0.020 A 
HETATM   12  C   UNL     1     -46.696 -53.308  14.532  1.00  0.00     0.047 A 
HETATM   13  C   UNL     1     -45.510 -53.769  13.967  1.00  0.00     0.160 A 
HETATM   14  F   UNL     1     -45.507 -54.996  13.420  1.00  0.00    -0.202 F 
ENDBRANCH   3   7
BRANCH   1  15
HETATM   15  C   UNL     1     -41.463 -50.899  12.554  1.00  0.00     0.156 C 
BRANCH  15  16
HETATM   16  N   UNL     1     -42.068 -49.954  11.627  1.00  0.00    -0.359 N 
HETATM   17  C   UNL     1     -41.377 -48.865  11.151  1.00  0.00     0.213 C 
HETATM   18  C   UNL     1     -42.189 -48.002  10.225  1.00  0.00     0.117 C 
HETATM   19  O   UNL     1     -40.208 -48.622  11.428  1.00  0.00    -0.274 OA
HETATM   20  H   UNL     1     -43.078 -49.947  11.569  1.00  0.00     0.162 HD
ENDBRANCH  15  16
ENDBRANCH   1  15
TORSDOF 3
ENDMDL
MODEL 5
REMARK VINA RESULT:      -5.4      2.400      3.203
REMARK  3 active torsions:
REMARK  status: ('A' for Active; 'I' for Inactive)
REMARK       I    between atoms: C_2  and  N_4 
REMARK    1  A    between atoms: N_4  and  C_5 
REMARK    2  A    between atoms: C_5  and  C_6 
REMARK    3  A    between atoms: N_8  and  C_12 
ROOT
HETATM    1  C   UNL     1     -40.384 -51.951  12.469  1.00  0.00     0.157 C 
HETATM    2  C   UNL     1     -41.758 -52.316  11.880  1.00  0.00     0.158 C 
HETATM    3  N   UNL     1     -42.598 -52.956  12.895  1.00  0.00    -0.360 N 
HETATM    4  C   UNL     1     -41.999 -54.087  13.596  1.00  0.00     0.151 C 
HETATM    5  C   UNL     1     -40.606 -53.689  14.120  1.00  0.00     0.188 C 
HETATM    6  O   UNL     1     -39.769 -53.095  13.117  1.00  0.00    -0.381 OA
ENDROOT
BRANCH   3   7
HETATM    7  C   UNL     1     -43.866 -52.487  13.141  1.00  0.00     0.142 A 
HETATM    8  N   UNL     1     -44.831 -52.816  12.246  1.00  0.00    -0.350 N 
HETATM    9  C   UNL     1     -46.088 -52.354  12.444  1.00  0.00     0.090 A 
ATOM     10  HN  UNL     1     -44.613 -53.400  11.438  1.00  0.00     0.166 HD
HETATM   11  C   UNL     1     -46.465 -51.576  13.522  1.00  0.00     0.020 A 
HETATM   12  C   UNL     1     -45.490 -51.246  14.451  1.00  0.00     0.047 A 
HETATM   13  C   UNL     1     -44.186 -51.695  14.253  1.00  0.00     0.160 A 
HETATM   14  F   UNL     1     -43.265 -51.387  15.180  1.00  0.00    -0.202 F 
ENDBRANCH   3   7
BRANCH   1  15
HETATM   15  C   UNL     1     -40.487 -50.732  13.405  1.00  0.00     0.156 C 
BRANCH  15  16
HETATM   16  N   UNL     1     -40.817 -49.513  12.682  1.00  0.00    -0.359 N 
HETATM   17  C   UNL     1     -39.842 -48.707  12.142  1.00  0.00     0.213 C 
HETATM   18  C   UNL     1     -40.391 -47.486  11.458  1.00  0.00     0.117 C 
HETATM   19  O   UNL     1     -38.644 -48.959  12.185  1.00  0.00    -0.274 OA
HETATM   20  H   UNL     1     -41.737 -49.121  12.834  1.00  0.00     0.162 HD
ENDBRANCH  15  16
ENDBRANCH   1  15
TORSDOF 3
ENDMDL
MODEL 6
REMARK VINA RESULT:      -5.3      3.736      5.608
REMARK  3 active torsions:
REMARK  status: ('A' for Active; 'I' for Inactive)
REMARK       I    between atoms: C_2  and  N_4 
REMARK    1  A    between atoms: N_4  and  C_5 
REMARK    2  A    between atoms: C_5  and  C_6 
REMARK    3  A    between atoms: N_8  and  C_12 
ROOT
HETATM    1  C   UNL     1     -42.476 -52.888  14.029  1.00  0.00     0.157 C 
HETATM    2  C   UNL     1     -41.311 -52.074  14.621  1.00  0.00     0.158 C 
HETATM    3  N   UNL     1     -40.070 -52.352  13.895  1.00  0.00    -0.360 N 
HETATM    4  C   UNL     1     -39.719 -53.761  13.751  1.00  0.00     0.151 C 
HETATM    5  C   UNL     1     -40.931 -54.541  13.208  1.00  0.00     0.188 C 
HETATM    6  O   UNL     1     -42.141 -54.297  13.940  1.00  0.00    -0.381 OA
ENDROOT
BRANCH   3   7
HETATM    7  C   UNL     1     -39.313 -51.319  13.395  1.00  0.00     0.142 A 
HETATM    8  N   UNL     1     -39.480 -51.010  12.085  1.00  0.00    -0.350 N 
HETATM    9  C   UNL     1     -38.736 -50.011  11.552  1.00  0.00     0.090 A 
ATOM     10  HN  UNL     1     -40.154 -51.519  11.512  1.00  0.00     0.166 HD
HETATM   11  C   UNL     1     -37.820 -49.263  12.267  1.00  0.00     0.020 A 
HETATM   12  C   UNL     1     -37.652 -49.563  13.611  1.00  0.00     0.047 A 
HETATM   13  C   UNL     1     -38.394 -50.600  14.171  1.00  0.00     0.160 A 
HETATM   14  F   UNL     1     -38.235 -50.853  15.480  1.00  0.00    -0.202 F 
ENDBRANCH   3   7
BRANCH   1  15
HETATM   15  C   UNL     1     -42.930 -52.307  12.676  1.00  0.00     0.156 C 
BRANCH  15  16
HETATM   16  N   UNL     1     -44.265 -51.731  12.748  1.00  0.00    -0.359 N 
HETATM   17  C   UNL     1     -45.394 -52.505  12.616  1.00  0.00     0.213 C 
HETATM   18  C   UNL     1     -46.670 -51.714  12.697  1.00  0.00     0.117 C 
HETATM   19  O   UNL     1     -45.377 -53.721  12.470  1.00  0.00    -0.274 OA
HETATM   20  H   UNL     1     -44.345 -50.733  12.605  1.00  0.00     0.162 HD
ENDBRANCH  15  16
ENDBRANCH   1  15
TORSDOF 3
ENDMDL
MODEL 7
REMARK VINA RESULT:      -5.2      4.303      6.612
REMARK  3 active torsions:
REMARK  status: ('A' for Active; 'I' for Inactive)
REMARK       I    between atoms: C_2  and  N_4 
REMARK    1  A    between atoms: N_4  and  C_5 
REMARK    2  A    between atoms: C_5  and  C_6 
REMARK    3  A    between atoms: N_8  and  C_12 
ROOT
HETATM    1  C   UNL     1     -44.908 -53.963  16.616  1.00  0.00     0.157 C 
HETATM    2  C   UNL     1     -43.659 -54.487  15.884  1.00  0.00     0.158 C 
HETATM    3  N   UNL     1     -43.842 -54.402  14.433  1.00  0.00    -0.360 N 
HETATM    4  C   UNL     1     -45.062 -55.007  13.910  1.00  0.00     0.151 C 
HETATM    5  C   UNL     1     -46.276 -54.494  14.708  1.00  0.00     0.188 C 
HETATM    6  O   UNL     1     -46.112 -54.609  16.129  1.00  0.00    -0.381 OA
ENDROOT
BRANCH   3   7
HETATM    7  C   UNL     1     -42.898 -53.781  13.651  1.00  0.00     0.142 A 
HETATM    8  N   UNL     1     -41.689 -54.387  13.544  1.00  0.00    -0.350 N 
HETATM    9  C   UNL     1     -40.727 -53.794  12.799  1.00  0.00     0.090 A 
ATOM     10  HN  UNL     1     -41.508 -55.273  14.016  1.00  0.00     0.166 HD
HETATM   11  C   UNL     1     -40.902 -52.607  12.114  1.00  0.00     0.020 A 
HETATM   12  C   UNL     1     -42.139 -51.986  12.204  1.00  0.00     0.047 A 
HETATM   13  C   UNL     1     -43.134 -52.571  12.983  1.00  0.00     0.160 A 
HETATM   14  F   UNL     1     -44.332 -51.967  13.034  1.00  0.00    -0.202 F 
ENDBRANCH   3   7
BRANCH   1  15
HETATM   15  C   UNL     1     -44.994 -52.427  16.540  1.00  0.00     0.156 C 
BRANCH  15  16
HETATM   16  N   UNL     1     -46.176 -51.911  17.213  1.00  0.00    -0.359 N 
HETATM   17  C   UNL     1     -47.198 -51.307  16.518  1.00  0.00     0.213 C 
HETATM   18  C   UNL     1     -48.314 -50.822  17.402  1.00  0.00     0.117 C 
HETATM   19  O   UNL     1     -47.220 -51.189  15.299  1.00  0.00    -0.274 OA
HETATM   20  H   UNL     1     -46.104 -51.742  18.208  1.00  0.00     0.162 HD
ENDBRANCH  15  16
ENDBRANCH   1  15
TORSDOF 3
ENDMDL
MODEL 8
REMARK VINA RESULT:      -5.2      2.664      5.412
REMARK  3 active torsions:
REMARK  status: ('A' for Active; 'I' for Inactive)
REMARK       I    between atoms: C_2  and  N_4 
REMARK    1  A    between atoms: N_4  and  C_5 
REMARK    2  A    between atoms: C_5  and  C_6 
REMARK    3  A    between atoms: N_8  and  C_12 
ROOT
HETATM    1  C   UNL     1     -42.502 -51.554  13.902  1.00  0.00     0.157 C 
HETATM    2  C   UNL     1     -41.889 -50.153  13.727  1.00  0.00     0.158 C 
HETATM    3  N   UNL     1     -41.505 -49.933  12.331  1.00  0.00    -0.360 N 
HETATM    4  C   UNL     1     -40.663 -50.964  11.732  1.00  0.00     0.151 C 
HETATM    5  C   UNL     1     -41.289 -52.349  11.981  1.00  0.00     0.188 C 
HETATM    6  O   UNL     1     -41.634 -52.580  13.355  1.00  0.00    -0.381 OA
ENDROOT
BRANCH   3   7
HETATM    7  C   UNL     1     -41.934 -48.811  11.663  1.00  0.00     0.142 A 
HETATM    8  N   UNL     1     -43.265 -48.702  11.432  1.00  0.00    -0.350 N 
HETATM    9  C   UNL     1     -43.723 -47.620  10.757  1.00  0.00     0.090 A 
ATOM     10  HN  UNL     1     -43.911 -49.421  11.760  1.00  0.00     0.166 HD
HETATM   11  C   UNL     1     -42.916 -46.596  10.300  1.00  0.00     0.020 A 
HETATM   12  C   UNL     1     -41.553 -46.691  10.543  1.00  0.00     0.047 A 
HETATM   13  C   UNL     1     -41.063 -47.807  11.217  1.00  0.00     0.160 A 
HETATM   14  F   UNL     1     -39.744 -47.863  11.466  1.00  0.00    -0.202 F 
ENDBRANCH   3   7
BRANCH   1  15
HETATM   15  C   UNL     1     -43.925 -51.616  13.317  1.00  0.00     0.156 C 
BRANCH  15  16
HETATM   16  N   UNL     1     -44.726 -52.664  13.933  1.00  0.00    -0.359 N 
HETATM   17  C   UNL     1     -44.915 -53.882  13.324  1.00  0.00     0.213 C 
HETATM   18  C   UNL     1     -45.793 -54.813  14.115  1.00  0.00     0.117 C 
HETATM   19  O   UNL     1     -44.407 -54.199  12.255  1.00  0.00    -0.274 OA
HETATM   20  H   UNL     1     -45.369 -52.384  14.663  1.00  0.00     0.162 HD
ENDBRANCH  15  16
ENDBRANCH   1  15
TORSDOF 3
ENDMDL
MODEL 9
REMARK VINA RESULT:      -5.0      2.844      3.284
REMARK  3 active torsions:
REMARK  status: ('A' for Active; 'I' for Inactive)
REMARK       I    between atoms: C_2  and  N_4 
REMARK    1  A    between atoms: N_4  and  C_5 
REMARK    2  A    between atoms: C_5  and  C_6 
REMARK    3  A    between atoms: N_8  and  C_12 
ROOT
HETATM    1  C   UNL     1     -38.685 -49.016  12.062  1.00  0.00     0.157 C 
HETATM    2  C   UNL     1     -38.710 -50.552  12.155  1.00  0.00     0.158 C 
HETATM    3  N   UNL     1     -39.459 -50.982  13.338  1.00  0.00    -0.360 N 
HETATM    4  C   UNL     1     -39.054 -50.377  14.602  1.00  0.00     0.151 C 
HETATM    5  C   UNL     1     -38.992 -48.846  14.444  1.00  0.00     0.188 C 
HETATM    6  O   UNL     1     -38.228 -48.422  13.305  1.00  0.00    -0.381 OA
ENDROOT
BRANCH   3   7
HETATM    7  C   UNL     1     -40.474 -51.901  13.218  1.00  0.00     0.142 A 
HETATM    8  N   UNL     1     -41.695 -51.429  12.863  1.00  0.00    -0.350 N 
HETATM    9  C   UNL     1     -42.725 -52.302  12.756  1.00  0.00     0.090 A 
ATOM     10  HN  UNL     1     -41.835 -50.435  12.679  1.00  0.00     0.166 HD
HETATM   11  C   UNL     1     -42.610 -53.663  12.969  1.00  0.00     0.020 A 
HETATM   12  C   UNL     1     -41.362 -54.158  13.319  1.00  0.00     0.047 A 
HETATM   13  C   UNL     1     -40.297 -53.272  13.453  1.00  0.00     0.160 A 
HETATM   14  F   UNL     1     -39.092 -53.777  13.766  1.00  0.00    -0.202 F 
ENDBRANCH   3   7
BRANCH   1  15
HETATM   15  C   UNL     1     -40.051 -48.463  11.615  1.00  0.00     0.156 C 
BRANCH  15  16
HETATM   16  N   UNL     1     -39.916 -47.290  10.764  1.00  0.00    -0.359 N 
HETATM   17  C   UNL     1     -39.987 -46.014  11.274  1.00  0.00     0.213 C 
HETATM   18  C   UNL     1     -39.846 -44.946  10.226  1.00  0.00     0.117 C 
HETATM   19  O   UNL     1     -40.128 -45.761  12.464  1.00  0.00    -0.274 OA
HETATM   20  H   UNL     1     -40.059 -47.421   9.771  1.00  0.00     0.162 HD
ENDBRANCH  15  16
ENDBRANCH   1  15
TORSDOF 3
ENDMDL
