MODEL 1
REMARK VINA RESULT:      -6.2      0.000      0.000
REMARK  4 active torsions:
REMARK  status: ('A' for Active; 'I' for Inactive)
REMARK    1  A    between atoms: C_2  and  C_3 
REMARK    2  A    between atoms: C_2  and  N_10 
REMARK    3  A    between atoms: C_3  and  N_4 
REMARK       I    between atoms: N_10  and  C_11 
REMARK       I    between atoms: C_11  and  N_13 
REMARK    4  A    between atoms: N_13  and  C_14 
ROOT
HETATM    1  N   UNL     1     -41.152 -50.485  11.321  1.00  0.00    -0.337 N 
HETATM    2  C   UNL     1     -41.867 -51.155  12.266  1.00  0.00     0.322 C 
HETATM    3  O   UNL     1     -42.269 -50.679  13.311  1.00  0.00    -0.247 OA
HETATM    4  N   UNL     1     -42.188 -52.479  11.848  1.00  0.00    -0.293 N 
HETATM    5  H   UNL     1     -40.618 -50.990  10.630  1.00  0.00     0.164 HD
HETATM    6  H   UNL     1     -41.940 -52.785  10.914  1.00  0.00     0.172 HD
ENDROOT
BRANCH   1   7
HETATM    7  C   UNL     1     -40.871 -49.054  11.504  1.00  0.00     0.110 C 
HETATM    8  C   UNL     1     -39.365 -48.797  11.531  1.00  0.00     0.034 C 
BRANCH   7   9
HETATM    9  C   UNL     1     -41.594 -48.121  10.473  1.00  0.00     0.297 C 
BRANCH   9  10
HETATM   10  N   UNL     1     -42.878 -47.514  10.869  1.00  0.00     0.094 N 
HETATM   11  C   UNL     1     -43.773 -47.377   9.685  1.00  0.00     0.298 C 
HETATM   12  C   UNL     1     -43.417 -46.196   8.762  1.00  0.00     0.198 C 
HETATM   13  O   UNL     1     -43.424 -44.960   9.488  1.00  0.00    -0.388 OA
HETATM   14  C   UNL     1     -42.497 -45.013  10.574  1.00  0.00     0.198 C 
HETATM   15  C   UNL     1     -42.800 -46.191  11.517  1.00  0.00     0.298 C 
ENDBRANCH   9  10
ENDBRANCH   7   9
ENDBRANCH   1   7
BRANCH   4  16
HETATM   16  C   UNL     1     -42.917 -53.343  12.671  1.00  0.00     0.127 A 
HETATM   17  C   UNL     1     -44.255 -53.655  12.574  1.00  0.00     0.076 A 
HETATM   18  C   UNL     1     -44.525 -54.548  13.628  1.00  0.00     0.025 A 
HETATM   19  C   UNL     1     -45.828 -55.175  13.957  1.00  0.00     0.070 C 
HETATM   20  N   UNL     1     -43.430 -54.796  14.352  1.00  0.00    -0.302 N 
HETATM   21  N   UNL     1     -42.464 -54.074  13.747  1.00  0.00    -0.281 N 
ATOM     22  HN  UNL     1     -43.343 -55.395  15.173  1.00  0.00     0.186 HD
HETATM   23  C   UNL     1     -41.114 -54.200  14.239  1.00  0.00     0.179 C 
ENDBRANCH   4  16
TORSDOF 4
ENDMDL
MODEL 2
REMARK VINA RESULT:      -5.9      2.343      6.987
REMARK  4 active torsions:
REMARK  status: ('A' for Active; 'I' for Inactive)
REMARK    1  A    between atoms: C_2  and  C_3 
REMARK    2  A    between atoms: C_2  and  N_10 
REMARK    3  A    between atoms: C_3  and  N_4 
REMARK       I    between atoms: N_10  and  C_11 
REMARK       I    between atoms: C_11  and  N_13 
REMARK    4  A    between atoms: N_13  and  C_14 
ROOT
HETATM    1  N   UNL     1     -41.449 -53.087  11.881  1.00  0.00    -0.337 N 
HETATM    2  C   UNL     1     -41.283 -51.769  12.180  1.00  0.00     0.322 C 
HETATM    3  O   UNL     1     -41.407 -51.279  13.287  1.00  0.00    -0.247 OA
HETATM    4  N   UNL     1     -40.842 -51.021  11.050  1.00  0.00    -0.293 N 
HETATM    5  H   UNL     1     -41.610 -53.379  10.930  1.00  0.00     0.164 HD
HETATM    6  H   UNL     1     -40.630 -51.500  10.182  1.00  0.00     0.172 HD
ENDROOT
BRANCH   1   7
HETATM    7  C   UNL     1     -41.741 -54.043  12.958  1.00  0.00     0.110 C 
HETATM    8  C   UNL     1     -40.583 -54.109  13.953  1.00  0.00     0.034 C 
BRANCH   7   9
HETATM    9  C   UNL     1     -43.107 -53.793  13.685  1.00  0.00     0.297 C 
BRANCH   9  10
HETATM   10  N   UNL     1     -44.348 -54.139  12.967  1.00  0.00     0.094 N 
HETATM   11  C   UNL     1     -45.077 -52.902  12.569  1.00  0.00     0.298 C 
HETATM   12  C   UNL     1     -45.847 -52.228  13.721  1.00  0.00     0.198 C 
HETATM   13  O   UNL     1     -46.780 -53.140  14.315  1.00  0.00    -0.388 OA
HETATM   14  C   UNL     1     -46.102 -54.297  14.807  1.00  0.00     0.198 C 
HETATM   15  C   UNL     1     -45.302 -54.997  13.694  1.00  0.00     0.298 C 
ENDBRANCH   9  10
ENDBRANCH   7   9
ENDBRANCH   1   7
BRANCH   4  16
HETATM   16  C   UNL     1     -40.613 -49.644  11.136  1.00  0.00     0.127 A 
HETATM   17  C   UNL     1     -41.514 -48.632  10.885  1.00  0.00     0.076 A 
HETATM   18  C   UNL     1     -40.815 -47.427  11.090  1.00  0.00     0.025 A 
HETATM   19  C   UNL     1     -41.345 -46.051  10.942  1.00  0.00     0.070 C 
HETATM   20  N   UNL     1     -39.550 -47.652  11.454  1.00  0.00    -0.302 N 
HETATM   21  N   UNL     1     -39.451 -48.996  11.494  1.00  0.00    -0.281 N 
ATOM     22  HN  UNL     1     -38.824 -46.965  11.655  1.00  0.00     0.186 HD
HETATM   23  C   UNL     1     -38.211 -49.573  11.954  1.00  0.00     0.179 C 
ENDBRANCH   4  16
TORSDOF 4
ENDMDL
MODEL 3
REMARK VINA RESULT:      -5.8      1.313      1.465
REMARK  4 active torsions:
REMARK  status: ('A' for Active; 'I' for Inactive)
REMARK    1  A    between atoms: C_2  and  C_3 
REMARK    2  A    between atoms: C_2  and  N_10 
REMARK    3  A    between atoms: C_3  and  N_4 
REMARK       I    between atoms: N_10  and  C_11 
REMARK       I    between atoms: C_11  and  N_13 
REMARK    4  A    between atoms: N_13  and  C_14 
ROOT
HETATM    1  N   UNL     1     -40.163 -51.215  11.749  1.00  0.00    -0.337 N 
HETATM    2  C   UNL     1     -41.081 -51.704  12.628  1.00  0.00     0.322 C 
HETATM    3  O   UNL     1     -41.535 -51.097  13.579  1.00  0.00    -0.247 OA
HETATM    4  N   UNL     1     -41.537 -53.000  12.250  1.00  0.00    -0.293 N 
HETATM    5  H   UNL     1     -39.627 -51.841  11.168  1.00  0.00     0.164 HD
HETATM    6  H   UNL     1     -41.222 -53.409  11.378  1.00  0.00     0.172 HD
ENDROOT
BRANCH   1   7
HETATM    7  C   UNL     1     -39.701 -49.827  11.883  1.00  0.00     0.110 C 
HETATM    8  C   UNL     1     -38.237 -49.700  11.463  1.00  0.00     0.034 C 
BRANCH   7   9
HETATM    9  C   UNL     1     -40.601 -48.777  11.146  1.00  0.00     0.297 C 
BRANCH   9  10
HETATM   10  N   UNL     1     -41.030 -47.582  11.897  1.00  0.00     0.094 N 
HETATM   11  C   UNL     1     -42.356 -47.111  11.407  1.00  0.00     0.298 C 
HETATM   12  C   UNL     1     -42.296 -46.340  10.075  1.00  0.00     0.198 C 
HETATM   13  O   UNL     1     -41.417 -45.212  10.176  1.00  0.00    -0.388 OA
HETATM   14  C   UNL     1     -40.103 -45.635  10.543  1.00  0.00     0.198 C 
HETATM   15  C   UNL     1     -40.112 -46.428  11.861  1.00  0.00     0.298 C 
ENDBRANCH   9  10
ENDBRANCH   7   9
ENDBRANCH   1   7
BRANCH   4  16
HETATM   16  C   UNL     1     -42.481 -53.689  13.019  1.00  0.00     0.127 A 
HETATM   17  C   UNL     1     -43.816 -53.874  12.729  1.00  0.00     0.076 A 
HETATM   18  C   UNL     1     -44.349 -54.612  13.803  1.00  0.00     0.025 A 
HETATM   19  C   UNL     1     -45.751 -55.064  13.967  1.00  0.00     0.070 C 
HETATM   20  N   UNL     1     -43.416 -54.885  14.719  1.00  0.00    -0.302 N 
HETATM   21  N   UNL     1     -42.291 -54.336  14.219  1.00  0.00    -0.281 N 
ATOM     22  HN  UNL     1     -43.530 -55.393  15.596  1.00  0.00     0.186 HD
HETATM   23  C   UNL     1     -41.057 -54.540  14.939  1.00  0.00     0.179 C 
ENDBRANCH   4  16
TORSDOF 4
ENDMDL
MODEL 4
REMARK VINA RESULT:      -5.6      2.655      7.720
REMARK  4 active torsions:
REMARK  status: ('A' for Active; 'I' for Inactive)
REMARK    1  A    between atoms: C_2  and  C_3 
REMARK    2  A    between atoms: C_2  and  N_10 
REMARK    3  A    between atoms: C_3  and  N_4 
REMARK       I    between atoms: N_10  and  C_11 
REMARK       I    between atoms: C_11  and  N_13 
REMARK    4  A    between atoms: N_13  and  C_14 
ROOT
HETATM    1  N   UNL     1     -44.259 -51.306  13.078  1.00  0.00    -0.337 N 
HETATM    2  C   UNL     1     -43.115 -50.567  13.053  1.00  0.00     0.322 C 
HETATM    3  O   UNL     1     -42.785 -49.755  13.896  1.00  0.00    -0.247 OA
HETATM    4  N   UNL     1     -42.277 -50.926  11.958  1.00  0.00    -0.293 N 
HETATM    5  H   UNL     1     -44.606 -51.739  12.237  1.00  0.00     0.164 HD
HETATM    6  H   UNL     1     -42.539 -51.699  11.357  1.00  0.00     0.172 HD
ENDROOT
BRANCH   1   7
HETATM    7  C   UNL     1     -45.169 -51.192  14.226  1.00  0.00     0.110 C 
HETATM    8  C   UNL     1     -46.615 -51.438  13.798  1.00  0.00     0.034 C 
BRANCH   7   9
HETATM    9  C   UNL     1     -44.774 -52.089  15.450  1.00  0.00     0.297 C 
BRANCH   9  10
HETATM   10  N   UNL     1     -45.223 -53.493  15.454  1.00  0.00     0.094 N 
HETATM   11  C   UNL     1     -45.513 -53.939  16.846  1.00  0.00     0.298 C 
HETATM   12  C   UNL     1     -44.256 -54.264  17.677  1.00  0.00     0.198 C 
HETATM   13  O   UNL     1     -43.460 -55.265  17.030  1.00  0.00    -0.388 OA
HETATM   14  C   UNL     1     -43.072 -54.829  15.727  1.00  0.00     0.198 C 
HETATM   15  C   UNL     1     -44.294 -54.474  14.862  1.00  0.00     0.298 C 
ENDBRANCH   9  10
ENDBRANCH   7   9
ENDBRANCH   1   7
BRANCH   4  16
HETATM   16  C   UNL     1     -41.052 -50.286  11.742  1.00  0.00     0.127 A 
HETATM   17  C   UNL     1     -39.799 -50.751  12.076  1.00  0.00     0.076 A 
HETATM   18  C   UNL     1     -38.892 -49.753  11.674  1.00  0.00     0.025 A 
HETATM   19  C   UNL     1     -37.417 -49.776  11.818  1.00  0.00     0.070 C 
HETATM   20  N   UNL     1     -39.522 -48.717  11.114  1.00  0.00    -0.302 N 
HETATM   21  N   UNL     1     -40.824 -49.065  11.147  1.00  0.00    -0.281 N 
ATOM     22  HN  UNL     1     -39.112 -47.859  10.746  1.00  0.00     0.186 HD
HETATM   23  C   UNL     1     -41.779 -48.183  10.521  1.00  0.00     0.179 C 
ENDBRANCH   4  16
TORSDOF 4
ENDMDL
MODEL 5
REMARK VINA RESULT:      -5.5      2.189      2.696
REMARK  4 active torsions:
REMARK  status: ('A' for Active; 'I' for Inactive)
REMARK    1  A    between atoms: C_2  and  C_3 
REMARK    2  A    between atoms: C_2  and  N_10 
REMARK    3  A    between atoms: C_3  and  N_4 
REMARK       I    between atoms: N_10  and  C_11 
REMARK       I    between atoms: C_11  and  N_13 
REMARK    4  A    between atoms: N_13  and  C_14 
ROOT
HETATM    1  N   UNL     1     -40.055 -51.041  11.724  1.00  0.00    -0.337 N 
HETATM    2  C   UNL     1     -41.040 -51.494  12.550  1.00  0.00     0.322 C 
HETATM    3  O   UNL     1     -41.091 -51.304  13.750  1.00  0.00    -0.247 OA
HETATM    4  N   UNL     1     -42.080 -52.145  11.826  1.00  0.00    -0.293 N 
HETATM    5  H   UNL     1     -39.918 -51.457  10.816  1.00  0.00     0.164 HD
HETATM    6  H   UNL     1     -42.051 -52.164  10.813  1.00  0.00     0.172 HD
ENDROOT
BRANCH   1   7
HETATM    7  C   UNL     1     -38.981 -50.201  12.271  1.00  0.00     0.110 C 
HETATM    8  C   UNL     1     -37.610 -50.777  11.919  1.00  0.00     0.034 C 
BRANCH   7   9
HETATM    9  C   UNL     1     -39.085 -48.688  11.876  1.00  0.00     0.297 C 
BRANCH   9  10
HETATM   10  N   UNL     1     -40.324 -47.965  12.219  1.00  0.00     0.094 N 
HETATM   11  C   UNL     1     -40.825 -47.207  11.038  1.00  0.00     0.298 C 
HETATM   12  C   UNL     1     -40.057 -45.901  10.758  1.00  0.00     0.198 C 
HETATM   13  O   UNL     1     -40.080 -45.038  11.902  1.00  0.00    -0.388 OA
HETATM   14  C   UNL     1     -39.509 -45.695  13.035  1.00  0.00     0.198 C 
HETATM   15  C   UNL     1     -40.232 -47.017  13.345  1.00  0.00     0.298 C 
ENDBRANCH   9  10
ENDBRANCH   7   9
ENDBRANCH   1   7
BRANCH   4  16
HETATM   16  C   UNL     1     -43.189 -52.689  12.481  1.00  0.00     0.127 A 
HETATM   17  C   UNL     1     -43.464 -54.024  12.685  1.00  0.00     0.076 A 
HETATM   18  C   UNL     1     -44.691 -54.069  13.372  1.00  0.00     0.025 A 
HETATM   19  C   UNL     1     -45.420 -55.279  13.821  1.00  0.00     0.070 C 
HETATM   20  N   UNL     1     -45.170 -52.843  13.598  1.00  0.00    -0.302 N 
HETATM   21  N   UNL     1     -44.240 -52.022  13.069  1.00  0.00    -0.281 N 
ATOM     22  HN  UNL     1     -46.040 -52.586  14.065  1.00  0.00     0.186 HD
HETATM   23  C   UNL     1     -44.417 -50.600  13.234  1.00  0.00     0.179 C 
ENDBRANCH   4  16
TORSDOF 4
ENDMDL
MODEL 6
REMARK VINA RESULT:      -5.3      2.159      7.516
REMARK  4 active torsions:
REMARK  status: ('A' for Active; 'I' for Inactive)
REMARK    1  A    between atoms: C_2  and  C_3 
REMARK    2  A    between atoms: C_2  and  N_10 
REMARK    3  A    between atoms: C_3  and  N_4 
REMARK       I    between atoms: N_10  and  C_11 
REMARK       I    between atoms: C_11  and  N_13 
REMARK    4  A    between atoms: N_13  and  C_14 
ROOT
HETATM    1  N   UNL     1     -42.270 -52.132  11.937  1.00  0.00    -0.337 N 
HETATM    2  C   UNL     1     -42.019 -50.814  12.173  1.00  0.00     0.322 C 
HETATM    3  O   UNL     1     -42.298 -50.219  13.196  1.00  0.00    -0.247 OA
HETATM    4  N   UNL     1     -41.287 -50.215  11.107  1.00  0.00    -0.293 N 
HETATM    5  H   UNL     1     -42.275 -52.491  10.994  1.00  0.00     0.164 HD
HETATM    6  H   UNL     1     -40.966 -50.787  10.334  1.00  0.00     0.172 HD
ENDROOT
BRANCH   1   7
HETATM    7  C   UNL     1     -42.869 -52.956  12.995  1.00  0.00     0.110 C 
HETATM    8  C   UNL     1     -44.197 -53.553  12.532  1.00  0.00     0.034 C 
BRANCH   7   9
HETATM    9  C   UNL     1     -41.914 -54.059  13.567  1.00  0.00     0.297 C 
BRANCH   9  10
HETATM   10  N   UNL     1     -41.599 -54.026  15.008  1.00  0.00     0.094 N 
HETATM   11  C   UNL     1     -41.279 -52.635  15.435  1.00  0.00     0.298 C 
HETATM   12  C   UNL     1     -39.865 -52.166  15.043  1.00  0.00     0.198 C 
HETATM   13  O   UNL     1     -38.868 -53.050  15.573  1.00  0.00    -0.388 OA
HETATM   14  C   UNL     1     -39.079 -54.381  15.099  1.00  0.00     0.198 C 
HETATM   15  C   UNL     1     -40.489 -54.889  15.451  1.00  0.00     0.298 C 
ENDBRANCH   9  10
ENDBRANCH   7   9
ENDBRANCH   1   7
BRANCH   4  16
HETATM   16  C   UNL     1     -40.927 -48.864  11.143  1.00  0.00     0.127 A 
HETATM   17  C   UNL     1     -41.635 -47.799  10.631  1.00  0.00     0.076 A 
HETATM   18  C   UNL     1     -40.864 -46.653  10.898  1.00  0.00     0.025 A 
HETATM   19  C   UNL     1     -41.192 -45.252  10.542  1.00  0.00     0.070 C 
HETATM   20  N   UNL     1     -39.736 -46.962  11.543  1.00  0.00    -0.302 N 
HETATM   21  N   UNL     1     -39.800 -48.300  11.699  1.00  0.00    -0.281 N 
ATOM     22  HN  UNL     1     -38.995 -46.331  11.848  1.00  0.00     0.186 HD
HETATM   23  C   UNL     1     -38.757 -48.947  12.457  1.00  0.00     0.179 C 
ENDBRANCH   4  16
TORSDOF 4
ENDMDL
MODEL 7
REMARK VINA RESULT:      -5.2      4.717      8.102
REMARK  4 active torsions:
REMARK  status: ('A' for Active; 'I' for Inactive)
REMARK    1  A    between atoms: C_2  and  C_3 
REMARK    2  A    between atoms: C_2  and  N_10 
REMARK    3  A    between atoms: C_3  and  N_4 
REMARK       I    between atoms: N_10  and  C_11 
REMARK       I    between atoms: C_11  and  N_13 
REMARK    4  A    between atoms: N_13  and  C_14 
ROOT
HETATM    1  N   UNL     1     -38.877 -48.548  11.467  1.00  0.00    -0.337 N 
HETATM    2  C   UNL     1     -39.975 -47.767  11.664  1.00  0.00     0.322 C 
HETATM    3  O   UNL     1     -40.680 -47.784  12.656  1.00  0.00    -0.247 OA
HETATM    4  N   UNL     1     -40.160 -46.836  10.602  1.00  0.00    -0.293 N 
HETATM    5  H   UNL     1     -38.510 -48.691  10.539  1.00  0.00     0.164 HD
HETATM    6  H   UNL     1     -39.471 -46.776   9.861  1.00  0.00     0.172 HD
ENDROOT
BRANCH   1   7
HETATM    7  C   UNL     1     -38.432 -49.455  12.535  1.00  0.00     0.110 C 
HETATM    8  C   UNL     1     -37.608 -50.606  11.960  1.00  0.00     0.034 C 
BRANCH   7   9
HETATM    9  C   UNL     1     -37.678 -48.742  13.709  1.00  0.00     0.297 C 
BRANCH   9  10
HETATM   10  N   UNL     1     -38.308 -48.747  15.043  1.00  0.00     0.094 N 
HETATM   11  C   UNL     1     -37.279 -48.553  16.102  1.00  0.00     0.298 C 
HETATM   12  C   UNL     1     -36.450 -49.815  16.411  1.00  0.00     0.198 C 
HETATM   13  O   UNL     1     -37.301 -50.905  16.790  1.00  0.00    -0.388 OA
HETATM   14  C   UNL     1     -38.238 -51.192  15.751  1.00  0.00     0.198 C 
HETATM   15  C   UNL     1     -39.079 -49.954  15.393  1.00  0.00     0.298 C 
ENDBRANCH   9  10
ENDBRANCH   7   9
ENDBRANCH   1   7
BRANCH   4  16
HETATM   16  C   UNL     1     -41.233 -45.939  10.602  1.00  0.00     0.127 A 
HETATM   17  C   UNL     1     -41.228 -44.634  11.043  1.00  0.00     0.076 A 
HETATM   18  C   UNL     1     -42.537 -44.152  10.854  1.00  0.00     0.025 A 
HETATM   19  C   UNL     1     -43.047 -42.799  11.177  1.00  0.00     0.070 C 
HETATM   20  N   UNL     1     -43.329 -45.088  10.322  1.00  0.00    -0.302 N 
HETATM   21  N   UNL     1     -42.520 -46.153  10.160  1.00  0.00    -0.281 N 
ATOM     22  HN  UNL     1     -44.320 -45.012  10.092  1.00  0.00     0.186 HD
HETATM   23  C   UNL     1     -43.058 -47.322   9.508  1.00  0.00     0.179 C 
ENDBRANCH   4  16
TORSDOF 4
ENDMDL
MODEL 8
REMARK VINA RESULT:      -5.2      2.156      7.256
REMARK  4 active torsions:
REMARK  status: ('A' for Active; 'I' for Inactive)
REMARK    1  A    between atoms: C_2  and  C_3 
REMARK    2  A    between atoms: C_2  and  N_10 
REMARK    3  A    between atoms: C_3  and  N_4 
REMARK       I    between atoms: N_10  and  C_11 
REMARK       I    between atoms: C_11  and  N_13 
REMARK    4  A    between atoms: N_13  and  C_14 
ROOT
HETATM    1  N   UNL     1     -40.679 -50.380  13.328  1.00  0.00    -0.337 N 
HETATM    2  C   UNL     1     -40.974 -49.723  12.172  1.00  0.00     0.322 C 
HETATM    3  O   UNL     1     -40.758 -50.144  11.051  1.00  0.00    -0.247 OA
HETATM    4  N   UNL     1     -41.670 -48.505  12.418  1.00  0.00    -0.293 N 
HETATM    5  H   UNL     1     -40.620 -49.878  14.200  1.00  0.00     0.164 HD
HETATM    6  H   UNL     1     -41.940 -48.263  13.365  1.00  0.00     0.172 HD
ENDROOT
BRANCH   1   7
HETATM    7  C   UNL     1     -40.108 -51.733  13.267  1.00  0.00     0.110 C 
HETATM    8  C   UNL     1     -38.946 -51.876  14.249  1.00  0.00     0.034 C 
BRANCH   7   9
HETATM    9  C   UNL     1     -41.159 -52.881  13.451  1.00  0.00     0.297 C 
BRANCH   9  10
HETATM   10  N   UNL     1     -42.468 -52.536  14.036  1.00  0.00     0.094 N 
HETATM   11  C   UNL     1     -42.788 -53.455  15.165  1.00  0.00     0.298 C 
HETATM   12  C   UNL     1     -43.273 -54.849  14.722  1.00  0.00     0.198 C 
HETATM   13  O   UNL     1     -44.424 -54.744  13.874  1.00  0.00    -0.388 OA
HETATM   14  C   UNL     1     -44.125 -53.955  12.721  1.00  0.00     0.198 C 
HETATM   15  C   UNL     1     -43.618 -52.555  13.113  1.00  0.00     0.298 C 
ENDBRANCH   9  10
ENDBRANCH   7   9
ENDBRANCH   1   7
BRANCH   4  16
HETATM   16  C   UNL     1     -42.067 -47.671  11.368  1.00  0.00     0.127 A 
HETATM   17  C   UNL     1     -43.312 -47.605  10.781  1.00  0.00     0.076 A 
HETATM   18  C   UNL     1     -43.214 -46.634   9.766  1.00  0.00     0.025 A 
HETATM   19  C   UNL     1     -44.287 -46.197   8.842  1.00  0.00     0.070 C 
HETATM   20  N   UNL     1     -41.987 -46.109   9.709  1.00  0.00    -0.302 N 
HETATM   21  N   UNL     1     -41.313 -46.734  10.696  1.00  0.00    -0.281 N 
ATOM     22  HN  UNL     1     -41.639 -45.398   9.066  1.00  0.00     0.186 HD
HETATM   23  C   UNL     1     -39.958 -46.317  10.963  1.00  0.00     0.179 C 
ENDBRANCH   4  16
TORSDOF 4
ENDMDL
MODEL 9
REMARK VINA RESULT:      -5.1      2.597      3.460
REMARK  4 active torsions:
REMARK  status: ('A' for Active; 'I' for Inactive)
REMARK    1  A    between atoms: C_2  and  C_3 
REMARK    2  A    between atoms: C_2  and  N_10 
REMARK    3  A    between atoms: C_3  and  N_4 
REMARK       I    between atoms: N_10  and  C_11 
REMARK       I    between atoms: C_11  and  N_13 
REMARK    4  A    between atoms: N_13  and  C_14 
ROOT
HETATM    1  N   UNL     1     -42.664 -48.989  11.068  1.00  0.00    -0.337 N 
HETATM    2  C   UNL     1     -41.707 -49.684  11.742  1.00  0.00     0.322 C 
HETATM    3  O   UNL     1     -40.539 -49.357  11.839  1.00  0.00    -0.247 OA
HETATM    4  N   UNL     1     -42.251 -50.813  12.421  1.00  0.00    -0.293 N 
HETATM    5  H   UNL     1     -43.523 -49.440  10.790  1.00  0.00     0.164 HD
HETATM    6  H   UNL     1     -43.252 -50.969  12.414  1.00  0.00     0.172 HD
ENDROOT
BRANCH   1   7
HETATM    7  C   UNL     1     -42.322 -47.704  10.444  1.00  0.00     0.110 C 
HETATM    8  C   UNL     1     -43.048 -47.540   9.109  1.00  0.00     0.034 C 
BRANCH   7   9
HETATM    9  C   UNL     1     -42.542 -46.461  11.372  1.00  0.00     0.297 C 
BRANCH   9  10
HETATM   10  N   UNL     1     -41.366 -45.885  12.051  1.00  0.00     0.094 N 
HETATM   11  C   UNL     1     -41.619 -44.459  12.404  1.00  0.00     0.298 C 
HETATM   12  C   UNL     1     -41.499 -43.486  11.215  1.00  0.00     0.198 C 
HETATM   13  O   UNL     1     -40.207 -43.586  10.602  1.00  0.00    -0.388 OA
HETATM   14  C   UNL     1     -39.968 -44.921  10.153  1.00  0.00     0.198 C 
HETATM   15  C   UNL     1     -40.096 -45.935  11.303  1.00  0.00     0.298 C 
ENDBRANCH   9  10
ENDBRANCH   7   9
ENDBRANCH   1   7
BRANCH   4  16
HETATM   16  C   UNL     1     -41.438 -51.668  13.173  1.00  0.00     0.127 A 
HETATM   17  C   UNL     1     -40.849 -52.840  12.752  1.00  0.00     0.076 A 
HETATM   18  C   UNL     1     -40.148 -53.346  13.863  1.00  0.00     0.025 A 
HETATM   19  C   UNL     1     -39.350 -54.593  13.924  1.00  0.00     0.070 C 
HETATM   20  N   UNL     1     -40.276 -52.547  14.926  1.00  0.00    -0.302 N 
HETATM   21  N   UNL     1     -41.043 -51.530  14.485  1.00  0.00    -0.281 N 
ATOM     22  HN  UNL     1     -39.883 -52.677  15.859  1.00  0.00     0.186 HD
HETATM   23  C   UNL     1     -41.294 -50.428  15.383  1.00  0.00     0.179 C 
ENDBRANCH   4  16
TORSDOF 4
ENDMDL
