MODEL 1
REMARK VINA RESULT:      -6.7      0.000      0.000
REMARK  4 active torsions:
REMARK  status: ('A' for Active; 'I' for Inactive)
REMARK    1  A    between atoms: N_11  and  C_12 
REMARK    2  A    between atoms: C_12  and  C_13 
REMARK    3  A    between atoms: C_13  and  O_14 
REMARK    4  A    between atoms: C_13  and  C_15 
ROOT
HETATM    1  C   UNL     1     -41.916 -56.192  16.895  1.00  0.00     0.164 C 
HETATM    2  N   UNL     1     -41.685 -55.279  15.793  1.00  0.00    -0.269 N 
HETATM    3  C   UNL     1     -40.384 -54.767  15.608  1.00  0.00     0.332 A 
HETATM    4  O   UNL     1     -39.456 -55.084  16.358  1.00  0.00    -0.246 OA
HETATM    5  N   UNL     1     -40.193 -53.885  14.541  1.00  0.00    -0.287 N 
HETATM    6  C   UNL     1     -38.882 -53.321  14.276  1.00  0.00     0.163 C 
HETATM    7  C   UNL     1     -41.256 -53.565  13.733  1.00  0.00     0.145 A 
HETATM    8  N   UNL     1     -41.230 -52.719  12.664  1.00  0.00    -0.336 N 
ATOM      9  HN  UNL     1     -40.434 -52.194  12.302  1.00  0.00     0.168 HD
HETATM   10  C   UNL     1     -42.465 -52.734  12.203  1.00  0.00     0.185 A 
HETATM   11  N   UNL     1     -43.269 -53.565  12.938  1.00  0.00    -0.333 N 
HETATM   12  C   UNL     1     -42.495 -54.090  13.935  1.00  0.00     0.149 A 
HETATM   13  C   UNL     1     -42.792 -55.000  14.984  1.00  0.00     0.282 A 
HETATM   14  O   UNL     1     -43.910 -55.485  15.154  1.00  0.00    -0.265 OA
ENDROOT
BRANCH  11  15
HETATM   15  C   UNL     1     -44.685 -53.787  12.729  1.00  0.00     0.167 C 
BRANCH  15  16
HETATM   16  C   UNL     1     -45.496 -52.481  12.641  1.00  0.00     0.169 C 
BRANCH  16  17
HETATM   17  O   UNL     1     -46.735 -52.643  11.953  1.00  0.00    -0.389 OA
HETATM   18  H   UNL     1     -46.944 -53.596  11.913  1.00  0.00     0.210 HD
ENDBRANCH  16  17
BRANCH  16  19
HETATM   19  C   UNL     1     -45.789 -51.916  14.016  1.00  0.00    -0.028 A 
HETATM   20  C   UNL     1     -44.859 -51.069  14.642  1.00  0.00     0.013 A 
HETATM   21  C   UNL     1     -45.115 -50.555  15.914  1.00  0.00     0.043 A 
HETATM   22  C   UNL     1     -46.301 -50.879  16.560  1.00  0.00     0.116 A 
HETATM   23  F   UNL     1     -46.540 -50.390  17.784  1.00  0.00    -0.206 F 
HETATM   24  C   UNL     1     -47.244 -51.698  15.955  1.00  0.00     0.043 A 
HETATM   25  C   UNL     1     -46.991 -52.214  14.685  1.00  0.00     0.013 A 
ENDBRANCH  16  19
ENDBRANCH  15  16
ENDBRANCH  11  15
TORSDOF 4
ENDMDL
MODEL 2
REMARK VINA RESULT:      -6.6      1.670      2.292
REMARK  4 active torsions:
REMARK  status: ('A' for Active; 'I' for Inactive)
REMARK    1  A    between atoms: N_11  and  C_12 
REMARK    2  A    between atoms: C_12  and  C_13 
REMARK    3  A    between atoms: C_13  and  O_14 
REMARK    4  A    between atoms: C_13  and  C_15 
ROOT
HETATM    1  C   UNL     1     -39.348 -54.593  15.544  1.00  0.00     0.164 C 
HETATM    2  N   UNL     1     -40.303 -54.046  14.600  1.00  0.00    -0.269 N 
HETATM    3  C   UNL     1     -39.851 -53.089  13.668  1.00  0.00     0.332 A 
HETATM    4  O   UNL     1     -38.673 -52.722  13.645  1.00  0.00    -0.246 OA
HETATM    5  N   UNL     1     -40.794 -52.575  12.775  1.00  0.00    -0.287 N 
HETATM    6  C   UNL     1     -40.409 -51.593  11.778  1.00  0.00     0.163 C 
HETATM    7  C   UNL     1     -42.093 -53.017  12.839  1.00  0.00     0.145 A 
HETATM    8  N   UNL     1     -43.124 -52.608  12.046  1.00  0.00    -0.336 N 
ATOM      9  HN  UNL     1     -43.099 -51.917  11.296  1.00  0.00     0.168 HD
HETATM   10  C   UNL     1     -44.160 -53.306  12.466  1.00  0.00     0.185 A 
HETATM   11  N   UNL     1     -43.819 -54.148  13.492  1.00  0.00    -0.333 N 
HETATM   12  C   UNL     1     -42.490 -53.952  13.744  1.00  0.00     0.149 A 
HETATM   13  C   UNL     1     -41.608 -54.542  14.689  1.00  0.00     0.282 A 
HETATM   14  O   UNL     1     -41.967 -55.399  15.495  1.00  0.00    -0.265 OA
ENDROOT
BRANCH  11  15
HETATM   15  C   UNL     1     -44.719 -55.028  14.209  1.00  0.00     0.167 C 
BRANCH  15  16
HETATM   16  C   UNL     1     -46.171 -54.517  14.236  1.00  0.00     0.169 C 
BRANCH  16  17
HETATM   17  O   UNL     1     -47.118 -55.550  14.503  1.00  0.00    -0.389 OA
HETATM   18  H   UNL     1     -47.501 -55.397  15.389  1.00  0.00     0.210 HD
ENDBRANCH  16  17
BRANCH  16  19
HETATM   19  C   UNL     1     -46.357 -53.426  15.271  1.00  0.00    -0.028 A 
HETATM   20  C   UNL     1     -46.907 -52.189  14.897  1.00  0.00     0.013 A 
HETATM   21  C   UNL     1     -47.069 -51.173  15.842  1.00  0.00     0.043 A 
HETATM   22  C   UNL     1     -46.690 -51.394  17.160  1.00  0.00     0.116 A 
HETATM   23  F   UNL     1     -46.840 -50.415  18.061  1.00  0.00    -0.206 F 
HETATM   24  C   UNL     1     -46.162 -52.614  17.557  1.00  0.00     0.043 A 
HETATM   25  C   UNL     1     -45.998 -53.629  16.616  1.00  0.00     0.013 A 
ENDBRANCH  16  19
ENDBRANCH  15  16
ENDBRANCH  11  15
TORSDOF 4
ENDMDL
MODEL 3
REMARK VINA RESULT:      -6.3      4.830      6.298
REMARK  4 active torsions:
REMARK  status: ('A' for Active; 'I' for Inactive)
REMARK    1  A    between atoms: N_11  and  C_12 
REMARK    2  A    between atoms: C_12  and  C_13 
REMARK    3  A    between atoms: C_13  and  O_14 
REMARK    4  A    between atoms: C_13  and  C_15 
ROOT
HETATM    1  C   UNL     1     -38.721 -47.230  15.957  1.00  0.00     0.164 C 
HETATM    2  N   UNL     1     -39.197 -47.500  14.616  1.00  0.00    -0.269 N 
HETATM    3  C   UNL     1     -39.278 -46.427  13.704  1.00  0.00     0.332 A 
HETATM    4  O   UNL     1     -38.951 -45.282  14.029  1.00  0.00    -0.246 OA
HETATM    5  N   UNL     1     -39.746 -46.716  12.420  1.00  0.00    -0.287 N 
HETATM    6  C   UNL     1     -39.851 -45.671  11.419  1.00  0.00     0.163 C 
HETATM    7  C   UNL     1     -40.095 -48.007  12.105  1.00  0.00     0.145 A 
HETATM    8  N   UNL     1     -40.572 -48.444  10.904  1.00  0.00    -0.336 N 
ATOM      9  HN  UNL     1     -40.748 -47.892  10.065  1.00  0.00     0.168 HD
HETATM   10  C   UNL     1     -40.754 -49.738  11.073  1.00  0.00     0.185 A 
HETATM   11  N   UNL     1     -40.400 -50.137  12.336  1.00  0.00    -0.333 N 
HETATM   12  C   UNL     1     -39.990 -49.020  13.008  1.00  0.00     0.149 A 
HETATM   13  C   UNL     1     -39.519 -48.832  14.335  1.00  0.00     0.282 A 
HETATM   14  O   UNL     1     -39.411 -49.753  15.143  1.00  0.00    -0.265 OA
ENDROOT
BRANCH  11  15
HETATM   15  C   UNL     1     -40.508 -51.481  12.867  1.00  0.00     0.167 C 
BRANCH  15  16
HETATM   16  C   UNL     1     -41.282 -52.437  11.943  1.00  0.00     0.169 C 
BRANCH  16  17
HETATM   17  O   UNL     1     -40.447 -53.425  11.341  1.00  0.00    -0.389 OA
HETATM   18  H   UNL     1     -40.069 -53.052  10.521  1.00  0.00     0.210 HD
ENDBRANCH  16  17
BRANCH  16  19
HETATM   19  C   UNL     1     -42.396 -53.148  12.685  1.00  0.00    -0.028 A 
HETATM   20  C   UNL     1     -42.103 -53.921  13.821  1.00  0.00     0.013 A 
HETATM   21  C   UNL     1     -43.121 -54.590  14.503  1.00  0.00     0.043 A 
HETATM   22  C   UNL     1     -44.432 -54.484  14.056  1.00  0.00     0.116 A 
HETATM   23  F   UNL     1     -45.405 -55.133  14.708  1.00  0.00    -0.206 F 
HETATM   24  C   UNL     1     -44.749 -53.711  12.948  1.00  0.00     0.043 A 
HETATM   25  C   UNL     1     -43.735 -53.043  12.265  1.00  0.00     0.013 A 
ENDBRANCH  16  19
ENDBRANCH  15  16
ENDBRANCH  11  15
TORSDOF 4
ENDMDL
MODEL 4
REMARK VINA RESULT:      -6.3      2.451      3.316
REMARK  4 active torsions:
REMARK  status: ('A' for Active; 'I' for Inactive)
REMARK    1  A    between atoms: N_11  and  C_12 
REMARK    2  A    between atoms: C_12  and  C_13 
REMARK    3  A    between atoms: C_13  and  O_14 
REMARK    4  A    between atoms: C_13  and  C_15 
ROOT
HETATM    1  C   UNL     1     -38.226 -51.601  16.684  1.00  0.00     0.164 C 
HETATM    2  N   UNL     1     -38.725 -51.512  15.327  1.00  0.00    -0.269 N 
HETATM    3  C   UNL     1     -37.971 -50.787  14.381  1.00  0.00     0.332 A 
HETATM    4  O   UNL     1     -36.909 -50.240  14.691  1.00  0.00    -0.246 OA
HETATM    5  N   UNL     1     -38.479 -50.714  13.082  1.00  0.00    -0.287 N 
HETATM    6  C   UNL     1     -37.760 -49.994  12.047  1.00  0.00     0.163 C 
HETATM    7  C   UNL     1     -39.664 -51.342  12.786  1.00  0.00     0.145 A 
HETATM    8  N   UNL     1     -40.289 -51.355  11.574  1.00  0.00    -0.336 N 
ATOM      9  HN  UNL     1     -39.986 -50.905  10.710  1.00  0.00     0.168 HD
HETATM   10  C   UNL     1     -41.373 -52.080  11.770  1.00  0.00     0.185 A 
HETATM   11  N   UNL     1     -41.451 -52.533  13.061  1.00  0.00    -0.333 N 
HETATM   12  C   UNL     1     -40.359 -52.044  13.722  1.00  0.00     0.149 A 
HETATM   13  C   UNL     1     -39.924 -52.186  15.067  1.00  0.00     0.282 A 
HETATM   14  O   UNL     1     -40.546 -52.835  15.907  1.00  0.00    -0.265 OA
ENDROOT
BRANCH  11  15
HETATM   15  C   UNL     1     -42.526 -53.323  13.625  1.00  0.00     0.167 C 
BRANCH  15  16
HETATM   16  C   UNL     1     -43.861 -53.147  12.880  1.00  0.00     0.169 C 
BRANCH  16  17
HETATM   17  O   UNL     1     -44.256 -54.316  12.164  1.00  0.00    -0.389 OA
HETATM   18  H   UNL     1     -45.182 -54.524  12.398  1.00  0.00     0.210 HD
ENDBRANCH  16  17
BRANCH  16  19
HETATM   19  C   UNL     1     -44.982 -52.773  13.829  1.00  0.00    -0.028 A 
HETATM   20  C   UNL     1     -45.817 -51.682  13.536  1.00  0.00     0.013 A 
HETATM   21  C   UNL     1     -46.843 -51.322  14.412  1.00  0.00     0.043 A 
HETATM   22  C   UNL     1     -47.041 -52.054  15.576  1.00  0.00     0.116 A 
HETATM   23  F   UNL     1     -48.021 -51.702  16.417  1.00  0.00    -0.206 F 
HETATM   24  C   UNL     1     -46.242 -53.148  15.877  1.00  0.00     0.043 A 
HETATM   25  C   UNL     1     -45.216 -53.509  15.006  1.00  0.00     0.013 A 
ENDBRANCH  16  19
ENDBRANCH  15  16
ENDBRANCH  11  15
TORSDOF 4
ENDMDL
MODEL 5
REMARK VINA RESULT:      -6.3      3.114      6.284
REMARK  4 active torsions:
REMARK  status: ('A' for Active; 'I' for Inactive)
REMARK    1  A    between atoms: N_11  and  C_12 
REMARK    2  A    between atoms: C_12  and  C_13 
REMARK    3  A    between atoms: C_13  and  O_14 
REMARK    4  A    between atoms: C_13  and  C_15 
ROOT
HETATM    1  C   UNL     1     -46.273 -52.320  12.505  1.00  0.00     0.164 C 
HETATM    2  N   UNL     1     -45.465 -52.919  13.549  1.00  0.00    -0.269 N 
HETATM    3  C   UNL     1     -46.062 -53.156  14.805  1.00  0.00     0.332 A 
HETATM    4  O   UNL     1     -47.243 -52.868  15.019  1.00  0.00    -0.246 OA
HETATM    5  N   UNL     1     -45.258 -53.729  15.793  1.00  0.00    -0.287 N 
HETATM    6  C   UNL     1     -45.798 -54.014  17.110  1.00  0.00     0.163 C 
HETATM    7  C   UNL     1     -43.950 -54.034  15.505  1.00  0.00     0.145 A 
HETATM    8  N   UNL     1     -43.043 -54.586  16.361  1.00  0.00    -0.336 N 
ATOM      9  HN  UNL     1     -43.186 -54.851  17.335  1.00  0.00     0.168 HD
HETATM   10  C   UNL     1     -41.942 -54.700  15.645  1.00  0.00     0.185 A 
HETATM   11  N   UNL     1     -42.123 -54.247  14.364  1.00  0.00    -0.333 N 
HETATM   12  C   UNL     1     -43.412 -53.803  14.277  1.00  0.00     0.149 A 
HETATM   13  C   UNL     1     -44.147 -53.232  13.202  1.00  0.00     0.282 A 
HETATM   14  O   UNL     1     -43.662 -53.039  12.088  1.00  0.00    -0.265 OA
ENDROOT
BRANCH  11  15
HETATM   15  C   UNL     1     -41.113 -54.194  13.328  1.00  0.00     0.167 C 
BRANCH  15  16
HETATM   16  C   UNL     1     -39.772 -53.617  13.818  1.00  0.00     0.169 C 
BRANCH  16  17
HETATM   17  O   UNL     1     -38.658 -54.445  13.488  1.00  0.00    -0.389 OA
HETATM   18  H   UNL     1     -38.992 -55.249  13.045  1.00  0.00     0.210 HD
ENDBRANCH  16  17
BRANCH  16  19
HETATM   19  C   UNL     1     -39.520 -52.235  13.249  1.00  0.00    -0.028 A 
HETATM   20  C   UNL     1     -40.456 -51.650  12.381  1.00  0.00     0.013 A 
HETATM   21  C   UNL     1     -40.225 -50.384  11.842  1.00  0.00     0.043 A 
HETATM   22  C   UNL     1     -39.064 -49.697  12.173  1.00  0.00     0.116 A 
HETATM   23  F   UNL     1     -38.841 -48.486  11.648  1.00  0.00    -0.206 F 
HETATM   24  C   UNL     1     -38.132 -50.246  13.043  1.00  0.00     0.043 A 
HETATM   25  C   UNL     1     -38.360 -51.511  13.582  1.00  0.00     0.013 A 
ENDBRANCH  16  19
ENDBRANCH  15  16
ENDBRANCH  11  15
TORSDOF 4
ENDMDL
MODEL 6
REMARK VINA RESULT:      -6.1      4.625      6.439
REMARK  4 active torsions:
REMARK  status: ('A' for Active; 'I' for Inactive)
REMARK    1  A    between atoms: N_11  and  C_12 
REMARK    2  A    between atoms: C_12  and  C_13 
REMARK    3  A    between atoms: C_13  and  O_14 
REMARK    4  A    between atoms: C_13  and  C_15 
ROOT
HETATM    1  C   UNL     1     -43.338 -46.423  14.098  1.00  0.00     0.164 C 
HETATM    2  N   UNL     1     -42.271 -46.987  13.295  1.00  0.00    -0.269 N 
HETATM    3  C   UNL     1     -41.535 -46.124  12.457  1.00  0.00     0.332 A 
HETATM    4  O   UNL     1     -41.782 -44.916  12.403  1.00  0.00    -0.246 OA
HETATM    5  N   UNL     1     -40.517 -46.697  11.690  1.00  0.00    -0.287 N 
HETATM    6  C   UNL     1     -39.706 -45.877  10.809  1.00  0.00     0.163 C 
HETATM    7  C   UNL     1     -40.279 -48.046  11.787  1.00  0.00     0.145 A 
HETATM    8  N   UNL     1     -39.332 -48.749  11.102  1.00  0.00    -0.336 N 
ATOM      9  HN  UNL     1     -38.664 -48.394  10.417  1.00  0.00     0.168 HD
HETATM   10  C   UNL     1     -39.473 -49.990  11.525  1.00  0.00     0.185 A 
HETATM   11  N   UNL     1     -40.470 -50.095  12.459  1.00  0.00    -0.333 N 
HETATM   12  C   UNL     1     -41.002 -48.846  12.618  1.00  0.00     0.149 A 
HETATM   13  C   UNL     1     -42.051 -48.361  13.443  1.00  0.00     0.282 A 
HETATM   14  O   UNL     1     -42.692 -49.084  14.205  1.00  0.00    -0.265 OA
ENDROOT
BRANCH  11  15
HETATM   15  C   UNL     1     -40.913 -51.316  13.101  1.00  0.00     0.167 C 
BRANCH  15  16
HETATM   16  C   UNL     1     -41.515 -52.334  12.116  1.00  0.00     0.169 C 
BRANCH  16  17
HETATM   17  O   UNL     1     -40.554 -53.267  11.626  1.00  0.00    -0.389 OA
HETATM   18  H   UNL     1     -40.480 -53.155  10.658  1.00  0.00     0.210 HD
ENDBRANCH  16  17
BRANCH  16  19
HETATM   19  C   UNL     1     -42.652 -53.112  12.747  1.00  0.00    -0.028 A 
HETATM   20  C   UNL     1     -42.393 -54.007  13.799  1.00  0.00     0.013 A 
HETATM   21  C   UNL     1     -43.432 -54.738  14.376  1.00  0.00     0.043 A 
HETATM   22  C   UNL     1     -44.731 -54.573  13.911  1.00  0.00     0.116 A 
HETATM   23  F   UNL     1     -45.724 -55.282  14.462  1.00  0.00    -0.206 F 
HETATM   24  C   UNL     1     -45.014 -53.681  12.886  1.00  0.00     0.043 A 
HETATM   25  C   UNL     1     -43.979 -52.951  12.306  1.00  0.00     0.013 A 
ENDBRANCH  16  19
ENDBRANCH  15  16
ENDBRANCH  11  15
TORSDOF 4
ENDMDL
MODEL 7
REMARK VINA RESULT:      -5.9      3.609      5.163
REMARK  4 active torsions:
REMARK  status: ('A' for Active; 'I' for Inactive)
REMARK    1  A    between atoms: N_11  and  C_12 
REMARK    2  A    between atoms: C_12  and  C_13 
REMARK    3  A    between atoms: C_13  and  O_14 
REMARK    4  A    between atoms: C_13  and  C_15 
ROOT
HETATM    1  C   UNL     1     -38.373 -51.547  18.826  1.00  0.00     0.164 C 
HETATM    2  N   UNL     1     -38.234 -51.109  17.451  1.00  0.00    -0.269 N 
HETATM    3  C   UNL     1     -37.516 -49.922  17.195  1.00  0.00     0.332 A 
HETATM    4  O   UNL     1     -37.010 -49.267  18.111  1.00  0.00    -0.246 OA
HETATM    5  N   UNL     1     -37.403 -49.522  15.862  1.00  0.00    -0.287 N 
HETATM    6  C   UNL     1     -36.672 -48.317  15.512  1.00  0.00     0.163 C 
HETATM    7  C   UNL     1     -37.980 -50.286  14.877  1.00  0.00     0.145 A 
HETATM    8  N   UNL     1     -37.964 -50.024  13.539  1.00  0.00    -0.336 N 
ATOM      9  HN  UNL     1     -37.534 -49.232  13.063  1.00  0.00     0.168 HD
HETATM   10  C   UNL     1     -38.629 -51.026  13.000  1.00  0.00     0.185 A 
HETATM   11  N   UNL     1     -39.059 -51.917  13.949  1.00  0.00    -0.333 N 
HETATM   12  C   UNL     1     -38.655 -51.433  15.162  1.00  0.00     0.149 A 
HETATM   13  C   UNL     1     -38.819 -51.931  16.482  1.00  0.00     0.282 A 
HETATM   14  O   UNL     1     -39.416 -52.977  16.734  1.00  0.00    -0.265 OA
ENDROOT
BRANCH  11  15
HETATM   15  C   UNL     1     -39.847 -53.108  13.707  1.00  0.00     0.167 C 
BRANCH  15  16
HETATM   16  C   UNL     1     -40.962 -52.895  12.667  1.00  0.00     0.169 C 
BRANCH  16  17
HETATM   17  O   UNL     1     -40.628 -53.413  11.381  1.00  0.00    -0.389 OA
HETATM   18  H   UNL     1     -40.854 -54.364  11.363  1.00  0.00     0.210 HD
ENDBRANCH  16  17
BRANCH  16  19
HETATM   19  C   UNL     1     -42.264 -53.532  13.110  1.00  0.00    -0.028 A 
HETATM   20  C   UNL     1     -43.452 -53.264  12.410  1.00  0.00     0.013 A 
HETATM   21  C   UNL     1     -44.658 -53.835  12.819  1.00  0.00     0.043 A 
HETATM   22  C   UNL     1     -44.679 -54.680  13.922  1.00  0.00     0.116 A 
HETATM   23  F   UNL     1     -45.839 -55.220  14.317  1.00  0.00    -0.206 F 
HETATM   24  C   UNL     1     -43.515 -54.974  14.619  1.00  0.00     0.043 A 
HETATM   25  C   UNL     1     -42.310 -54.404  14.213  1.00  0.00     0.013 A 
ENDBRANCH  16  19
ENDBRANCH  15  16
ENDBRANCH  11  15
TORSDOF 4
ENDMDL
MODEL 8
REMARK VINA RESULT:      -5.9      1.908      2.900
REMARK  4 active torsions:
REMARK  status: ('A' for Active; 'I' for Inactive)
REMARK    1  A    between atoms: N_11  and  C_12 
REMARK    2  A    between atoms: C_12  and  C_13 
REMARK    3  A    between atoms: C_13  and  O_14 
REMARK    4  A    between atoms: C_13  and  C_15 
ROOT
HETATM    1  C   UNL     1     -42.625 -56.084  18.397  1.00  0.00     0.164 C 
HETATM    2  N   UNL     1     -41.582 -55.689  17.472  1.00  0.00    -0.269 N 
HETATM    3  C   UNL     1     -40.242 -55.743  17.911  1.00  0.00     0.332 A 
HETATM    4  O   UNL     1     -39.954 -56.120  19.050  1.00  0.00    -0.246 OA
HETATM    5  N   UNL     1     -39.258 -55.351  17.000  1.00  0.00    -0.287 N 
HETATM    6  C   UNL     1     -37.855 -55.386  17.368  1.00  0.00     0.163 C 
HETATM    7  C   UNL     1     -39.629 -54.942  15.742  1.00  0.00     0.145 A 
HETATM    8  N   UNL     1     -38.791 -54.525  14.750  1.00  0.00    -0.336 N 
ATOM      9  HN  UNL     1     -37.775 -54.445  14.783  1.00  0.00     0.168 HD
HETATM   10  C   UNL     1     -39.591 -54.248  13.739  1.00  0.00     0.185 A 
HETATM   11  N   UNL     1     -40.904 -54.483  14.054  1.00  0.00    -0.333 N 
HETATM   12  C   UNL     1     -40.932 -54.916  15.350  1.00  0.00     0.149 A 
HETATM   13  C   UNL     1     -42.005 -55.302  16.196  1.00  0.00     0.282 A 
HETATM   14  O   UNL     1     -43.181 -55.292  15.833  1.00  0.00    -0.265 OA
ENDROOT
BRANCH  11  15
HETATM   15  C   UNL     1     -42.043 -54.251  13.190  1.00  0.00     0.167 C 
BRANCH  15  16
HETATM   16  C   UNL     1     -42.272 -52.762  12.877  1.00  0.00     0.169 C 
BRANCH  16  17
HETATM   17  O   UNL     1     -42.158 -52.462  11.488  1.00  0.00    -0.389 OA
HETATM   18  H   UNL     1     -41.388 -51.874  11.361  1.00  0.00     0.210 HD
ENDBRANCH  16  17
BRANCH  16  19
HETATM   19  C   UNL     1     -43.635 -52.298  13.351  1.00  0.00    -0.028 A 
HETATM   20  C   UNL     1     -44.798 -52.776  12.724  1.00  0.00     0.013 A 
HETATM   21  C   UNL     1     -46.057 -52.343  13.144  1.00  0.00     0.043 A 
HETATM   22  C   UNL     1     -46.157 -51.439  14.194  1.00  0.00     0.116 A 
HETATM   23  F   UNL     1     -47.366 -51.020  14.590  1.00  0.00    -0.206 F 
HETATM   24  C   UNL     1     -45.024 -50.966  14.842  1.00  0.00     0.043 A 
HETATM   25  C   UNL     1     -43.766 -51.396  14.423  1.00  0.00     0.013 A 
ENDBRANCH  16  19
ENDBRANCH  15  16
ENDBRANCH  11  15
TORSDOF 4
ENDMDL
MODEL 9
REMARK VINA RESULT:      -5.8      5.046      7.129
REMARK  4 active torsions:
REMARK  status: ('A' for Active; 'I' for Inactive)
REMARK    1  A    between atoms: N_11  and  C_12 
REMARK    2  A    between atoms: C_12  and  C_13 
REMARK    3  A    between atoms: C_13  and  O_14 
REMARK    4  A    between atoms: C_13  and  C_15 
ROOT
HETATM    1  C   UNL     1     -38.838 -46.478  15.099  1.00  0.00     0.164 C 
HETATM    2  N   UNL     1     -39.379 -47.063  13.889  1.00  0.00    -0.269 N 
HETATM    3  C   UNL     1     -39.883 -46.199  12.894  1.00  0.00     0.332 A 
HETATM    4  O   UNL     1     -39.866 -44.974  13.039  1.00  0.00    -0.246 OA
HETATM    5  N   UNL     1     -40.402 -46.792  11.740  1.00  0.00    -0.287 N 
HETATM    6  C   UNL     1     -40.932 -45.974  10.664  1.00  0.00     0.163 C 
HETATM    7  C   UNL     1     -40.396 -48.161  11.624  1.00  0.00     0.145 A 
HETATM    8  N   UNL     1     -40.871 -48.883  10.570  1.00  0.00    -0.336 N 
ATOM      9  HN  UNL     1     -41.303 -48.531   9.716  1.00  0.00     0.168 HD
HETATM   10  C   UNL     1     -40.644 -50.138  10.902  1.00  0.00     0.185 A 
HETATM   11  N   UNL     1     -40.035 -50.235  12.126  1.00  0.00    -0.333 N 
HETATM   12  C   UNL     1     -39.888 -48.962  12.600  1.00  0.00     0.149 A 
HETATM   13  C   UNL     1     -39.330 -48.459  13.806  1.00  0.00     0.282 A 
HETATM   14  O   UNL     1     -38.858 -49.185  14.679  1.00  0.00    -0.265 OA
ENDROOT
BRANCH  11  15
HETATM   15  C   UNL     1     -39.678 -51.463  12.807  1.00  0.00     0.167 C 
BRANCH  15  16
HETATM   16  C   UNL     1     -40.716 -52.583  12.618  1.00  0.00     0.169 C 
BRANCH  16  17
HETATM   17  O   UNL     1     -40.518 -53.326  11.417  1.00  0.00    -0.389 OA
HETATM   18  H   UNL     1     -39.577 -53.260  11.164  1.00  0.00     0.210 HD
ENDBRANCH  16  17
BRANCH  16  19
HETATM   19  C   UNL     1     -40.705 -53.554  13.782  1.00  0.00    -0.028 A 
HETATM   20  C   UNL     1     -41.913 -53.957  14.374  1.00  0.00     0.013 A 
HETATM   21  C   UNL     1     -41.910 -54.840  15.455  1.00  0.00     0.043 A 
HETATM   22  C   UNL     1     -40.704 -55.327  15.941  1.00  0.00     0.116 A 
HETATM   23  F   UNL     1     -40.704 -56.168  16.984  1.00  0.00    -0.206 F 
HETATM   24  C   UNL     1     -39.498 -54.959  15.361  1.00  0.00     0.043 A 
HETATM   25  C   UNL     1     -39.497 -54.077  14.282  1.00  0.00     0.013 A 
ENDBRANCH  16  19
ENDBRANCH  15  16
ENDBRANCH  11  15
TORSDOF 4
ENDMDL
