MODEL 1
REMARK VINA RESULT:      -6.3      0.000      0.000
REMARK  4 active torsions:
REMARK  status: ('A' for Active; 'I' for Inactive)
REMARK    1  A    between atoms: O_2  and  C_3 
REMARK    2  A    between atoms: C_6  and  N_7 
REMARK       I    between atoms: N_7  and  C_8 
REMARK       I    between atoms: C_8  and  N_10 
REMARK    3  A    between atoms: N_10  and  C_11 
REMARK    4  A    between atoms: C_11  and  C_12 
REMARK       I    between atoms: C_12  and  N_14 
ROOT
HETATM    1  N   UNL     1     -41.572 -49.710  10.994  1.00  0.00    -0.308 N 
HETATM    2  C   UNL     1     -42.034 -50.326  12.131  1.00  0.00     0.321 C 
HETATM    3  O   UNL     1     -42.380 -49.764  13.164  1.00  0.00    -0.247 OA
HETATM    4  N   UNL     1     -42.071 -51.697  12.041  1.00  0.00    -0.334 N 
HETATM    5  H   UNL     1     -41.482 -50.280  10.165  1.00  0.00     0.170 HD
HETATM    6  H   UNL     1     -42.046 -52.175  11.151  1.00  0.00     0.164 HD
ENDROOT
BRANCH   1   7
HETATM    7  C   UNL     1     -41.306 -48.322  10.869  1.00  0.00     0.051 A 
HETATM    8  C   UNL     1     -40.201 -47.697  11.442  1.00  0.00     0.035 A 
HETATM    9  C   UNL     1     -39.981 -46.335  11.243  1.00  0.00     0.058 A 
HETATM   10  C   UNL     1     -40.884 -45.628  10.472  1.00  0.00     0.141 A 
HETATM   11  N   UNL     1     -41.979 -46.182   9.909  1.00  0.00    -0.345 N 
HETATM   12  C   UNL     1     -42.158 -47.513  10.117  1.00  0.00     0.119 A 
ATOM     13  HN  UNL     1     -42.637 -45.631   9.357  1.00  0.00     0.167 HD
BRANCH  10  14
HETATM   14  O   UNL     1     -40.580 -44.298  10.264  1.00  0.00    -0.341 OA
HETATM   15  C   UNL     1     -40.338 -43.580  11.467  1.00  0.00     0.211 C 
ENDBRANCH  10  14
ENDBRANCH   1   7
BRANCH   4  16
HETATM   16  C   UNL     1     -42.616 -52.417  13.178  1.00  0.00     0.227 C 
BRANCH  16  17
HETATM   17  C   UNL     1     -44.082 -52.833  13.039  1.00  0.00     0.237 C 
HETATM   18  O   UNL     1     -44.476 -53.510  12.091  1.00  0.00    -0.272 OA
HETATM   19  N   UNL     1     -44.922 -52.371  14.036  1.00  0.00    -0.351 N 
HETATM   20  C   UNL     1     -44.545 -51.573  15.194  1.00  0.00     0.126 C 
HETATM   21  C   UNL     1     -46.341 -52.655  14.051  1.00  0.00     0.126 C 
HETATM   22  C   UNL     1     -45.859 -51.078  15.793  1.00  0.00     0.021 C 
HETATM   23  C   UNL     1     -46.927 -51.453  14.769  1.00  0.00     0.021 C 
ENDBRANCH  16  17
ENDBRANCH   4  16
TORSDOF 4
ENDMDL
MODEL 2
REMARK VINA RESULT:      -5.9      2.167      7.717
REMARK  4 active torsions:
REMARK  status: ('A' for Active; 'I' for Inactive)
REMARK    1  A    between atoms: O_2  and  C_3 
REMARK    2  A    between atoms: C_6  and  N_7 
REMARK       I    between atoms: N_7  and  C_8 
REMARK       I    between atoms: C_8  and  N_10 
REMARK    3  A    between atoms: N_10  and  C_11 
REMARK    4  A    between atoms: C_11  and  C_12 
REMARK       I    between atoms: C_12  and  N_14 
ROOT
HETATM    1  N   UNL     1     -42.264 -52.499  11.771  1.00  0.00    -0.308 N 
HETATM    2  C   UNL     1     -41.564 -51.366  12.102  1.00  0.00     0.321 C 
HETATM    3  O   UNL     1     -41.553 -50.822  13.201  1.00  0.00    -0.247 OA
HETATM    4  N   UNL     1     -40.845 -50.835  11.058  1.00  0.00    -0.334 N 
HETATM    5  H   UNL     1     -42.052 -52.930  10.883  1.00  0.00     0.170 HD
HETATM    6  H   UNL     1     -40.621 -51.376  10.234  1.00  0.00     0.164 HD
ENDROOT
BRANCH   1   7
HETATM    7  C   UNL     1     -43.188 -53.164  12.619  1.00  0.00     0.051 A 
HETATM    8  C   UNL     1     -42.810 -54.077  13.601  1.00  0.00     0.035 A 
HETATM    9  C   UNL     1     -43.770 -54.660  14.425  1.00  0.00     0.058 A 
HETATM   10  C   UNL     1     -45.095 -54.314  14.242  1.00  0.00     0.141 A 
HETATM   11  N   UNL     1     -45.516 -53.448  13.294  1.00  0.00    -0.345 N 
HETATM   12  C   UNL     1     -44.553 -52.893  12.513  1.00  0.00     0.119 A 
ATOM     13  HN  UNL     1     -46.503 -53.223  13.172  1.00  0.00     0.167 HD
BRANCH  10  14
HETATM   14  O   UNL     1     -45.990 -54.881  15.126  1.00  0.00    -0.341 OA
HETATM   15  C   UNL     1     -46.118 -54.156  16.343  1.00  0.00     0.211 C 
ENDBRANCH  10  14
ENDBRANCH   1   7
BRANCH   4  16
HETATM   16  C   UNL     1     -40.020 -49.676  11.348  1.00  0.00     0.227 C 
BRANCH  16  17
HETATM   17  C   UNL     1     -40.719 -48.325  11.182  1.00  0.00     0.237 C 
HETATM   18  O   UNL     1     -41.550 -48.130  10.296  1.00  0.00    -0.272 OA
HETATM   19  N   UNL     1     -40.328 -47.346  12.077  1.00  0.00    -0.351 N 
HETATM   20  C   UNL     1     -39.362 -47.488  13.158  1.00  0.00     0.126 C 
HETATM   21  C   UNL     1     -40.873 -46.006  12.052  1.00  0.00     0.126 C 
HETATM   22  C   UNL     1     -39.068 -46.066  13.631  1.00  0.00     0.021 C 
HETATM   23  C   UNL     1     -39.739 -45.160  12.601  1.00  0.00     0.021 C 
ENDBRANCH  16  17
ENDBRANCH   4  16
TORSDOF 4
ENDMDL
MODEL 3
REMARK VINA RESULT:      -5.9      3.109      7.800
REMARK  4 active torsions:
REMARK  status: ('A' for Active; 'I' for Inactive)
REMARK    1  A    between atoms: O_2  and  C_3 
REMARK    2  A    between atoms: C_6  and  N_7 
REMARK       I    between atoms: N_7  and  C_8 
REMARK       I    between atoms: C_8  and  N_10 
REMARK    3  A    between atoms: N_10  and  C_11 
REMARK    4  A    between atoms: C_11  and  C_12 
REMARK       I    between atoms: C_12  and  N_14 
ROOT
HETATM    1  N   UNL     1     -42.335 -52.659  11.811  1.00  0.00    -0.308 N 
HETATM    2  C   UNL     1     -41.710 -51.468  12.087  1.00  0.00     0.321 C 
HETATM    3  O   UNL     1     -41.831 -50.813  13.117  1.00  0.00    -0.247 OA
HETATM    4  N   UNL     1     -40.906 -51.017  11.069  1.00  0.00    -0.334 N 
HETATM    5  H   UNL     1     -42.018 -53.169  11.000  1.00  0.00     0.170 HD
HETATM    6  H   UNL     1     -40.579 -51.630  10.334  1.00  0.00     0.164 HD
ENDROOT
BRANCH   1   7
HETATM    7  C   UNL     1     -43.320 -53.272  12.629  1.00  0.00     0.051 A 
HETATM    8  C   UNL     1     -43.017 -54.144  13.672  1.00  0.00     0.035 A 
HETATM    9  C   UNL     1     -44.035 -54.676  14.461  1.00  0.00     0.058 A 
HETATM   10  C   UNL     1     -45.340 -54.321  14.180  1.00  0.00     0.141 A 
HETATM   11  N   UNL     1     -45.689 -53.495  13.171  1.00  0.00    -0.345 N 
HETATM   12  C   UNL     1     -44.671 -52.988  12.427  1.00  0.00     0.119 A 
ATOM     13  HN  UNL     1     -46.663 -53.263  12.978  1.00  0.00     0.167 HD
BRANCH  10  14
HETATM   14  O   UNL     1     -46.297 -54.836  15.032  1.00  0.00    -0.341 OA
HETATM   15  C   UNL     1     -46.312 -54.210  16.309  1.00  0.00     0.211 C 
ENDBRANCH  10  14
ENDBRANCH   1   7
BRANCH   4  16
HETATM   16  C   UNL     1     -40.154 -49.799  11.314  1.00  0.00     0.227 C 
BRANCH  16  17
HETATM   17  C   UNL     1     -38.906 -49.971  12.181  1.00  0.00     0.237 C 
HETATM   18  O   UNL     1     -38.234 -51.002  12.152  1.00  0.00    -0.272 OA
HETATM   19  N   UNL     1     -38.610 -48.902  13.008  1.00  0.00    -0.351 N 
HETATM   20  C   UNL     1     -39.341 -47.646  13.102  1.00  0.00     0.126 C 
HETATM   21  C   UNL     1     -37.477 -48.904  13.907  1.00  0.00     0.126 C 
HETATM   22  C   UNL     1     -38.805 -46.957  14.355  1.00  0.00     0.021 C 
HETATM   23  C   UNL     1     -37.934 -48.006  15.042  1.00  0.00     0.021 C 
ENDBRANCH  16  17
ENDBRANCH   4  16
TORSDOF 4
ENDMDL
MODEL 4
REMARK VINA RESULT:      -5.9      3.039      3.774
REMARK  4 active torsions:
REMARK  status: ('A' for Active; 'I' for Inactive)
REMARK    1  A    between atoms: O_2  and  C_3 
REMARK    2  A    between atoms: C_6  and  N_7 
REMARK       I    between atoms: N_7  and  C_8 
REMARK       I    between atoms: C_8  and  N_10 
REMARK    3  A    between atoms: N_10  and  C_11 
REMARK    4  A    between atoms: C_11  and  C_12 
REMARK       I    between atoms: C_12  and  N_14 
ROOT
HETATM    1  N   UNL     1     -40.682 -50.751  11.011  1.00  0.00    -0.308 N 
HETATM    2  C   UNL     1     -41.017 -51.571  12.060  1.00  0.00     0.321 C 
HETATM    3  O   UNL     1     -41.430 -51.206  13.156  1.00  0.00    -0.247 OA
HETATM    4  N   UNL     1     -40.831 -52.907  11.799  1.00  0.00    -0.334 N 
HETATM    5  H   UNL     1     -40.516 -51.190  10.117  1.00  0.00     0.170 HD
HETATM    6  H   UNL     1     -40.746 -53.260  10.855  1.00  0.00     0.164 HD
ENDROOT
BRANCH   1   7
HETATM    7  C   UNL     1     -40.649 -49.334  11.063  1.00  0.00     0.051 A 
HETATM    8  C   UNL     1     -39.703 -48.613  11.791  1.00  0.00     0.035 A 
HETATM    9  C   UNL     1     -39.706 -47.220  11.761  1.00  0.00     0.058 A 
HETATM   10  C   UNL     1     -40.665 -46.579  11.002  1.00  0.00     0.141 A 
HETATM   11  N   UNL     1     -41.614 -47.228  10.293  1.00  0.00    -0.345 N 
HETATM   12  C   UNL     1     -41.577 -48.586  10.338  1.00  0.00     0.119 A 
ATOM     13  HN  UNL     1     -42.319 -46.727   9.754  1.00  0.00     0.167 HD
BRANCH  10  14
HETATM   14  O   UNL     1     -40.580 -45.202  10.969  1.00  0.00    -0.341 OA
HETATM   15  C   UNL     1     -39.639 -44.717  10.018  1.00  0.00     0.211 C 
ENDBRANCH  10  14
ENDBRANCH   1   7
BRANCH   4  16
HETATM   16  C   UNL     1     -41.231 -53.843  12.835  1.00  0.00     0.227 C 
BRANCH  16  17
HETATM   17  C   UNL     1     -40.148 -54.174  13.863  1.00  0.00     0.237 C 
HETATM   18  O   UNL     1     -38.956 -53.973  13.635  1.00  0.00    -0.272 OA
HETATM   19  N   UNL     1     -40.606 -54.733  15.042  1.00  0.00    -0.351 N 
HETATM   20  C   UNL     1     -41.993 -54.999  15.400  1.00  0.00     0.126 C 
HETATM   21  C   UNL     1     -39.717 -55.123  16.115  1.00  0.00     0.126 C 
HETATM   22  C   UNL     1     -41.930 -55.888  16.640  1.00  0.00     0.021 C 
HETATM   23  C   UNL     1     -40.458 -56.269  16.779  1.00  0.00     0.021 C 
ENDBRANCH  16  17
ENDBRANCH   4  16
TORSDOF 4
ENDMDL
MODEL 5
REMARK VINA RESULT:      -5.8      2.506      2.855
REMARK  4 active torsions:
REMARK  status: ('A' for Active; 'I' for Inactive)
REMARK    1  A    between atoms: O_2  and  C_3 
REMARK    2  A    between atoms: C_6  and  N_7 
REMARK       I    between atoms: N_7  and  C_8 
REMARK       I    between atoms: C_8  and  N_10 
REMARK    3  A    between atoms: N_10  and  C_11 
REMARK    4  A    between atoms: C_11  and  C_12 
REMARK       I    between atoms: C_12  and  N_14 
ROOT
HETATM    1  N   UNL     1     -41.305 -49.015  10.516  1.00  0.00    -0.308 N 
HETATM    2  C   UNL     1     -41.126 -49.831  11.605  1.00  0.00     0.321 C 
HETATM    3  O   UNL     1     -41.310 -49.520  12.777  1.00  0.00    -0.247 OA
HETATM    4  N   UNL     1     -40.682 -51.091  11.284  1.00  0.00    -0.334 N 
HETATM    5  H   UNL     1     -41.278 -49.449   9.604  1.00  0.00     0.170 HD
HETATM    6  H   UNL     1     -40.765 -51.465  10.348  1.00  0.00     0.164 HD
ENDROOT
BRANCH   1   7
HETATM    7  C   UNL     1     -41.623 -47.633  10.576  1.00  0.00     0.051 A 
HETATM    8  C   UNL     1     -40.676 -46.636  10.801  1.00  0.00     0.035 A 
HETATM    9  C   UNL     1     -41.054 -45.295  10.805  1.00  0.00     0.058 A 
HETATM   10  C   UNL     1     -42.383 -44.985  10.587  1.00  0.00     0.141 A 
HETATM   11  N   UNL     1     -43.343 -45.912  10.382  1.00  0.00    -0.345 N 
HETATM   12  C   UNL     1     -42.937 -47.209  10.376  1.00  0.00     0.119 A 
ATOM     13  HN  UNL     1     -44.319 -45.654  10.239  1.00  0.00     0.167 HD
BRANCH  10  14
HETATM   14  O   UNL     1     -42.684 -43.638  10.547  1.00  0.00    -0.341 OA
HETATM   15  C   UNL     1     -41.986 -42.874  11.523  1.00  0.00     0.211 C 
ENDBRANCH  10  14
ENDBRANCH   1   7
BRANCH   4  16
HETATM   16  C   UNL     1     -40.537 -52.037  12.377  1.00  0.00     0.227 C 
BRANCH  16  17
HETATM   17  C   UNL     1     -41.792 -52.847  12.703  1.00  0.00     0.237 C 
HETATM   18  O   UNL     1     -42.850 -52.674  12.100  1.00  0.00    -0.272 OA
HETATM   19  N   UNL     1     -41.653 -53.759  13.734  1.00  0.00    -0.351 N 
HETATM   20  C   UNL     1     -40.443 -54.036  14.496  1.00  0.00     0.126 C 
HETATM   21  C   UNL     1     -42.744 -54.596  14.185  1.00  0.00     0.126 C 
HETATM   22  C   UNL     1     -40.896 -54.871  15.691  1.00  0.00     0.021 C 
HETATM   23  C   UNL     1     -42.422 -54.824  15.651  1.00  0.00     0.021 C 
ENDBRANCH  16  17
ENDBRANCH   4  16
TORSDOF 4
ENDMDL
MODEL 6
REMARK VINA RESULT:      -5.5      2.630      2.967
REMARK  4 active torsions:
REMARK  status: ('A' for Active; 'I' for Inactive)
REMARK    1  A    between atoms: O_2  and  C_3 
REMARK    2  A    between atoms: C_6  and  N_7 
REMARK       I    between atoms: N_7  and  C_8 
REMARK       I    between atoms: C_8  and  N_10 
REMARK    3  A    between atoms: N_10  and  C_11 
REMARK    4  A    between atoms: C_11  and  C_12 
REMARK       I    between atoms: C_12  and  N_14 
ROOT
HETATM    1  N   UNL     1     -42.583 -49.452  11.668  1.00  0.00    -0.308 N 
HETATM    2  C   UNL     1     -41.573 -50.370  11.815  1.00  0.00     0.321 C 
HETATM    3  O   UNL     1     -40.372 -50.121  11.846  1.00  0.00    -0.247 OA
HETATM    4  N   UNL     1     -42.014 -51.667  11.914  1.00  0.00    -0.334 N 
HETATM    5  H   UNL     1     -43.526 -49.775  11.827  1.00  0.00     0.170 HD
HETATM    6  H   UNL     1     -42.972 -51.889  12.151  1.00  0.00     0.164 HD
ENDROOT
BRANCH   1   7
HETATM    7  C   UNL     1     -42.396 -48.070  11.407  1.00  0.00     0.051 A 
HETATM    8  C   UNL     1     -42.403 -47.093  12.401  1.00  0.00     0.035 A 
HETATM    9  C   UNL     1     -42.172 -45.758  12.076  1.00  0.00     0.058 A 
HETATM   10  C   UNL     1     -41.941 -45.432  10.754  1.00  0.00     0.141 A 
HETATM   11  N   UNL     1     -41.941 -46.336   9.751  1.00  0.00    -0.345 N 
HETATM   12  C   UNL     1     -42.163 -47.630  10.104  1.00  0.00     0.119 A 
ATOM     13  HN  UNL     1     -41.784 -46.064   8.781  1.00  0.00     0.167 HD
BRANCH  10  14
HETATM   14  O   UNL     1     -41.663 -44.103  10.505  1.00  0.00    -0.341 OA
HETATM   15  C   UNL     1     -40.422 -43.674  11.051  1.00  0.00     0.211 C 
ENDBRANCH  10  14
ENDBRANCH   1   7
BRANCH   4  16
HETATM   16  C   UNL     1     -41.009 -52.690  12.145  1.00  0.00     0.227 C 
BRANCH  16  17
HETATM   17  C   UNL     1     -40.723 -52.997  13.616  1.00  0.00     0.237 C 
HETATM   18  O   UNL     1     -39.667 -52.666  14.154  1.00  0.00    -0.272 OA
HETATM   19  N   UNL     1     -41.720 -53.690  14.278  1.00  0.00    -0.351 N 
HETATM   20  C   UNL     1     -43.000 -54.114  13.727  1.00  0.00     0.126 C 
HETATM   21  C   UNL     1     -41.608 -54.077  15.667  1.00  0.00     0.126 C 
HETATM   22  C   UNL     1     -43.579 -55.089  14.749  1.00  0.00     0.021 C 
HETATM   23  C   UNL     1     -42.448 -55.339  15.744  1.00  0.00     0.021 C 
ENDBRANCH  16  17
ENDBRANCH   4  16
TORSDOF 4
ENDMDL
MODEL 7
REMARK VINA RESULT:      -5.4      3.064      3.340
REMARK  4 active torsions:
REMARK  status: ('A' for Active; 'I' for Inactive)
REMARK    1  A    between atoms: O_2  and  C_3 
REMARK    2  A    between atoms: C_6  and  N_7 
REMARK       I    between atoms: N_7  and  C_8 
REMARK       I    between atoms: C_8  and  N_10 
REMARK    3  A    between atoms: N_10  and  C_11 
REMARK    4  A    between atoms: C_11  and  C_12 
REMARK       I    between atoms: C_12  and  N_14 
ROOT
HETATM    1  N   UNL     1     -41.429 -51.097  11.899  1.00  0.00    -0.308 N 
HETATM    2  C   UNL     1     -42.140 -52.055  12.578  1.00  0.00     0.321 C 
HETATM    3  O   UNL     1     -42.017 -52.337  13.765  1.00  0.00    -0.247 OA
HETATM    4  N   UNL     1     -43.041 -52.734  11.794  1.00  0.00    -0.334 N 
HETATM    5  H   UNL     1     -41.747 -50.856  10.971  1.00  0.00     0.170 HD
HETATM    6  H   UNL     1     -43.355 -52.371  10.903  1.00  0.00     0.164 HD
ENDROOT
BRANCH   1   7
HETATM    7  C   UNL     1     -40.346 -50.352  12.435  1.00  0.00     0.051 A 
HETATM    8  C   UNL     1     -39.009 -50.686  12.231  1.00  0.00     0.035 A 
HETATM    9  C   UNL     1     -37.997 -49.883  12.754  1.00  0.00     0.058 A 
HETATM   10  C   UNL     1     -38.352 -48.761  13.477  1.00  0.00     0.141 A 
HETATM   11  N   UNL     1     -39.632 -48.403  13.718  1.00  0.00    -0.345 N 
HETATM   12  C   UNL     1     -40.593 -49.203  13.187  1.00  0.00     0.119 A 
ATOM     13  HN  UNL     1     -39.864 -47.577  14.269  1.00  0.00     0.167 HD
BRANCH  10  14
HETATM   14  O   UNL     1     -37.306 -47.978  13.919  1.00  0.00    -0.341 OA
HETATM   15  C   UNL     1     -37.261 -47.841  15.334  1.00  0.00     0.211 C 
ENDBRANCH  10  14
ENDBRANCH   1   7
BRANCH   4  16
HETATM   16  C   UNL     1     -43.883 -53.714  12.456  1.00  0.00     0.227 C 
BRANCH  16  17
HETATM   17  C   UNL     1     -45.291 -53.229  12.805  1.00  0.00     0.237 C 
HETATM   18  O   UNL     1     -46.044 -52.758  11.953  1.00  0.00    -0.272 OA
HETATM   19  N   UNL     1     -45.637 -53.336  14.140  1.00  0.00    -0.351 N 
HETATM   20  C   UNL     1     -44.817 -53.885  15.212  1.00  0.00     0.126 C 
HETATM   21  C   UNL     1     -46.923 -52.908  14.647  1.00  0.00     0.126 C 
HETATM   22  C   UNL     1     -45.522 -53.488  16.506  1.00  0.00     0.021 C 
HETATM   23  C   UNL     1     -46.615 -52.511  16.079  1.00  0.00     0.021 C 
ENDBRANCH  16  17
ENDBRANCH   4  16
TORSDOF 4
ENDMDL
MODEL 8
REMARK VINA RESULT:      -5.4      3.351      7.513
REMARK  4 active torsions:
REMARK  status: ('A' for Active; 'I' for Inactive)
REMARK    1  A    between atoms: O_2  and  C_3 
REMARK    2  A    between atoms: C_6  and  N_7 
REMARK       I    between atoms: N_7  and  C_8 
REMARK       I    between atoms: C_8  and  N_10 
REMARK    3  A    between atoms: N_10  and  C_11 
REMARK    4  A    between atoms: C_11  and  C_12 
REMARK       I    between atoms: C_12  and  N_14 
ROOT
HETATM    1  N   UNL     1     -40.855 -50.686  11.389  1.00  0.00    -0.308 N 
HETATM    2  C   UNL     1     -41.657 -49.632  11.750  1.00  0.00     0.321 C 
HETATM    3  O   UNL     1     -42.062 -49.390  12.882  1.00  0.00    -0.247 OA
HETATM    4  N   UNL     1     -42.016 -48.825  10.698  1.00  0.00    -0.334 N 
HETATM    5  H   UNL     1     -40.463 -50.670  10.458  1.00  0.00     0.170 HD
HETATM    6  H   UNL     1     -41.511 -48.832   9.822  1.00  0.00     0.164 HD
ENDROOT
BRANCH   1   7
HETATM    7  C   UNL     1     -40.456 -51.740  12.251  1.00  0.00     0.051 A 
HETATM    8  C   UNL     1     -41.053 -52.999  12.251  1.00  0.00     0.035 A 
HETATM    9  C   UNL     1     -40.582 -54.001  13.098  1.00  0.00     0.058 A 
HETATM   10  C   UNL     1     -39.518 -53.712  13.931  1.00  0.00     0.141 A 
HETATM   11  N   UNL     1     -38.915 -52.505  13.982  1.00  0.00    -0.345 N 
HETATM   12  C   UNL     1     -39.396 -51.554  13.138  1.00  0.00     0.119 A 
ATOM     13  HN  UNL     1     -38.142 -52.316  14.619  1.00  0.00     0.167 HD
BRANCH  10  14
HETATM   14  O   UNL     1     -39.061 -54.761  14.703  1.00  0.00    -0.341 OA
HETATM   15  C   UNL     1     -39.310 -54.591  16.092  1.00  0.00     0.211 C 
ENDBRANCH  10  14
ENDBRANCH   1   7
BRANCH   4  16
HETATM   16  C   UNL     1     -42.806 -47.646  11.011  1.00  0.00     0.227 C 
BRANCH  16  17
HETATM   17  C   UNL     1     -42.220 -46.323  10.516  1.00  0.00     0.237 C 
HETATM   18  O   UNL     1     -42.428 -45.909   9.376  1.00  0.00    -0.272 OA
HETATM   19  N   UNL     1     -41.426 -45.652  11.429  1.00  0.00    -0.351 N 
HETATM   20  C   UNL     1     -41.132 -46.062  12.795  1.00  0.00     0.126 C 
HETATM   21  C   UNL     1     -40.779 -44.396  11.121  1.00  0.00     0.126 C 
HETATM   22  C   UNL     1     -39.987 -45.161  13.252  1.00  0.00     0.021 C 
HETATM   23  C   UNL     1     -39.537 -44.423  11.994  1.00  0.00     0.021 C 
ENDBRANCH  16  17
ENDBRANCH   4  16
TORSDOF 4
ENDMDL
MODEL 9
REMARK VINA RESULT:      -5.2     19.055     20.823
REMARK  4 active torsions:
REMARK  status: ('A' for Active; 'I' for Inactive)
REMARK    1  A    between atoms: O_2  and  C_3 
REMARK    2  A    between atoms: C_6  and  N_7 
REMARK       I    between atoms: N_7  and  C_8 
REMARK       I    between atoms: C_8  and  N_10 
REMARK    3  A    between atoms: N_10  and  C_11 
REMARK    4  A    between atoms: C_11  and  C_12 
REMARK       I    between atoms: C_12  and  N_14 
ROOT
HETATM    1  N   UNL     1     -32.943 -48.908  -3.972  1.00  0.00    -0.308 N 
HETATM    2  C   UNL     1     -32.364 -49.543  -5.043  1.00  0.00     0.321 C 
HETATM    3  O   UNL     1     -32.011 -49.012  -6.090  1.00  0.00    -0.247 OA
HETATM    4  N   UNL     1     -32.213 -50.897  -4.867  1.00  0.00    -0.334 N 
HETATM    5  H   UNL     1     -33.030 -49.435  -3.115  1.00  0.00     0.170 HD
HETATM    6  H   UNL     1     -32.246 -51.324  -3.950  1.00  0.00     0.164 HD
ENDROOT
BRANCH   1   7
HETATM    7  C   UNL     1     -33.336 -47.545  -3.948  1.00  0.00     0.051 A 
HETATM    8  C   UNL     1     -34.630 -47.113  -4.231  1.00  0.00     0.035 A 
HETATM    9  C   UNL     1     -34.954 -45.760  -4.147  1.00  0.00     0.058 A 
HETATM   10  C   UNL     1     -33.965 -44.867  -3.781  1.00  0.00     0.141 A 
HETATM   11  N   UNL     1     -32.693 -45.231  -3.513  1.00  0.00    -0.345 N 
HETATM   12  C   UNL     1     -32.414 -46.558  -3.598  1.00  0.00     0.119 A 
ATOM     13  HN  UNL     1     -31.980 -44.546  -3.261  1.00  0.00     0.167 HD
BRANCH  10  14
HETATM   14  O   UNL     1     -34.363 -43.551  -3.660  1.00  0.00    -0.341 OA
HETATM   15  C   UNL     1     -35.674 -43.309  -4.156  1.00  0.00     0.211 C 
ENDBRANCH  10  14
ENDBRANCH   1   7
BRANCH   4  16
HETATM   16  C   UNL     1     -31.542 -51.629  -5.927  1.00  0.00     0.227 C 
BRANCH  16  17
HETATM   17  C   UNL     1     -30.039 -51.831  -5.724  1.00  0.00     0.237 C 
HETATM   18  O   UNL     1     -29.230 -50.927  -5.933  1.00  0.00    -0.272 OA
HETATM   19  N   UNL     1     -29.665 -53.099  -5.320  1.00  0.00    -0.351 N 
HETATM   20  C   UNL     1     -30.550 -54.223  -5.044  1.00  0.00     0.126 C 
HETATM   21  C   UNL     1     -28.284 -53.469  -5.099  1.00  0.00     0.126 C 
HETATM   22  C   UNL     1     -29.638 -55.444  -4.945  1.00  0.00     0.021 C 
HETATM   23  C   UNL     1     -28.269 -54.954  -5.411  1.00  0.00     0.021 C 
ENDBRANCH  16  17
ENDBRANCH   4  16
TORSDOF 4
ENDMDL
