MODEL 1
REMARK VINA RESULT:      -6.1      0.000      0.000
REMARK  6 active torsions:
REMARK  status: ('A' for Active; 'I' for Inactive)
REMARK    1  A    between atoms: C_2  and  N_3 
REMARK    2  A    between atoms: C_2  and  C_12 
REMARK    3  A    between atoms: N_3  and  C_4 
REMARK    4  A    between atoms: C_4  and  C_5 
REMARK    5  A    between atoms: C_5  and  N_6 
REMARK       I    between atoms: C_12  and  N_14 
REMARK    6  A    between atoms: N_14  and  C_16 
ROOT
HETATM    1  C   UNL     1     -40.084 -51.846  13.580  1.00  0.00     0.053 C 
HETATM    2  C   UNL     1     -41.316 -51.406  12.777  1.00  0.00     0.307 C 
ENDROOT
BRANCH   2   3
HETATM    3  N   UNL     1     -40.965 -51.123  11.358  1.00  0.00     0.098 N 
HETATM    4  H   UNL     1     -41.811 -51.223  10.795  1.00  0.00     0.317 HD
BRANCH   3   5
HETATM    5  C   UNL     1     -40.418 -49.770  11.155  1.00  0.00     0.292 C 
BRANCH   5   6
HETATM    6  C   UNL     1     -41.312 -48.717  11.808  1.00  0.00     0.178 C 
BRANCH   6   7
HETATM    7  N   UNL     1     -42.263 -48.180  10.853  1.00  0.00    -0.302 N 
HETATM    8  C   UNL     1     -43.484 -47.636  11.128  1.00  0.00     0.111 A 
HETATM    9  C   UNL     1     -44.027 -47.292   9.913  1.00  0.00     0.037 A 
HETATM   10  C   UNL     1     -43.057 -47.672   8.968  1.00  0.00     0.108 A 
HETATM   11  N   UNL     1     -41.978 -48.214   9.537  1.00  0.00    -0.310 N 
ATOM     12  HN  UNL     1     -41.137 -48.571   9.082  1.00  0.00     0.186 HD
ENDBRANCH   6   7
ENDBRANCH   5   6
ENDBRANCH   3   5
ENDBRANCH   2   3
BRANCH   2  13
HETATM   13  C   UNL     1     -42.479 -52.440  12.882  1.00  0.00     0.252 C 
HETATM   14  O   UNL     1     -42.216 -53.631  12.693  1.00  0.00    -0.271 OA
HETATM   15  N   UNL     1     -43.777 -51.976  13.168  1.00  0.00    -0.350 N 
HETATM   16  C   UNL     1     -44.028 -50.539  13.318  1.00  0.00     0.153 C 
BRANCH  15  17
HETATM   17  C   UNL     1     -44.982 -52.816  12.863  1.00  0.00     0.086 C 
HETATM   18  C   UNL     1     -46.287 -51.986  12.776  1.00  0.00     0.025 C 
HETATM   19  C   UNL     1     -46.695 -51.463  14.155  1.00  0.00     0.002 C 
HETATM   20  C   UNL     1     -46.936 -52.615  15.125  1.00  0.00     0.000 C 
HETATM   21  C   UNL     1     -45.746 -53.572  15.186  1.00  0.00     0.002 C 
HETATM   22  C   UNL     1     -45.301 -54.010  13.792  1.00  0.00     0.025 C 
ENDBRANCH  15  17
ENDBRANCH   2  13
TORSDOF 6
ENDMDL
MODEL 2
REMARK VINA RESULT:      -5.6      2.021      3.248
REMARK  6 active torsions:
REMARK  status: ('A' for Active; 'I' for Inactive)
REMARK    1  A    between atoms: C_2  and  N_3 
REMARK    2  A    between atoms: C_2  and  C_12 
REMARK    3  A    between atoms: N_3  and  C_4 
REMARK    4  A    between atoms: C_4  and  C_5 
REMARK    5  A    between atoms: C_5  and  N_6 
REMARK       I    between atoms: C_12  and  N_14 
REMARK    6  A    between atoms: N_14  and  C_16 
ROOT
HETATM    1  C   UNL     1     -41.282 -48.188  12.749  1.00  0.00     0.053 C 
HETATM    2  C   UNL     1     -42.359 -49.117  12.174  1.00  0.00     0.307 C 
ENDROOT
BRANCH   2   3
HETATM    3  N   UNL     1     -42.767 -48.693  10.805  1.00  0.00     0.098 N 
HETATM    4  H   UNL     1     -43.656 -49.145  10.584  1.00  0.00     0.317 HD
BRANCH   3   5
HETATM    5  C   UNL     1     -42.931 -47.234  10.676  1.00  0.00     0.292 C 
BRANCH   5   6
HETATM    6  C   UNL     1     -43.327 -46.855   9.249  1.00  0.00     0.178 C 
BRANCH   6   7
HETATM    7  N   UNL     1     -44.620 -47.414   8.904  1.00  0.00    -0.302 N 
HETATM    8  C   UNL     1     -45.803 -47.207   9.552  1.00  0.00     0.111 A 
HETATM    9  C   UNL     1     -46.738 -47.959   8.880  1.00  0.00     0.037 A 
HETATM   10  C   UNL     1     -46.018 -48.584   7.846  1.00  0.00     0.108 A 
HETATM   11  N   UNL     1     -44.724 -48.254   7.856  1.00  0.00    -0.310 N 
ATOM     12  HN  UNL     1     -43.989 -48.565   7.221  1.00  0.00     0.186 HD
ENDBRANCH   6   7
ENDBRANCH   5   6
ENDBRANCH   3   5
ENDBRANCH   2   3
BRANCH   2  13
HETATM   13  C   UNL     1     -41.912 -50.612  12.198  1.00  0.00     0.252 C 
HETATM   14  O   UNL     1     -40.816 -50.898  11.707  1.00  0.00    -0.271 OA
HETATM   15  N   UNL     1     -42.776 -51.571  12.757  1.00  0.00    -0.350 N 
HETATM   16  C   UNL     1     -44.092 -51.168  13.265  1.00  0.00     0.153 C 
BRANCH  15  17
HETATM   17  C   UNL     1     -42.624 -53.029  12.437  1.00  0.00     0.086 C 
HETATM   18  C   UNL     1     -43.839 -53.875  12.894  1.00  0.00     0.025 C 
HETATM   19  C   UNL     1     -43.900 -53.964  14.420  1.00  0.00     0.002 C 
HETATM   20  C   UNL     1     -42.639 -54.616  14.977  1.00  0.00     0.000 C 
HETATM   21  C   UNL     1     -41.369 -53.928  14.479  1.00  0.00     0.002 C 
HETATM   22  C   UNL     1     -41.372 -53.771  12.959  1.00  0.00     0.025 C 
ENDBRANCH  15  17
ENDBRANCH   2  13
TORSDOF 6
ENDMDL
MODEL 3
REMARK VINA RESULT:      -5.6      1.884      3.468
REMARK  6 active torsions:
REMARK  status: ('A' for Active; 'I' for Inactive)
REMARK    1  A    between atoms: C_2  and  N_3 
REMARK    2  A    between atoms: C_2  and  C_12 
REMARK    3  A    between atoms: N_3  and  C_4 
REMARK    4  A    between atoms: C_4  and  C_5 
REMARK    5  A    between atoms: C_5  and  N_6 
REMARK       I    between atoms: C_12  and  N_14 
REMARK    6  A    between atoms: N_14  and  C_16 
ROOT
HETATM    1  C   UNL     1     -42.655 -48.657  14.162  1.00  0.00     0.053 C 
HETATM    2  C   UNL     1     -43.413 -49.477  13.110  1.00  0.00     0.307 C 
ENDROOT
BRANCH   2   3
HETATM    3  N   UNL     1     -43.374 -48.815  11.776  1.00  0.00     0.098 N 
HETATM    4  H   UNL     1     -44.292 -48.405  11.598  1.00  0.00     0.317 HD
BRANCH   3   5
HETATM    5  C   UNL     1     -42.354 -47.755  11.684  1.00  0.00     0.292 C 
BRANCH   5   6
HETATM    6  C   UNL     1     -41.275 -48.124  10.668  1.00  0.00     0.178 C 
BRANCH   6   7
HETATM    7  N   UNL     1     -40.108 -48.678  11.328  1.00  0.00    -0.302 N 
HETATM    8  C   UNL     1     -39.421 -48.133  12.374  1.00  0.00     0.111 A 
HETATM    9  C   UNL     1     -38.386 -48.999  12.638  1.00  0.00     0.037 A 
HETATM   10  C   UNL     1     -38.535 -50.031  11.696  1.00  0.00     0.108 A 
HETATM   11  N   UNL     1     -39.585 -49.840  10.893  1.00  0.00    -0.310 N 
ATOM     12  HN  UNL     1     -39.913 -50.435  10.132  1.00  0.00     0.186 HD
ENDBRANCH   6   7
ENDBRANCH   5   6
ENDBRANCH   3   5
ENDBRANCH   2   3
BRANCH   2  13
HETATM   13  C   UNL     1     -42.895 -50.947  13.034  1.00  0.00     0.252 C 
HETATM   14  O   UNL     1     -41.696 -51.129  12.805  1.00  0.00    -0.271 OA
HETATM   15  N   UNL     1     -43.812 -52.000  13.209  1.00  0.00    -0.350 N 
HETATM   16  C   UNL     1     -45.235 -51.710  13.414  1.00  0.00     0.153 C 
BRANCH  15  17
HETATM   17  C   UNL     1     -43.496 -53.387  12.732  1.00  0.00     0.086 C 
HETATM   18  C   UNL     1     -44.564 -54.426  13.154  1.00  0.00     0.025 C 
HETATM   19  C   UNL     1     -44.523 -54.670  14.664  1.00  0.00     0.002 C 
HETATM   20  C   UNL     1     -43.159 -55.201  15.093  1.00  0.00     0.000 C 
HETATM   21  C   UNL     1     -42.018 -54.306  14.610  1.00  0.00     0.002 C 
HETATM   22  C   UNL     1     -42.131 -54.004  13.116  1.00  0.00     0.025 C 
ENDBRANCH  15  17
ENDBRANCH   2  13
TORSDOF 6
ENDMDL
MODEL 4
REMARK VINA RESULT:      -5.6      2.821      3.612
REMARK  6 active torsions:
REMARK  status: ('A' for Active; 'I' for Inactive)
REMARK    1  A    between atoms: C_2  and  N_3 
REMARK    2  A    between atoms: C_2  and  C_12 
REMARK    3  A    between atoms: N_3  and  C_4 
REMARK    4  A    between atoms: C_4  and  C_5 
REMARK    5  A    between atoms: C_5  and  N_6 
REMARK       I    between atoms: C_12  and  N_14 
REMARK    6  A    between atoms: N_14  and  C_16 
ROOT
HETATM    1  C   UNL     1     -38.820 -48.829  13.701  1.00  0.00     0.053 C 
HETATM    2  C   UNL     1     -39.780 -49.650  12.830  1.00  0.00     0.307 C 
ENDROOT
BRANCH   2   3
HETATM    3  N   UNL     1     -39.732 -49.209  11.408  1.00  0.00     0.098 N 
HETATM    4  H   UNL     1     -39.283 -49.947  10.862  1.00  0.00     0.317 HD
BRANCH   3   5
HETATM    5  C   UNL     1     -41.064 -48.941  10.839  1.00  0.00     0.292 C 
BRANCH   5   6
HETATM    6  C   UNL     1     -41.345 -47.440  10.794  1.00  0.00     0.178 C 
BRANCH   6   7
HETATM    7  N   UNL     1     -42.403 -47.138   9.849  1.00  0.00    -0.302 N 
HETATM    8  C   UNL     1     -43.122 -45.981   9.763  1.00  0.00     0.111 A 
HETATM    9  C   UNL     1     -44.022 -46.170   8.740  1.00  0.00     0.037 A 
HETATM   10  C   UNL     1     -43.766 -47.473   8.276  1.00  0.00     0.108 A 
HETATM   11  N   UNL     1     -42.779 -48.068   8.950  1.00  0.00    -0.310 N 
ATOM     12  HN  UNL     1     -42.400 -49.006   8.815  1.00  0.00     0.186 HD
ENDBRANCH   6   7
ENDBRANCH   5   6
ENDBRANCH   3   5
ENDBRANCH   2   3
BRANCH   2  13
HETATM   13  C   UNL     1     -39.519 -51.183  12.963  1.00  0.00     0.252 C 
HETATM   14  O   UNL     1     -38.395 -51.607  12.683  1.00  0.00    -0.271 OA
HETATM   15  N   UNL     1     -40.574 -52.018  13.375  1.00  0.00    -0.350 N 
HETATM   16  C   UNL     1     -41.903 -51.452  13.630  1.00  0.00     0.153 C 
BRANCH  15  17
HETATM   17  C   UNL     1     -40.538 -53.495  13.114  1.00  0.00     0.086 C 
HETATM   18  C   UNL     1     -41.912 -54.177  13.328  1.00  0.00     0.025 C 
HETATM   19  C   UNL     1     -42.286 -54.199  14.811  1.00  0.00     0.002 C 
HETATM   20  C   UNL     1     -41.249 -54.969  15.623  1.00  0.00     0.000 C 
HETATM   21  C   UNL     1     -39.832 -54.451  15.381  1.00  0.00     0.002 C 
HETATM   22  C   UNL     1     -39.513 -54.354  13.890  1.00  0.00     0.025 C 
ENDBRANCH  15  17
ENDBRANCH   2  13
TORSDOF 6
ENDMDL
MODEL 5
REMARK VINA RESULT:      -5.5      1.835      2.102
REMARK  6 active torsions:
REMARK  status: ('A' for Active; 'I' for Inactive)
REMARK    1  A    between atoms: C_2  and  N_3 
REMARK    2  A    between atoms: C_2  and  C_12 
REMARK    3  A    between atoms: N_3  and  C_4 
REMARK    4  A    between atoms: C_4  and  C_5 
REMARK    5  A    between atoms: C_5  and  N_6 
REMARK       I    between atoms: C_12  and  N_14 
REMARK    6  A    between atoms: N_14  and  C_16 
ROOT
HETATM    1  C   UNL     1     -40.209 -52.431  13.791  1.00  0.00     0.053 C 
HETATM    2  C   UNL     1     -41.330 -51.795  12.959  1.00  0.00     0.307 C 
ENDROOT
BRANCH   2   3
HETATM    3  N   UNL     1     -40.886 -51.532  11.562  1.00  0.00     0.098 N 
HETATM    4  H   UNL     1     -41.532 -52.006  10.929  1.00  0.00     0.317 HD
BRANCH   3   5
HETATM    5  C   UNL     1     -40.857 -50.098  11.224  1.00  0.00     0.292 C 
BRANCH   5   6
HETATM    6  C   UNL     1     -39.497 -49.487  11.558  1.00  0.00     0.178 C 
BRANCH   6   7
HETATM    7  N   UNL     1     -39.628 -48.082  11.893  1.00  0.00    -0.302 N 
HETATM    8  C   UNL     1     -39.609 -47.531  13.142  1.00  0.00     0.111 A 
HETATM    9  C   UNL     1     -39.793 -46.180  12.962  1.00  0.00     0.037 A 
HETATM   10  C   UNL     1     -39.915 -46.019  11.570  1.00  0.00     0.108 A 
HETATM   11  N   UNL     1     -39.815 -47.177  10.913  1.00  0.00    -0.310 N 
ATOM     12  HN  UNL     1     -39.868 -47.338   9.907  1.00  0.00     0.186 HD
ENDBRANCH   6   7
ENDBRANCH   5   6
ENDBRANCH   3   5
ENDBRANCH   2   3
BRANCH   2  13
HETATM   13  C   UNL     1     -42.635 -52.650  12.993  1.00  0.00     0.252 C 
HETATM   14  O   UNL     1     -42.535 -53.868  12.827  1.00  0.00    -0.271 OA
HETATM   15  N   UNL     1     -43.868 -52.000  13.189  1.00  0.00    -0.350 N 
HETATM   16  C   UNL     1     -43.918 -50.539  13.315  1.00  0.00     0.153 C 
BRANCH  15  17
HETATM   17  C   UNL     1     -45.160 -52.662  12.809  1.00  0.00     0.086 C 
HETATM   18  C   UNL     1     -46.377 -51.709  12.912  1.00  0.00     0.025 C 
HETATM   19  C   UNL     1     -46.691 -51.379  14.372  1.00  0.00     0.002 C 
HETATM   20  C   UNL     1     -47.019 -52.644  15.158  1.00  0.00     0.000 C 
HETATM   21  C   UNL     1     -45.929 -53.706  15.016  1.00  0.00     0.002 C 
HETATM   22  C   UNL     1     -45.570 -53.955  13.552  1.00  0.00     0.025 C 
ENDBRANCH  15  17
ENDBRANCH   2  13
TORSDOF 6
ENDMDL
MODEL 6
REMARK VINA RESULT:      -5.4      2.233      3.205
REMARK  6 active torsions:
REMARK  status: ('A' for Active; 'I' for Inactive)
REMARK    1  A    between atoms: C_2  and  N_3 
REMARK    2  A    between atoms: C_2  and  C_12 
REMARK    3  A    between atoms: N_3  and  C_4 
REMARK    4  A    between atoms: C_4  and  C_5 
REMARK    5  A    between atoms: C_5  and  N_6 
REMARK       I    between atoms: C_12  and  N_14 
REMARK    6  A    between atoms: N_14  and  C_16 
ROOT
HETATM    1  C   UNL     1     -41.434 -48.552  13.262  1.00  0.00     0.053 C 
HETATM    2  C   UNL     1     -42.402 -49.376  12.402  1.00  0.00     0.307 C 
ENDROOT
BRANCH   2   3
HETATM    3  N   UNL     1     -42.497 -48.832  11.019  1.00  0.00     0.098 N 
HETATM    4  H   UNL     1     -42.917 -49.548  10.424  1.00  0.00     0.317 HD
BRANCH   3   5
HETATM    5  C   UNL     1     -43.310 -47.606  10.933  1.00  0.00     0.292 C 
BRANCH   5   6
HETATM    6  C   UNL     1     -42.783 -46.677   9.840  1.00  0.00     0.178 C 
BRANCH   6   7
HETATM    7  N   UNL     1     -41.732 -45.819  10.352  1.00  0.00    -0.302 N 
HETATM    8  C   UNL     1     -41.888 -44.644  11.028  1.00  0.00     0.111 A 
HETATM    9  C   UNL     1     -40.618 -44.183  11.284  1.00  0.00     0.037 A 
HETATM   10  C   UNL     1     -39.767 -45.149  10.719  1.00  0.00     0.108 A 
HETATM   11  N   UNL     1     -40.442 -46.151  10.149  1.00  0.00    -0.310 N 
ATOM     12  HN  UNL     1     -40.069 -46.972   9.673  1.00  0.00     0.186 HD
ENDBRANCH   6   7
ENDBRANCH   5   6
ENDBRANCH   3   5
ENDBRANCH   2   3
BRANCH   2  13
HETATM   13  C   UNL     1     -42.028 -50.891  12.395  1.00  0.00     0.252 C 
HETATM   14  O   UNL     1     -40.927 -51.215  11.941  1.00  0.00    -0.271 OA
HETATM   15  N   UNL     1     -42.961 -51.824  12.885  1.00  0.00    -0.350 N 
HETATM   16  C   UNL     1     -44.276 -51.373  13.351  1.00  0.00     0.153 C 
BRANCH  15  17
HETATM   17  C   UNL     1     -42.865 -53.277  12.522  1.00  0.00     0.086 C 
HETATM   18  C   UNL     1     -44.160 -54.063  12.844  1.00  0.00     0.025 C 
HETATM   19  C   UNL     1     -44.355 -54.200  14.355  1.00  0.00     0.002 C 
HETATM   20  C   UNL     1     -43.185 -54.945  14.990  1.00  0.00     0.000 C 
HETATM   21  C   UNL     1     -41.840 -54.317  14.625  1.00  0.00     0.002 C 
HETATM   22  C   UNL     1     -41.705 -54.109  13.117  1.00  0.00     0.025 C 
ENDBRANCH  15  17
ENDBRANCH   2  13
TORSDOF 6
ENDMDL
MODEL 7
REMARK VINA RESULT:      -5.3      2.298      6.069
REMARK  6 active torsions:
REMARK  status: ('A' for Active; 'I' for Inactive)
REMARK    1  A    between atoms: C_2  and  N_3 
REMARK    2  A    between atoms: C_2  and  C_12 
REMARK    3  A    between atoms: N_3  and  C_4 
REMARK    4  A    between atoms: C_4  and  C_5 
REMARK    5  A    between atoms: C_5  and  N_6 
REMARK       I    between atoms: C_12  and  N_14 
REMARK    6  A    between atoms: N_14  and  C_16 
ROOT
HETATM    1  C   UNL     1     -42.624 -52.517  15.552  1.00  0.00     0.053 C 
HETATM    2  C   UNL     1     -41.860 -53.006  14.315  1.00  0.00     0.307 C 
ENDROOT
BRANCH   2   3
HETATM    3  N   UNL     1     -42.469 -54.244  13.756  1.00  0.00     0.098 N 
HETATM    4  H   UNL     1     -41.808 -55.012  13.888  1.00  0.00     0.317 HD
BRANCH   3   5
HETATM    5  C   UNL     1     -43.746 -54.604  14.398  1.00  0.00     0.292 C 
BRANCH   5   6
HETATM    6  C   UNL     1     -44.892 -54.573  13.387  1.00  0.00     0.178 C 
BRANCH   6   7
HETATM    7  N   UNL     1     -45.570 -53.291  13.411  1.00  0.00    -0.302 N 
HETATM    8  C   UNL     1     -46.178 -52.704  14.482  1.00  0.00     0.111 A 
HETATM    9  C   UNL     1     -46.699 -51.519  14.019  1.00  0.00     0.037 A 
HETATM   10  C   UNL     1     -46.354 -51.486  12.656  1.00  0.00     0.108 A 
HETATM   11  N   UNL     1     -45.664 -52.565  12.280  1.00  0.00    -0.310 N 
ATOM     12  HN  UNL     1     -45.296 -52.787  11.355  1.00  0.00     0.186 HD
ENDBRANCH   6   7
ENDBRANCH   5   6
ENDBRANCH   3   5
ENDBRANCH   2   3
BRANCH   2  13
HETATM   13  C   UNL     1     -41.736 -51.890  13.230  1.00  0.00     0.252 C 
HETATM   14  O   UNL     1     -42.733 -51.624  12.554  1.00  0.00    -0.271 OA
HETATM   15  N   UNL     1     -40.495 -51.250  13.054  1.00  0.00    -0.350 N 
HETATM   16  C   UNL     1     -39.335 -51.662  13.851  1.00  0.00     0.153 C 
BRANCH  15  17
HETATM   17  C   UNL     1     -40.182 -50.508  11.789  1.00  0.00     0.086 C 
HETATM   18  C   UNL     1     -38.737 -49.950  11.761  1.00  0.00     0.025 C 
HETATM   19  C   UNL     1     -38.574 -48.805  12.763  1.00  0.00     0.002 C 
HETATM   20  C   UNL     1     -39.525 -47.658  12.439  1.00  0.00     0.000 C 
HETATM   21  C   UNL     1     -40.973 -48.131  12.316  1.00  0.00     0.002 C 
HETATM   22  C   UNL     1     -41.098 -49.331  11.379  1.00  0.00     0.025 C 
ENDBRANCH  15  17
ENDBRANCH   2  13
TORSDOF 6
ENDMDL
MODEL 8
REMARK VINA RESULT:      -4.9      3.443      7.086
REMARK  6 active torsions:
REMARK  status: ('A' for Active; 'I' for Inactive)
REMARK    1  A    between atoms: C_2  and  N_3 
REMARK    2  A    between atoms: C_2  and  C_12 
REMARK    3  A    between atoms: N_3  and  C_4 
REMARK    4  A    between atoms: C_4  and  C_5 
REMARK    5  A    between atoms: C_5  and  N_6 
REMARK       I    between atoms: C_12  and  N_14 
REMARK    6  A    between atoms: N_14  and  C_16 
ROOT
HETATM    1  C   UNL     1     -43.468 -47.453   9.090  1.00  0.00     0.053 C 
HETATM    2  C   UNL     1     -42.481 -47.495  10.264  1.00  0.00     0.307 C 
ENDROOT
BRANCH   2   3
HETATM    3  N   UNL     1     -41.370 -48.451  10.004  1.00  0.00     0.098 N 
HETATM    4  H   UNL     1     -40.606 -47.937   9.561  1.00  0.00     0.317 HD
BRANCH   3   5
HETATM    5  C   UNL     1     -40.860 -49.095  11.228  1.00  0.00     0.292 C 
BRANCH   5   6
HETATM    6  C   UNL     1     -41.992 -49.777  11.996  1.00  0.00     0.178 C 
BRANCH   6   7
HETATM    7  N   UNL     1     -41.613 -51.119  12.395  1.00  0.00    -0.302 N 
HETATM    8  C   UNL     1     -41.609 -51.628  13.661  1.00  0.00     0.111 A 
HETATM    9  C   UNL     1     -41.154 -52.921  13.547  1.00  0.00     0.037 A 
HETATM   10  C   UNL     1     -40.907 -53.093  12.173  1.00  0.00     0.108 A 
HETATM   11  N   UNL     1     -41.186 -51.995  11.465  1.00  0.00    -0.310 N 
ATOM     12  HN  UNL     1     -41.097 -51.855  10.459  1.00  0.00     0.186 HD
ENDBRANCH   6   7
ENDBRANCH   5   6
ENDBRANCH   3   5
ENDBRANCH   2   3
BRANCH   2  13
HETATM   13  C   UNL     1     -41.942 -46.075  10.622  1.00  0.00     0.252 C 
HETATM   14  O   UNL     1     -41.337 -45.447   9.748  1.00  0.00    -0.271 OA
HETATM   15  N   UNL     1     -42.148 -45.577  11.922  1.00  0.00    -0.350 N 
HETATM   16  C   UNL     1     -42.820 -46.405  12.929  1.00  0.00     0.153 C 
BRANCH  15  17
HETATM   17  C   UNL     1     -41.313 -44.453  12.461  1.00  0.00     0.086 C 
HETATM   18  C   UNL     1     -39.792 -44.704  12.302  1.00  0.00     0.025 C 
HETATM   19  C   UNL     1     -39.323 -45.826  13.231  1.00  0.00     0.002 C 
HETATM   20  C   UNL     1     -39.590 -45.470  14.690  1.00  0.00     0.000 C 
HETATM   21  C   UNL     1     -41.048 -45.080  14.929  1.00  0.00     0.002 C 
HETATM   22  C   UNL     1     -41.519 -44.023  13.931  1.00  0.00     0.025 C 
ENDBRANCH  15  17
ENDBRANCH   2  13
TORSDOF 6
ENDMDL
MODEL 9
REMARK VINA RESULT:      -4.8      2.993      6.720
REMARK  6 active torsions:
REMARK  status: ('A' for Active; 'I' for Inactive)
REMARK    1  A    between atoms: C_2  and  N_3 
REMARK    2  A    between atoms: C_2  and  C_12 
REMARK    3  A    between atoms: N_3  and  C_4 
REMARK    4  A    between atoms: C_4  and  C_5 
REMARK    5  A    between atoms: C_5  and  N_6 
REMARK       I    between atoms: C_12  and  N_14 
REMARK    6  A    between atoms: N_14  and  C_16 
ROOT
HETATM    1  C   UNL     1     -46.323 -51.481  12.910  1.00  0.00     0.053 C 
HETATM    2  C   UNL     1     -45.527 -52.594  13.605  1.00  0.00     0.307 C 
ENDROOT
BRANCH   2   3
HETATM    3  N   UNL     1     -46.397 -53.755  13.940  1.00  0.00     0.098 N 
HETATM    4  H   UNL     1     -46.092 -54.553  13.380  1.00  0.00     0.317 HD
BRANCH   3   5
HETATM    5  C   UNL     1     -46.342 -54.128  15.365  1.00  0.00     0.292 C 
BRANCH   5   6
HETATM    6  C   UNL     1     -45.691 -53.022  16.193  1.00  0.00     0.178 C 
BRANCH   6   7
HETATM    7  N   UNL     1     -46.686 -52.288  16.951  1.00  0.00    -0.302 N 
HETATM    8  C   UNL     1     -47.516 -51.310  16.485  1.00  0.00     0.111 A 
HETATM    9  C   UNL     1     -48.259 -50.896  17.566  1.00  0.00     0.037 A 
HETATM   10  C   UNL     1     -47.799 -51.684  18.636  1.00  0.00     0.108 A 
HETATM   11  N   UNL     1     -46.839 -52.535  18.266  1.00  0.00    -0.310 N 
ATOM     12  HN  UNL     1     -46.340 -53.212  18.844  1.00  0.00     0.186 HD
ENDBRANCH   6   7
ENDBRANCH   5   6
ENDBRANCH   3   5
ENDBRANCH   2   3
BRANCH   2  13
HETATM   13  C   UNL     1     -44.287 -53.032  12.766  1.00  0.00     0.252 C 
HETATM   14  O   UNL     1     -44.388 -54.043  12.066  1.00  0.00    -0.271 OA
HETATM   15  N   UNL     1     -43.104 -52.274  12.853  1.00  0.00    -0.350 N 
HETATM   16  C   UNL     1     -43.036 -51.119  13.755  1.00  0.00     0.153 C 
BRANCH  15  17
HETATM   17  C   UNL     1     -41.783 -52.852  12.440  1.00  0.00     0.086 C 
HETATM   18  C   UNL     1     -41.461 -54.188  13.156  1.00  0.00     0.025 C 
HETATM   19  C   UNL     1     -41.174 -53.957  14.641  1.00  0.00     0.002 C 
HETATM   20  C   UNL     1     -39.980 -53.026  14.826  1.00  0.00     0.000 C 
HETATM   21  C   UNL     1     -40.144 -51.721  14.049  1.00  0.00     0.002 C 
HETATM   22  C   UNL     1     -40.518 -51.976  12.589  1.00  0.00     0.025 C 
ENDBRANCH  15  17
ENDBRANCH   2  13
TORSDOF 6
ENDMDL
