MODEL 1
REMARK VINA RESULT:      -5.5      0.000      0.000
REMARK  3 active torsions:
REMARK  status: ('A' for Active; 'I' for Inactive)
REMARK    1  A    between atoms: O_1  and  C_2 
REMARK    2  A    between atoms: C_2  and  C_4 
REMARK    3  A    between atoms: C_4  and  C_5 
ROOT
HETATM    1  C   UNL     1     -42.168 -47.273  10.114  1.00  0.00     0.029 A 
HETATM    2  C   UNL     1     -42.627 -46.016  10.200  1.00  0.00     0.100 A 
HETATM    3  C   UNL     1     -43.608 -45.528   9.208  1.00  0.00     0.251 A 
HETATM    4  O   UNL     1     -44.063 -44.393   9.284  1.00  0.00    -0.268 OA
HETATM    5  N   UNL     1     -43.971 -46.416   8.240  1.00  0.00    -0.275 N 
HETATM    6  C   UNL     1     -43.518 -47.698   8.142  1.00  0.00     0.327 A 
HETATM    7  O   UNL     1     -43.889 -48.459   7.255  1.00  0.00    -0.247 OA
HETATM    8  N   UNL     1     -42.627 -48.088   9.105  1.00  0.00    -0.312 N 
HETATM    9  H   UNL     1     -44.635 -46.108   7.547  1.00  0.00     0.173 HD
HETATM   10  H   UNL     1     -42.258 -49.025   8.983  1.00  0.00     0.170 HD
ENDROOT
BRANCH   1  11
HETATM   11  C   UNL     1     -41.201 -47.854  11.113  1.00  0.00     0.167 C 
BRANCH  11  12
HETATM   12  C   UNL     1     -41.223 -49.374  11.178  1.00  0.00     0.145 C 
HETATM   13  O   UNL     1     -41.801 -50.044  12.019  1.00  0.00    -0.650 OA
BRANCH  12  14
HETATM   14  O   UNL     1     -40.485 -49.944  10.194  1.00  0.00    -0.776 OA
HETATM   15  H   UNL     1     -40.410 -50.915  10.244  1.00  0.00     0.167 HD
ENDBRANCH  12  14
ENDBRANCH  11  12
ENDBRANCH   1  11
TORSDOF 3
ENDMDL
MODEL 2
REMARK VINA RESULT:      -5.3     21.307     23.178
REMARK  3 active torsions:
REMARK  status: ('A' for Active; 'I' for Inactive)
REMARK    1  A    between atoms: O_1  and  C_2 
REMARK    2  A    between atoms: C_2  and  C_4 
REMARK    3  A    between atoms: C_4  and  C_5 
ROOT
HETATM    1  C   UNL     1     -26.564 -63.821  15.111  1.00  0.00     0.029 A 
HETATM    2  C   UNL     1     -26.528 -62.528  15.464  1.00  0.00     0.100 A 
HETATM    3  C   UNL     1     -27.790 -61.821  15.765  1.00  0.00     0.251 A 
HETATM    4  O   UNL     1     -27.780 -60.647  16.117  1.00  0.00    -0.268 OA
HETATM    5  N   UNL     1     -28.933 -62.554  15.639  1.00  0.00    -0.275 N 
HETATM    6  C   UNL     1     -28.984 -63.870  15.286  1.00  0.00     0.327 A 
HETATM    7  O   UNL     1     -30.041 -64.485  15.201  1.00  0.00    -0.247 OA
HETATM    8  N   UNL     1     -27.776 -64.467  15.042  1.00  0.00    -0.312 N 
HETATM    9  H   UNL     1     -29.808 -62.094  15.833  1.00  0.00     0.173 HD
HETATM   10  H   UNL     1     -27.838 -65.429  14.726  1.00  0.00     0.170 HD
ENDROOT
BRANCH   1  11
HETATM   11  C   UNL     1     -25.316 -64.621  14.833  1.00  0.00     0.167 C 
BRANCH  11  12
HETATM   12  C   UNL     1     -25.535 -65.794  13.889  1.00  0.00     0.145 C 
HETATM   13  O   UNL     1     -26.053 -65.736  12.786  1.00  0.00    -0.650 OA
BRANCH  12  14
HETATM   14  O   UNL     1     -25.114 -66.969  14.420  1.00  0.00    -0.776 OA
HETATM   15  H   UNL     1     -24.894 -66.937  15.370  1.00  0.00     0.167 HD
ENDBRANCH  12  14
ENDBRANCH  11  12
ENDBRANCH   1  11
TORSDOF 3
ENDMDL
MODEL 3
REMARK VINA RESULT:      -5.1      1.751      3.944
REMARK  3 active torsions:
REMARK  status: ('A' for Active; 'I' for Inactive)
REMARK    1  A    between atoms: O_1  and  C_2 
REMARK    2  A    between atoms: C_2  and  C_4 
REMARK    3  A    between atoms: C_4  and  C_5 
ROOT
HETATM    1  C   UNL     1     -43.432 -47.182   9.864  1.00  0.00     0.029 A 
HETATM    2  C   UNL     1     -42.829 -45.985   9.865  1.00  0.00     0.100 A 
HETATM    3  C   UNL     1     -41.403 -45.888  10.238  1.00  0.00     0.251 A 
HETATM    4  O   UNL     1     -40.823 -44.809  10.219  1.00  0.00    -0.268 OA
HETATM    5  N   UNL     1     -40.793 -47.058  10.580  1.00  0.00    -0.275 N 
HETATM    6  C   UNL     1     -41.391 -48.283  10.579  1.00  0.00     0.327 A 
HETATM    7  O   UNL     1     -40.790 -49.307  10.884  1.00  0.00    -0.247 OA
HETATM    8  N   UNL     1     -42.707 -48.301  10.204  1.00  0.00    -0.312 N 
HETATM    9  H   UNL     1     -39.821 -47.020  10.845  1.00  0.00     0.173 HD
HETATM   10  H   UNL     1     -43.150 -49.212  10.264  1.00  0.00     0.170 HD
ENDROOT
BRANCH   1  11
HETATM   11  C   UNL     1     -44.871 -47.366   9.453  1.00  0.00     0.167 C 
BRANCH  11  12
HETATM   12  C   UNL     1     -45.044 -48.038   8.099  1.00  0.00     0.145 C 
HETATM   13  O   UNL     1     -44.143 -48.341   7.333  1.00  0.00    -0.650 OA
BRANCH  12  14
HETATM   14  O   UNL     1     -46.346 -48.252   7.791  1.00  0.00    -0.776 OA
HETATM   15  H   UNL     1     -46.895 -48.587   8.526  1.00  0.00     0.167 HD
ENDBRANCH  12  14
ENDBRANCH  11  12
ENDBRANCH   1  11
TORSDOF 3
ENDMDL
MODEL 4
REMARK VINA RESULT:      -5.1      6.111      7.550
REMARK  3 active torsions:
REMARK  status: ('A' for Active; 'I' for Inactive)
REMARK    1  A    between atoms: O_1  and  C_2 
REMARK    2  A    between atoms: C_2  and  C_4 
REMARK    3  A    between atoms: C_4  and  C_5 
ROOT
HETATM    1  C   UNL     1     -43.611 -53.764  13.301  1.00  0.00     0.029 A 
HETATM    2  C   UNL     1     -44.192 -54.306  14.381  1.00  0.00     0.100 A 
HETATM    3  C   UNL     1     -45.656 -54.203  14.549  1.00  0.00     0.251 A 
HETATM    4  O   UNL     1     -46.213 -54.716  15.513  1.00  0.00    -0.268 OA
HETATM    5  N   UNL     1     -46.325 -53.527  13.572  1.00  0.00    -0.275 N 
HETATM    6  C   UNL     1     -45.749 -52.975  12.466  1.00  0.00     0.327 A 
HETATM    7  O   UNL     1     -46.402 -52.388  11.611  1.00  0.00    -0.247 OA
HETATM    8  N   UNL     1     -44.392 -53.127  12.365  1.00  0.00    -0.312 N 
HETATM    9  H   UNL     1     -47.325 -53.436  13.665  1.00  0.00     0.173 HD
HETATM   10  H   UNL     1     -43.975 -52.661  11.567  1.00  0.00     0.170 HD
ENDROOT
BRANCH   1  11
HETATM   11  C   UNL     1     -42.129 -53.867  13.039  1.00  0.00     0.167 C 
BRANCH  11  12
HETATM   12  C   UNL     1     -41.575 -52.733  12.190  1.00  0.00     0.145 C 
HETATM   13  O   UNL     1     -41.943 -51.570  12.224  1.00  0.00    -0.650 OA
BRANCH  12  14
HETATM   14  O   UNL     1     -40.614 -53.153  11.331  1.00  0.00    -0.776 OA
HETATM   15  H   UNL     1     -40.725 -52.854  10.409  1.00  0.00     0.167 HD
ENDBRANCH  12  14
ENDBRANCH  11  12
ENDBRANCH   1  11
TORSDOF 3
ENDMDL
MODEL 5
REMARK VINA RESULT:      -5.0      2.221      2.942
REMARK  3 active torsions:
REMARK  status: ('A' for Active; 'I' for Inactive)
REMARK    1  A    between atoms: O_1  and  C_2 
REMARK    2  A    between atoms: C_2  and  C_4 
REMARK    3  A    between atoms: C_4  and  C_5 
ROOT
HETATM    1  C   UNL     1     -43.648 -47.055   9.891  1.00  0.00     0.029 A 
HETATM    2  C   UNL     1     -44.988 -47.084   9.931  1.00  0.00     0.100 A 
HETATM    3  C   UNL     1     -45.738 -47.685   8.809  1.00  0.00     0.251 A 
HETATM    4  O   UNL     1     -46.961 -47.748   8.838  1.00  0.00    -0.268 OA
HETATM    5  N   UNL     1     -44.988 -48.163   7.776  1.00  0.00    -0.275 N 
HETATM    6  C   UNL     1     -43.626 -48.146   7.723  1.00  0.00     0.327 A 
HETATM    7  O   UNL     1     -43.001 -48.603   6.772  1.00  0.00    -0.247 OA
HETATM    8  N   UNL     1     -42.996 -47.593   8.805  1.00  0.00    -0.312 N 
HETATM    9  H   UNL     1     -45.475 -48.573   6.994  1.00  0.00     0.173 HD
HETATM   10  H   UNL     1     -41.987 -47.537   8.722  1.00  0.00     0.170 HD
ENDROOT
BRANCH   1  11
HETATM   11  C   UNL     1     -42.813 -46.499  11.017  1.00  0.00     0.167 C 
BRANCH  11  12
HETATM   12  C   UNL     1     -41.513 -45.854  10.558  1.00  0.00     0.145 C 
HETATM   13  O   UNL     1     -41.344 -44.666  10.340  1.00  0.00    -0.650 OA
BRANCH  12  14
HETATM   14  O   UNL     1     -40.524 -46.763  10.375  1.00  0.00    -0.776 OA
HETATM   15  H   UNL     1     -39.619 -46.397  10.398  1.00  0.00     0.167 HD
ENDBRANCH  12  14
ENDBRANCH  11  12
ENDBRANCH   1  11
TORSDOF 3
ENDMDL
MODEL 6
REMARK VINA RESULT:      -4.9      6.563      7.303
REMARK  3 active torsions:
REMARK  status: ('A' for Active; 'I' for Inactive)
REMARK    1  A    between atoms: O_1  and  C_2 
REMARK    2  A    between atoms: C_2  and  C_4 
REMARK    3  A    between atoms: C_4  and  C_5 
ROOT
HETATM    1  C   UNL     1     -43.895 -52.769  12.880  1.00  0.00     0.029 A 
HETATM    2  C   UNL     1     -44.787 -51.816  13.188  1.00  0.00     0.100 A 
HETATM    3  C   UNL     1     -46.092 -52.199  13.766  1.00  0.00     0.251 A 
HETATM    4  O   UNL     1     -46.911 -51.345  14.082  1.00  0.00    -0.268 OA
HETATM    5  N   UNL     1     -46.304 -53.536  13.932  1.00  0.00    -0.275 N 
HETATM    6  C   UNL     1     -45.405 -54.515  13.629  1.00  0.00     0.327 A 
HETATM    7  O   UNL     1     -45.644 -55.704  13.811  1.00  0.00    -0.247 OA
HETATM    8  N   UNL     1     -44.211 -54.087  13.116  1.00  0.00    -0.312 N 
HETATM    9  H   UNL     1     -47.188 -53.826  14.320  1.00  0.00     0.173 HD
HETATM   10  H   UNL     1     -43.578 -54.832  12.844  1.00  0.00     0.170 HD
ENDROOT
BRANCH   1  11
HETATM   11  C   UNL     1     -42.528 -52.453  12.328  1.00  0.00     0.167 C 
BRANCH  11  12
HETATM   12  C   UNL     1     -41.476 -53.504  12.653  1.00  0.00     0.145 C 
HETATM   13  O   UNL     1     -41.419 -54.164  13.677  1.00  0.00    -0.650 OA
BRANCH  12  14
HETATM   14  O   UNL     1     -40.548 -53.624  11.672  1.00  0.00    -0.776 OA
HETATM   15  H   UNL     1     -39.632 -53.424  11.944  1.00  0.00     0.167 HD
ENDBRANCH  12  14
ENDBRANCH  11  12
ENDBRANCH   1  11
TORSDOF 3
ENDMDL
MODEL 7
REMARK VINA RESULT:      -4.8      5.063      7.300
REMARK  3 active torsions:
REMARK  status: ('A' for Active; 'I' for Inactive)
REMARK    1  A    between atoms: O_1  and  C_2 
REMARK    2  A    between atoms: C_2  and  C_4 
REMARK    3  A    between atoms: C_4  and  C_5 
ROOT
HETATM    1  C   UNL     1     -42.313 -53.192  12.735  1.00  0.00     0.029 A 
HETATM    2  C   UNL     1     -42.279 -54.089  13.730  1.00  0.00     0.100 A 
HETATM    3  C   UNL     1     -43.539 -54.696  14.207  1.00  0.00     0.251 A 
HETATM    4  O   UNL     1     -43.529 -55.540  15.096  1.00  0.00    -0.268 OA
HETATM    5  N   UNL     1     -44.678 -54.272  13.591  1.00  0.00    -0.275 N 
HETATM    6  C   UNL     1     -44.728 -53.365  12.574  1.00  0.00     0.327 A 
HETATM    7  O   UNL     1     -45.783 -53.029  12.047  1.00  0.00    -0.247 OA
HETATM    8  N   UNL     1     -43.523 -52.859  12.170  1.00  0.00    -0.312 N 
HETATM    9  H   UNL     1     -45.553 -54.666  13.900  1.00  0.00     0.173 HD
HETATM   10  H   UNL     1     -43.585 -52.144  11.453  1.00  0.00     0.170 HD
ENDROOT
BRANCH   1  11
HETATM   11  C   UNL     1     -41.066 -52.563  12.166  1.00  0.00     0.167 C 
BRANCH  11  12
HETATM   12  C   UNL     1     -41.203 -51.074  11.881  1.00  0.00     0.145 C 
HETATM   13  O   UNL     1     -41.835 -50.275  12.553  1.00  0.00    -0.650 OA
BRANCH  12  14
HETATM   14  O   UNL     1     -40.559 -50.704  10.748  1.00  0.00    -0.776 OA
HETATM   15  H   UNL     1     -39.723 -50.221  10.887  1.00  0.00     0.167 HD
ENDBRANCH  12  14
ENDBRANCH  11  12
ENDBRANCH   1  11
TORSDOF 3
ENDMDL
MODEL 8
REMARK VINA RESULT:      -4.7      2.002      4.463
REMARK  3 active torsions:
REMARK  status: ('A' for Active; 'I' for Inactive)
REMARK    1  A    between atoms: O_1  and  C_2 
REMARK    2  A    between atoms: C_2  and  C_4 
REMARK    3  A    between atoms: C_4  and  C_5 
ROOT
HETATM    1  C   UNL     1     -42.614 -47.258  10.061  1.00  0.00     0.029 A 
HETATM    2  C   UNL     1     -41.938 -48.213  10.716  1.00  0.00     0.100 A 
HETATM    3  C   UNL     1     -40.542 -47.963  11.129  1.00  0.00     0.251 A 
HETATM    4  O   UNL     1     -39.913 -48.809  11.754  1.00  0.00    -0.268 OA
HETATM    5  N   UNL     1     -40.024 -46.749  10.787  1.00  0.00    -0.275 N 
HETATM    6  C   UNL     1     -40.701 -45.767  10.126  1.00  0.00     0.327 A 
HETATM    7  O   UNL     1     -40.189 -44.687   9.854  1.00  0.00    -0.247 OA
HETATM    8  N   UNL     1     -41.996 -46.059   9.792  1.00  0.00    -0.312 N 
HETATM    9  H   UNL     1     -39.071 -46.554  11.051  1.00  0.00     0.173 HD
HETATM   10  H   UNL     1     -42.464 -45.340   9.252  1.00  0.00     0.170 HD
ENDROOT
BRANCH   1  11
HETATM   11  C   UNL     1     -44.055 -47.423   9.647  1.00  0.00     0.167 C 
BRANCH  11  12
HETATM   12  C   UNL     1     -44.234 -47.821   8.189  1.00  0.00     0.145 C 
HETATM   13  O   UNL     1     -43.353 -47.857   7.346  1.00  0.00    -0.650 OA
BRANCH  12  14
HETATM   14  O   UNL     1     -45.523 -48.113   7.889  1.00  0.00    -0.776 OA
HETATM   15  H   UNL     1     -45.658 -48.965   7.432  1.00  0.00     0.167 HD
ENDBRANCH  12  14
ENDBRANCH  11  12
ENDBRANCH   1  11
TORSDOF 3
ENDMDL
MODEL 9
REMARK VINA RESULT:      -4.5     21.073     22.631
REMARK  3 active torsions:
REMARK  status: ('A' for Active; 'I' for Inactive)
REMARK    1  A    between atoms: O_1  and  C_2 
REMARK    2  A    between atoms: C_2  and  C_4 
REMARK    3  A    between atoms: C_4  and  C_5 
ROOT
HETATM    1  C   UNL     1     -27.063 -63.087  15.932  1.00  0.00     0.029 A 
HETATM    2  C   UNL     1     -27.054 -63.963  16.946  1.00  0.00     0.100 A 
HETATM    3  C   UNL     1     -28.335 -64.458  17.492  1.00  0.00     0.251 A 
HETATM    4  O   UNL     1     -28.351 -65.281  18.400  1.00  0.00    -0.268 OA
HETATM    5  N   UNL     1     -29.465 -63.957  16.917  1.00  0.00    -0.275 N 
HETATM    6  C   UNL     1     -29.489 -63.069  15.882  1.00  0.00     0.327 A 
HETATM    7  O   UNL     1     -30.537 -62.661  15.394  1.00  0.00    -0.247 OA
HETATM    8  N   UNL     1     -28.267 -62.670  15.413  1.00  0.00    -0.312 N 
HETATM    9  H   UNL     1     -30.353 -64.273  17.274  1.00  0.00     0.173 HD
HETATM   10  H   UNL     1     -28.305 -61.967  14.682  1.00  0.00     0.170 HD
ENDROOT
BRANCH   1  11
HETATM   11  C   UNL     1     -25.798 -62.572  15.293  1.00  0.00     0.167 C 
BRANCH  11  12
HETATM   12  C   UNL     1     -25.701 -61.054  15.258  1.00  0.00     0.145 C 
HETATM   13  O   UNL     1     -25.181 -60.392  14.375  1.00  0.00    -0.650 OA
BRANCH  12  14
HETATM   14  O   UNL     1     -26.239 -60.477  16.361  1.00  0.00    -0.776 OA
HETATM   15  H   UNL     1     -27.075 -60.875  16.669  1.00  0.00     0.167 HD
ENDBRANCH  12  14
ENDBRANCH  11  12
ENDBRANCH   1  11
TORSDOF 3
ENDMDL
