MODEL 1
REMARK VINA RESULT:      -6.6      0.000      0.000
REMARK  3 active torsions:
REMARK  status: ('A' for Active; 'I' for Inactive)
REMARK    1  A    between atoms: N_5  and  C_6 
REMARK    2  A    between atoms: C_6  and  C_7 
REMARK       I    between atoms: C_7  and  N_9 
REMARK    3  A    between atoms: N_9  and  C_10 
ROOT
HETATM    1  C   UNL     1     -39.310 -45.206  13.161  1.00  0.00     0.070 C 
HETATM    2  C   UNL     1     -40.204 -45.977  12.214  1.00  0.00     0.029 A 
HETATM    3  N   UNL     1     -40.036 -47.259  12.170  1.00  0.00    -0.299 N 
ATOM      4  HN  UNL     1     -39.338 -47.713  12.758  1.00  0.00     0.187 HD
HETATM    5  N   UNL     1     -40.814 -47.995  11.317  1.00  0.00    -0.247 N 
HETATM    6  C   UNL     1     -41.767 -47.445  10.479  1.00  0.00     0.283 A 
HETATM    7  O   UNL     1     -42.398 -48.113   9.661  1.00  0.00    -0.265 OA
HETATM    8  C   UNL     1     -41.968 -45.976  10.583  1.00  0.00     0.121 A 
HETATM    9  C   UNL     1     -42.975 -45.404   9.760  1.00  0.00     0.105 C 
HETATM   10  N   UNL     1     -43.782 -44.882   9.110  1.00  0.00    -0.191 NA
HETATM   11  C   UNL     1     -41.208 -45.230  11.405  1.00  0.00    -0.012 A 
HETATM   12  C   UNL     1     -41.285 -43.739  11.562  1.00  0.00     0.052 C 
ENDROOT
BRANCH   5  13
HETATM   13  C   UNL     1     -40.582 -49.438  11.318  1.00  0.00     0.255 C 
BRANCH  13  14
HETATM   14  C   UNL     1     -41.347 -50.160  12.428  1.00  0.00     0.237 C 
HETATM   15  O   UNL     1     -41.099 -49.951  13.614  1.00  0.00    -0.272 OA
HETATM   16  N   UNL     1     -42.412 -50.939  12.016  1.00  0.00    -0.355 N 
HETATM   17  H   UNL     1     -42.584 -51.054  11.023  1.00  0.00     0.162 HD
BRANCH  16  18
HETATM   18  C   UNL     1     -43.267 -51.635  12.979  1.00  0.00     0.084 C 
HETATM   19  C   UNL     1     -43.612 -53.044  12.469  1.00  0.00     0.025 C 
HETATM   20  C   UNL     1     -44.111 -53.966  13.581  1.00  0.00     0.002 C 
HETATM   21  C   UNL     1     -45.605 -53.892  13.884  1.00  0.00     0.000 C 
HETATM   22  C   UNL     1     -46.267 -52.520  13.824  1.00  0.00     0.000 C 
HETATM   23  C   UNL     1     -45.424 -51.368  14.359  1.00  0.00     0.002 C 
HETATM   24  C   UNL     1     -44.493 -50.774  13.299  1.00  0.00     0.025 C 
ENDBRANCH  16  18
ENDBRANCH  13  14
ENDBRANCH   5  13
TORSDOF 3
ENDMDL
MODEL 2
REMARK VINA RESULT:      -6.5      1.210      1.521
REMARK  3 active torsions:
REMARK  status: ('A' for Active; 'I' for Inactive)
REMARK    1  A    between atoms: N_5  and  C_6 
REMARK    2  A    between atoms: C_6  and  C_7 
REMARK       I    between atoms: C_7  and  N_9 
REMARK    3  A    between atoms: N_9  and  C_10 
ROOT
HETATM    1  C   UNL     1     -38.052 -47.399  14.255  1.00  0.00     0.070 C 
HETATM    2  C   UNL     1     -39.080 -47.554  13.155  1.00  0.00     0.029 A 
HETATM    3  N   UNL     1     -39.368 -48.764  12.795  1.00  0.00    -0.299 N 
ATOM      4  HN  UNL     1     -38.921 -49.561  13.247  1.00  0.00     0.187 HD
HETATM    5  N   UNL     1     -40.283 -48.951  11.794  1.00  0.00    -0.247 N 
HETATM    6  C   UNL     1     -40.914 -47.917  11.127  1.00  0.00     0.283 A 
HETATM    7  O   UNL     1     -41.671 -48.104  10.176  1.00  0.00    -0.265 OA
HETATM    8  C   UNL     1     -40.597 -46.541  11.592  1.00  0.00     0.121 A 
HETATM    9  C   UNL     1     -41.272 -45.472  10.944  1.00  0.00     0.105 C 
HETATM   10  N   UNL     1     -41.792 -44.559  10.451  1.00  0.00    -0.191 NA
HETATM   11  C   UNL     1     -39.693 -46.331  12.565  1.00  0.00    -0.012 A 
HETATM   12  C   UNL     1     -39.256 -44.992  13.086  1.00  0.00     0.052 C 
ENDROOT
BRANCH   5  13
HETATM   13  C   UNL     1     -40.570 -50.339  11.437  1.00  0.00     0.255 C 
BRANCH  13  14
HETATM   14  C   UNL     1     -41.372 -51.073  12.513  1.00  0.00     0.237 C 
HETATM   15  O   UNL     1     -40.947 -51.184  13.662  1.00  0.00    -0.272 OA
HETATM   16  N   UNL     1     -42.645 -51.470  12.149  1.00  0.00    -0.355 N 
HETATM   17  H   UNL     1     -42.951 -51.328  11.192  1.00  0.00     0.162 HD
BRANCH  16  18
HETATM   18  C   UNL     1     -43.543 -52.127  13.101  1.00  0.00     0.084 C 
HETATM   19  C   UNL     1     -44.115 -53.418  12.494  1.00  0.00     0.025 C 
HETATM   20  C   UNL     1     -44.686 -54.362  13.552  1.00  0.00     0.002 C 
HETATM   21  C   UNL     1     -46.136 -54.108  13.954  1.00  0.00     0.000 C 
HETATM   22  C   UNL     1     -46.592 -52.657  14.057  1.00  0.00     0.000 C 
HETATM   23  C   UNL     1     -45.564 -51.691  14.634  1.00  0.00     0.002 C 
HETATM   24  C   UNL     1     -44.612 -51.136  13.572  1.00  0.00     0.025 C 
ENDBRANCH  16  18
ENDBRANCH  13  14
ENDBRANCH   5  13
TORSDOF 3
ENDMDL
MODEL 3
REMARK VINA RESULT:      -6.5      2.282      7.879
REMARK  3 active torsions:
REMARK  status: ('A' for Active; 'I' for Inactive)
REMARK    1  A    between atoms: N_5  and  C_6 
REMARK    2  A    between atoms: C_6  and  C_7 
REMARK       I    between atoms: C_7  and  N_9 
REMARK    3  A    between atoms: N_9  and  C_10 
ROOT
HETATM    1  C   UNL     1     -46.136 -52.561  12.482  1.00  0.00     0.070 C 
HETATM    2  C   UNL     1     -44.747 -53.028  12.858  1.00  0.00     0.029 A 
HETATM    3  N   UNL     1     -43.760 -52.497  12.210  1.00  0.00    -0.299 N 
ATOM      4  HN  UNL     1     -43.928 -51.793  11.493  1.00  0.00     0.187 HD
HETATM    5  N   UNL     1     -42.486 -52.900  12.508  1.00  0.00    -0.247 N 
HETATM    6  C   UNL     1     -42.186 -53.861  13.456  1.00  0.00     0.283 A 
HETATM    7  O   UNL     1     -41.042 -54.268  13.651  1.00  0.00    -0.265 OA
HETATM    8  C   UNL     1     -43.336 -54.421  14.214  1.00  0.00     0.121 A 
HETATM    9  C   UNL     1     -43.037 -55.377  15.222  1.00  0.00     0.105 C 
HETATM   10  N   UNL     1     -42.855 -56.163  16.056  1.00  0.00    -0.191 NA
HETATM   11  C   UNL     1     -44.597 -54.050  13.932  1.00  0.00    -0.012 A 
HETATM   12  C   UNL     1     -45.838 -54.577  14.593  1.00  0.00     0.052 C 
ENDROOT
BRANCH   5  13
HETATM   13  C   UNL     1     -41.415 -52.259  11.749  1.00  0.00     0.255 C 
BRANCH  13  14
HETATM   14  C   UNL     1     -41.116 -50.838  12.230  1.00  0.00     0.237 C 
HETATM   15  O   UNL     1     -40.197 -50.609  13.014  1.00  0.00    -0.272 OA
HETATM   16  N   UNL     1     -41.845 -49.832  11.624  1.00  0.00    -0.355 N 
HETATM   17  H   UNL     1     -42.575 -50.080  10.964  1.00  0.00     0.162 HD
BRANCH  16  18
HETATM   18  C   UNL     1     -41.615 -48.422  11.945  1.00  0.00     0.084 C 
HETATM   19  C   UNL     1     -42.950 -47.660  11.998  1.00  0.00     0.025 C 
HETATM   20  C   UNL     1     -42.839 -46.330  12.743  1.00  0.00     0.002 C 
HETATM   21  C   UNL     1     -42.384 -45.137  11.907  1.00  0.00     0.000 C 
HETATM   22  C   UNL     1     -41.313 -45.388  10.851  1.00  0.00     0.000 C 
HETATM   23  C   UNL     1     -40.220 -46.372  11.253  1.00  0.00     0.002 C 
HETATM   24  C   UNL     1     -40.599 -47.826  10.965  1.00  0.00     0.025 C 
ENDBRANCH  16  18
ENDBRANCH  13  14
ENDBRANCH   5  13
TORSDOF 3
ENDMDL
MODEL 4
REMARK VINA RESULT:      -6.3      2.983      8.282
REMARK  3 active torsions:
REMARK  status: ('A' for Active; 'I' for Inactive)
REMARK    1  A    between atoms: N_5  and  C_6 
REMARK    2  A    between atoms: C_6  and  C_7 
REMARK       I    between atoms: C_7  and  N_9 
REMARK    3  A    between atoms: N_9  and  C_10 
ROOT
HETATM    1  C   UNL     1     -44.287 -54.440  14.761  1.00  0.00     0.070 C 
HETATM    2  C   UNL     1     -42.825 -54.251  14.420  1.00  0.00     0.029 A 
HETATM    3  N   UNL     1     -42.557 -53.495  13.405  1.00  0.00    -0.299 N 
ATOM      4  HN  UNL     1     -43.307 -53.048  12.878  1.00  0.00     0.187 HD
HETATM    5  N   UNL     1     -41.248 -53.307  13.052  1.00  0.00    -0.247 N 
HETATM    6  C   UNL     1     -40.183 -53.895  13.710  1.00  0.00     0.283 A 
HETATM    7  O   UNL     1     -39.020 -53.779  13.327  1.00  0.00    -0.265 OA
HETATM    8  C   UNL     1     -40.518 -54.722  14.898  1.00  0.00     0.121 A 
HETATM    9  C   UNL     1     -39.430 -55.296  15.610  1.00  0.00     0.105 C 
HETATM   10  N   UNL     1     -38.583 -55.791  16.229  1.00  0.00    -0.191 NA
HETATM   11  C   UNL     1     -41.797 -54.931  15.258  1.00  0.00    -0.012 A 
HETATM   12  C   UNL     1     -42.260 -55.781  16.405  1.00  0.00     0.052 C 
ENDROOT
BRANCH   5  13
HETATM   13  C   UNL     1     -41.011 -52.437  11.902  1.00  0.00     0.255 C 
BRANCH  13  14
HETATM   14  C   UNL     1     -41.415 -50.985  12.164  1.00  0.00     0.237 C 
HETATM   15  O   UNL     1     -42.051 -50.671  13.168  1.00  0.00    -0.272 OA
HETATM   16  N   UNL     1     -40.904 -50.051  11.283  1.00  0.00    -0.355 N 
HETATM   17  H   UNL     1     -40.363 -50.368  10.485  1.00  0.00     0.162 HD
BRANCH  16  18
HETATM   18  C   UNL     1     -41.161 -48.619  11.455  1.00  0.00     0.084 C 
HETATM   19  C   UNL     1     -42.026 -48.089  10.300  1.00  0.00     0.025 C 
HETATM   20  C   UNL     1     -42.691 -46.752  10.630  1.00  0.00     0.002 C 
HETATM   21  C   UNL     1     -41.853 -45.508  10.351  1.00  0.00     0.000 C 
HETATM   22  C   UNL     1     -40.358 -45.587  10.645  1.00  0.00     0.000 C 
HETATM   23  C   UNL     1     -39.983 -46.373  11.896  1.00  0.00     0.002 C 
HETATM   24  C   UNL     1     -39.834 -47.873  11.630  1.00  0.00     0.025 C 
ENDBRANCH  16  18
ENDBRANCH  13  14
ENDBRANCH   5  13
TORSDOF 3
ENDMDL
MODEL 5
REMARK VINA RESULT:      -6.3      2.578      7.857
REMARK  3 active torsions:
REMARK  status: ('A' for Active; 'I' for Inactive)
REMARK    1  A    between atoms: N_5  and  C_6 
REMARK    2  A    between atoms: C_6  and  C_7 
REMARK       I    between atoms: C_7  and  N_9 
REMARK    3  A    between atoms: N_9  and  C_10 
ROOT
HETATM    1  C   UNL     1     -39.955 -54.693  15.801  1.00  0.00     0.070 C 
HETATM    2  C   UNL     1     -41.031 -54.325  14.802  1.00  0.00     0.029 A 
HETATM    3  N   UNL     1     -40.683 -53.536  13.838  1.00  0.00    -0.299 N 
ATOM      4  HN  UNL     1     -39.724 -53.197  13.763  1.00  0.00     0.187 HD
HETATM    5  N   UNL     1     -41.627 -53.166  12.918  1.00  0.00    -0.247 N 
HETATM    6  C   UNL     1     -42.948 -53.574  12.967  1.00  0.00     0.283 A 
HETATM    7  O   UNL     1     -43.799 -53.165  12.179  1.00  0.00    -0.265 OA
HETATM    8  C   UNL     1     -43.307 -54.514  14.060  1.00  0.00     0.121 A 
HETATM    9  C   UNL     1     -44.651 -54.977  14.095  1.00  0.00     0.105 C 
HETATM   10  N   UNL     1     -45.734 -55.386  14.175  1.00  0.00    -0.191 NA
HETATM   11  C   UNL     1     -42.400 -54.883  14.982  1.00  0.00    -0.012 A 
HETATM   12  C   UNL     1     -42.655 -55.786  16.154  1.00  0.00     0.052 C 
ENDROOT
BRANCH   5  13
HETATM   13  C   UNL     1     -41.171 -52.280  11.849  1.00  0.00     0.255 C 
BRANCH  13  14
HETATM   14  C   UNL     1     -41.206 -50.804  12.248  1.00  0.00     0.237 C 
HETATM   15  O   UNL     1     -40.882 -50.439  13.377  1.00  0.00    -0.272 OA
HETATM   16  N   UNL     1     -41.484 -49.912  11.229  1.00  0.00    -0.355 N 
HETATM   17  H   UNL     1     -41.719 -50.272  10.309  1.00  0.00     0.162 HD
BRANCH  16  18
HETATM   18  C   UNL     1     -41.486 -48.466  11.458  1.00  0.00     0.084 C 
HETATM   19  C   UNL     1     -42.290 -47.751  10.360  1.00  0.00     0.025 C 
HETATM   20  C   UNL     1     -42.705 -46.336  10.761  1.00  0.00     0.002 C 
HETATM   21  C   UNL     1     -41.678 -45.241  10.488  1.00  0.00     0.000 C 
HETATM   22  C   UNL     1     -40.209 -45.583  10.716  1.00  0.00     0.000 C 
HETATM   23  C   UNL     1     -39.928 -46.471  11.923  1.00  0.00     0.002 C 
HETATM   24  C   UNL     1     -40.047 -47.962  11.601  1.00  0.00     0.025 C 
ENDBRANCH  16  18
ENDBRANCH  13  14
ENDBRANCH   5  13
TORSDOF 3
ENDMDL
MODEL 6
REMARK VINA RESULT:      -6.3      2.155      8.044
REMARK  3 active torsions:
REMARK  status: ('A' for Active; 'I' for Inactive)
REMARK    1  A    between atoms: N_5  and  C_6 
REMARK    2  A    between atoms: C_6  and  C_7 
REMARK       I    between atoms: C_7  and  N_9 
REMARK    3  A    between atoms: N_9  and  C_10 
ROOT
HETATM    1  C   UNL     1     -44.565 -53.236  12.479  1.00  0.00     0.070 C 
HETATM    2  C   UNL     1     -43.085 -53.004  12.695  1.00  0.00     0.029 A 
HETATM    3  N   UNL     1     -42.534 -52.069  11.990  1.00  0.00    -0.299 N 
ATOM      4  HN  UNL     1     -43.087 -51.518  11.334  1.00  0.00     0.187 HD
HETATM    5  N   UNL     1     -41.194 -51.834  12.143  1.00  0.00    -0.247 N 
HETATM    6  C   UNL     1     -40.381 -52.552  13.000  1.00  0.00     0.283 A 
HETATM    7  O   UNL     1     -39.165 -52.380  13.062  1.00  0.00    -0.265 OA
HETATM    8  C   UNL     1     -41.049 -53.590  13.828  1.00  0.00     0.121 A 
HETATM    9  C   UNL     1     -40.233 -54.306  14.745  1.00  0.00     0.105 C 
HETATM   10  N   UNL     1     -39.616 -54.923  15.510  1.00  0.00    -0.191 NA
HETATM   11  C   UNL     1     -42.362 -53.848  13.688  1.00  0.00    -0.012 A 
HETATM   12  C   UNL     1     -43.136 -54.898  14.430  1.00  0.00     0.052 C 
ENDROOT
BRANCH   5  13
HETATM   13  C   UNL     1     -40.633 -50.760  11.325  1.00  0.00     0.255 C 
BRANCH  13  14
HETATM   14  C   UNL     1     -40.998 -49.368  11.843  1.00  0.00     0.237 C 
HETATM   15  O   UNL     1     -41.887 -49.211  12.678  1.00  0.00    -0.272 OA
HETATM   16  N   UNL     1     -40.180 -48.336  11.423  1.00  0.00    -0.355 N 
HETATM   17  H   UNL     1     -39.445 -48.532  10.752  1.00  0.00     0.162 HD
BRANCH  16  18
HETATM   18  C   UNL     1     -40.379 -46.964  11.893  1.00  0.00     0.084 C 
HETATM   19  C   UNL     1     -40.272 -45.976  10.720  1.00  0.00     0.025 C 
HETATM   20  C   UNL     1     -40.892 -44.615  11.039  1.00  0.00     0.002 C 
HETATM   21  C   UNL     1     -39.977 -43.618  11.744  1.00  0.00     0.000 C 
HETATM   22  C   UNL     1     -39.020 -44.166  12.798  1.00  0.00     0.000 C 
HETATM   23  C   UNL     1     -39.584 -45.281  13.671  1.00  0.00     0.002 C 
HETATM   24  C   UNL     1     -39.414 -46.666  13.045  1.00  0.00     0.025 C 
ENDBRANCH  16  18
ENDBRANCH  13  14
ENDBRANCH   5  13
TORSDOF 3
ENDMDL
MODEL 7
REMARK VINA RESULT:      -6.3      2.456      2.899
REMARK  3 active torsions:
REMARK  status: ('A' for Active; 'I' for Inactive)
REMARK    1  A    between atoms: N_5  and  C_6 
REMARK    2  A    between atoms: C_6  and  C_7 
REMARK       I    between atoms: C_7  and  N_9 
REMARK    3  A    between atoms: N_9  and  C_10 
ROOT
HETATM    1  C   UNL     1     -39.087 -44.514   9.626  1.00  0.00     0.070 C 
HETATM    2  C   UNL     1     -40.228 -45.112  10.421  1.00  0.00     0.029 A 
HETATM    3  N   UNL     1     -40.564 -46.328  10.131  1.00  0.00    -0.299 N 
ATOM      4  HN  UNL     1     -40.066 -46.846   9.407  1.00  0.00     0.187 HD
HETATM    5  N   UNL     1     -41.600 -46.904  10.815  1.00  0.00    -0.247 N 
HETATM    6  C   UNL     1     -42.328 -46.256  11.796  1.00  0.00     0.283 A 
HETATM    7  O   UNL     1     -43.307 -46.763  12.341  1.00  0.00    -0.265 OA
HETATM    8  C   UNL     1     -41.891 -44.877  12.138  1.00  0.00     0.121 A 
HETATM    9  C   UNL     1     -42.603 -44.215  13.175  1.00  0.00     0.105 C 
HETATM   10  N   UNL     1     -43.148 -43.626  14.012  1.00  0.00    -0.191 NA
HETATM   11  C   UNL     1     -40.884 -44.284  11.472  1.00  0.00    -0.012 A 
HETATM   12  C   UNL     1     -40.385 -42.886  11.694  1.00  0.00     0.052 C 
ENDROOT
BRANCH   5  13
HETATM   13  C   UNL     1     -41.926 -48.280  10.447  1.00  0.00     0.255 C 
BRANCH  13  14
HETATM   14  C   UNL     1     -41.173 -49.313  11.289  1.00  0.00     0.237 C 
HETATM   15  O   UNL     1     -39.987 -49.160  11.576  1.00  0.00    -0.272 OA
HETATM   16  N   UNL     1     -41.941 -50.336  11.813  1.00  0.00    -0.355 N 
HETATM   17  H   UNL     1     -42.922 -50.395  11.561  1.00  0.00     0.162 HD
BRANCH  16  18
HETATM   18  C   UNL     1     -41.359 -51.356  12.688  1.00  0.00     0.084 C 
HETATM   19  C   UNL     1     -41.934 -52.741  12.350  1.00  0.00     0.025 C 
HETATM   20  C   UNL     1     -41.075 -53.882  12.895  1.00  0.00     0.002 C 
HETATM   21  C   UNL     1     -41.362 -54.300  14.334  1.00  0.00     0.000 C 
HETATM   22  C   UNL     1     -41.695 -53.196  15.332  1.00  0.00     0.000 C 
HETATM   23  C   UNL     1     -40.904 -51.904  15.161  1.00  0.00     0.002 C 
HETATM   24  C   UNL     1     -41.544 -50.948  14.153  1.00  0.00     0.025 C 
ENDBRANCH  16  18
ENDBRANCH  13  14
ENDBRANCH   5  13
TORSDOF 3
ENDMDL
MODEL 8
REMARK VINA RESULT:      -6.1      1.390      1.885
REMARK  3 active torsions:
REMARK  status: ('A' for Active; 'I' for Inactive)
REMARK    1  A    between atoms: N_5  and  C_6 
REMARK    2  A    between atoms: C_6  and  C_7 
REMARK       I    between atoms: C_7  and  N_9 
REMARK    3  A    between atoms: N_9  and  C_10 
ROOT
HETATM    1  C   UNL     1     -38.322 -47.275  14.208  1.00  0.00     0.070 C 
HETATM    2  C   UNL     1     -39.356 -47.115  13.115  1.00  0.00     0.029 A 
HETATM    3  N   UNL     1     -39.922 -48.197  12.686  1.00  0.00    -0.299 N 
ATOM      4  HN  UNL     1     -39.679 -49.103  13.084  1.00  0.00     0.187 HD
HETATM    5  N   UNL     1     -40.853 -48.100  11.688  1.00  0.00    -0.247 N 
HETATM    6  C   UNL     1     -41.219 -46.907  11.091  1.00  0.00     0.283 A 
HETATM    7  O   UNL     1     -41.997 -46.851  10.140  1.00  0.00    -0.265 OA
HETATM    8  C   UNL     1     -40.585 -45.677  11.633  1.00  0.00     0.121 A 
HETATM    9  C   UNL     1     -40.985 -44.440  11.059  1.00  0.00     0.105 C 
HETATM   10  N   UNL     1     -41.271 -43.402  10.627  1.00  0.00    -0.191 NA
HETATM   11  C   UNL     1     -39.658 -45.747  12.606  1.00  0.00    -0.012 A 
HETATM   12  C   UNL     1     -38.917 -44.585  13.200  1.00  0.00     0.052 C 
ENDROOT
BRANCH   5  13
HETATM   13  C   UNL     1     -41.462 -49.355  11.253  1.00  0.00     0.255 C 
BRANCH  13  14
HETATM   14  C   UNL     1     -42.051 -50.162  12.412  1.00  0.00     0.237 C 
HETATM   15  O   UNL     1     -42.153 -49.679  13.538  1.00  0.00    -0.272 OA
HETATM   16  N   UNL     1     -42.580 -51.394  12.079  1.00  0.00    -0.355 N 
HETATM   17  H   UNL     1     -42.488 -51.730  11.126  1.00  0.00     0.162 HD
BRANCH  16  18
HETATM   18  C   UNL     1     -43.231 -52.242  13.080  1.00  0.00     0.084 C 
HETATM   19  C   UNL     1     -42.327 -53.432  13.444  1.00  0.00     0.025 C 
HETATM   20  C   UNL     1     -42.726 -54.091  14.764  1.00  0.00     0.002 C 
HETATM   21  C   UNL     1     -43.811 -55.160  14.670  1.00  0.00     0.000 C 
HETATM   22  C   UNL     1     -44.952 -54.918  13.687  1.00  0.00     0.000 C 
HETATM   23  C   UNL     1     -45.432 -53.474  13.591  1.00  0.00     0.002 C 
HETATM   24  C   UNL     1     -44.624 -52.648  12.589  1.00  0.00     0.025 C 
ENDBRANCH  16  18
ENDBRANCH  13  14
ENDBRANCH   5  13
TORSDOF 3
ENDMDL
MODEL 9
REMARK VINA RESULT:      -5.7      2.579      7.883
REMARK  3 active torsions:
REMARK  status: ('A' for Active; 'I' for Inactive)
REMARK    1  A    between atoms: N_5  and  C_6 
REMARK    2  A    between atoms: C_6  and  C_7 
REMARK       I    between atoms: C_7  and  N_9 
REMARK    3  A    between atoms: N_9  and  C_10 
ROOT
HETATM    1  C   UNL     1     -46.163 -51.604  13.271  1.00  0.00     0.070 C 
HETATM    2  C   UNL     1     -44.806 -52.264  13.388  1.00  0.00     0.029 A 
HETATM    3  N   UNL     1     -43.835 -51.717  12.731  1.00  0.00    -0.299 N 
ATOM      4  HN  UNL     1     -43.992 -50.877  12.174  1.00  0.00     0.187 HD
HETATM    5  N   UNL     1     -42.593 -52.288  12.797  1.00  0.00    -0.247 N 
HETATM    6  C   UNL     1     -42.312 -53.435  13.517  1.00  0.00     0.283 A 
HETATM    7  O   UNL     1     -41.209 -53.978  13.497  1.00  0.00    -0.265 OA
HETATM    8  C   UNL     1     -43.436 -54.016  14.297  1.00  0.00     0.121 A 
HETATM    9  C   UNL     1     -43.150 -55.169  15.077  1.00  0.00     0.105 C 
HETATM   10  N   UNL     1     -42.976 -56.111  15.731  1.00  0.00    -0.191 NA
HETATM   11  C   UNL     1     -44.668 -53.479  14.239  1.00  0.00    -0.012 A 
HETATM   12  C   UNL     1     -45.888 -54.001  14.941  1.00  0.00     0.052 C 
ENDROOT
BRANCH   5  13
HETATM   13  C   UNL     1     -41.537 -51.620  12.039  1.00  0.00     0.255 C 
BRANCH  13  14
HETATM   14  C   UNL     1     -41.522 -50.105  12.253  1.00  0.00     0.237 C 
HETATM   15  O   UNL     1     -42.331 -49.373  11.688  1.00  0.00    -0.272 OA
HETATM   16  N   UNL     1     -40.645 -49.643  13.216  1.00  0.00    -0.355 N 
HETATM   17  H   UNL     1     -40.017 -50.300  13.669  1.00  0.00     0.162 HD
BRANCH  16  18
HETATM   18  C   UNL     1     -40.574 -48.223  13.566  1.00  0.00     0.084 C 
HETATM   19  C   UNL     1     -39.510 -47.514  12.711  1.00  0.00     0.025 C 
HETATM   20  C   UNL     1     -39.683 -45.995  12.698  1.00  0.00     0.002 C 
HETATM   21  C   UNL     1     -39.019 -45.242  13.848  1.00  0.00     0.000 C 
HETATM   22  C   UNL     1     -39.052 -45.894  15.226  1.00  0.00     0.000 C 
HETATM   23  C   UNL     1     -40.346 -46.623  15.570  1.00  0.00     0.002 C 
HETATM   24  C   UNL     1     -40.358 -48.071  15.075  1.00  0.00     0.025 C 
ENDBRANCH  16  18
ENDBRANCH  13  14
ENDBRANCH   5  13
TORSDOF 3
ENDMDL
