MODEL 1
REMARK VINA RESULT:      -6.3      0.000      0.000
REMARK  3 active torsions:
REMARK  status: ('A' for Active; 'I' for Inactive)
REMARK       I    between atoms: C_2  and  N_3 
REMARK       I    between atoms: C_2  and  N_12 
REMARK    1  A    between atoms: N_3  and  C_4 
REMARK    2  A    between atoms: C_4  and  C_5 
REMARK    3  A    between atoms: N_12  and  C_13 
ROOT
HETATM    1  O   UNL     1     -42.223 -46.763  11.770  1.00  0.00    -0.247 OA
HETATM    2  C   UNL     1     -41.785 -47.241  10.732  1.00  0.00     0.320 C 
HETATM    3  N   UNL     1     -40.488 -47.713  10.619  1.00  0.00    -0.342 N 
HETATM    4  N   UNL     1     -42.489 -47.412   9.562  1.00  0.00    -0.306 N 
HETATM    5  H   UNL     1     -40.079 -47.565   9.707  1.00  0.00     0.164 HD
HETATM    6  H   UNL     1     -42.120 -48.052   8.876  1.00  0.00     0.171 HD
ENDROOT
BRANCH   3   7
HETATM    7  C   UNL     1     -39.599 -47.564  11.755  1.00  0.00     0.130 C 
BRANCH   7   8
HETATM    8  C   UNL     1     -39.383 -48.874  12.513  1.00  0.00     0.018 C 
HETATM    9  C   UNL     1     -38.558 -48.686  13.805  1.00  0.00     0.022 C 
HETATM   10  C   UNL     1     -37.664 -49.903  14.055  1.00  0.00     0.141 C 
HETATM   11  S   UNL     1     -38.001 -51.077  12.766  1.00  0.00     0.144 S 
HETATM   12  O   UNL     1     -36.755 -51.599  12.248  1.00  0.00    -0.228 OA
HETATM   13  O   UNL     1     -39.085 -51.936  13.198  1.00  0.00    -0.228 OA
HETATM   14  C   UNL     1     -38.650 -49.884  11.634  1.00  0.00     0.146 C 
ENDBRANCH   7   8
ENDBRANCH   3   7
BRANCH   4  15
HETATM   15  C   UNL     1     -43.788 -46.971   9.389  1.00  0.00     0.070 A 
HETATM   16  C   UNL     1     -45.026 -47.588   9.677  1.00  0.00     0.138 A 
HETATM   17  N   UNL     1     -46.068 -46.818   9.349  1.00  0.00    -0.310 N 
HETATM   18  N   UNL     1     -45.497 -45.718   8.838  1.00  0.00    -0.310 N 
ATOM     19  HN  UNL     1     -47.062 -47.021   9.459  1.00  0.00     0.186 HD
HETATM   20  C   UNL     1     -44.131 -45.747   8.865  1.00  0.00     0.138 A 
HETATM   21  H   UNL     1     -46.104 -44.984   8.486  1.00  0.00     0.186 HD
ENDBRANCH   4  15
TORSDOF 3
ENDMDL
MODEL 2
REMARK VINA RESULT:      -6.2      2.002      2.447
REMARK  3 active torsions:
REMARK  status: ('A' for Active; 'I' for Inactive)
REMARK       I    between atoms: C_2  and  N_3 
REMARK       I    between atoms: C_2  and  N_12 
REMARK    1  A    between atoms: N_3  and  C_4 
REMARK    2  A    between atoms: C_4  and  C_5 
REMARK    3  A    between atoms: N_12  and  C_13 
ROOT
HETATM    1  O   UNL     1     -42.154 -47.827  11.667  1.00  0.00    -0.247 OA
HETATM    2  C   UNL     1     -41.872 -48.354  10.599  1.00  0.00     0.320 C 
HETATM    3  N   UNL     1     -40.839 -49.267  10.469  1.00  0.00    -0.342 N 
HETATM    4  N   UNL     1     -42.528 -48.158   9.404  1.00  0.00    -0.306 N 
HETATM    5  H   UNL     1     -40.358 -49.213   9.581  1.00  0.00     0.164 HD
HETATM    6  H   UNL     1     -42.388 -48.835   8.670  1.00  0.00     0.171 HD
ENDROOT
BRANCH   3   7
HETATM    7  C   UNL     1     -40.019 -49.549  11.630  1.00  0.00     0.130 C 
BRANCH   7   8
HETATM    8  C   UNL     1     -40.105 -51.009  12.075  1.00  0.00     0.018 C 
HETATM    9  C   UNL     1     -41.562 -51.509  12.200  1.00  0.00     0.022 C 
HETATM   10  C   UNL     1     -41.692 -52.503  13.356  1.00  0.00     0.141 C 
HETATM   11  S   UNL     1     -40.071 -52.723  14.048  1.00  0.00     0.144 S 
HETATM   12  O   UNL     1     -40.148 -52.662  15.491  1.00  0.00    -0.228 OA
HETATM   13  O   UNL     1     -39.416 -53.809  13.347  1.00  0.00    -0.228 OA
HETATM   14  C   UNL     1     -39.431 -51.194  13.432  1.00  0.00     0.146 C 
ENDBRANCH   7   8
ENDBRANCH   3   7
BRANCH   4  15
HETATM   15  C   UNL     1     -43.559 -47.251   9.248  1.00  0.00     0.070 A 
HETATM   16  C   UNL     1     -44.947 -47.443   9.062  1.00  0.00     0.138 A 
HETATM   17  N   UNL     1     -45.609 -46.288   8.942  1.00  0.00    -0.310 N 
HETATM   18  N   UNL     1     -44.645 -45.361   9.037  1.00  0.00    -0.310 N 
ATOM     19  HN  UNL     1     -46.611 -46.146   8.810  1.00  0.00     0.186 HD
HETATM   20  C   UNL     1     -43.401 -45.885   9.249  1.00  0.00     0.138 A 
HETATM   21  H   UNL     1     -44.910 -44.385   8.945  1.00  0.00     0.186 HD
ENDBRANCH   4  15
TORSDOF 3
ENDMDL
MODEL 3
REMARK VINA RESULT:      -5.8      5.346      6.904
REMARK  3 active torsions:
REMARK  status: ('A' for Active; 'I' for Inactive)
REMARK       I    between atoms: C_2  and  N_3 
REMARK       I    between atoms: C_2  and  N_12 
REMARK    1  A    between atoms: N_3  and  C_4 
REMARK    2  A    between atoms: C_4  and  C_5 
REMARK    3  A    between atoms: N_12  and  C_13 
ROOT
HETATM    1  O   UNL     1     -41.321 -51.439  13.618  1.00  0.00    -0.247 OA
HETATM    2  C   UNL     1     -41.284 -51.958  12.510  1.00  0.00     0.320 C 
HETATM    3  N   UNL     1     -41.633 -53.281  12.296  1.00  0.00    -0.342 N 
HETATM    4  N   UNL     1     -40.933 -51.331  11.336  1.00  0.00    -0.306 N 
HETATM    5  H   UNL     1     -41.090 -53.733  11.573  1.00  0.00     0.164 HD
HETATM    6  H   UNL     1     -41.197 -51.769  10.468  1.00  0.00     0.171 HD
ENDROOT
BRANCH   3   7
HETATM    7  C   UNL     1     -41.984 -54.095  13.442  1.00  0.00     0.130 C 
BRANCH   7   8
HETATM    8  C   UNL     1     -43.490 -54.331  13.561  1.00  0.00     0.018 C 
HETATM    9  C   UNL     1     -44.300 -53.561  12.494  1.00  0.00     0.022 C 
HETATM   10  C   UNL     1     -45.640 -53.096  13.068  1.00  0.00     0.141 C 
HETATM   11  S   UNL     1     -45.739 -53.701  14.735  1.00  0.00     0.144 S 
HETATM   12  O   UNL     1     -46.207 -52.647  15.607  1.00  0.00    -0.228 OA
HETATM   13  O   UNL     1     -46.344 -55.018  14.711  1.00  0.00    -0.228 OA
HETATM   14  C   UNL     1     -43.992 -53.892  14.934  1.00  0.00     0.146 C 
ENDBRANCH   7   8
ENDBRANCH   3   7
BRANCH   4  15
HETATM   15  C   UNL     1     -40.485 -50.024  11.282  1.00  0.00     0.070 A 
HETATM   16  C   UNL     1     -41.159 -48.822  10.971  1.00  0.00     0.138 A 
HETATM   17  N   UNL     1     -40.353 -47.757  11.024  1.00  0.00    -0.310 N 
HETATM   18  N   UNL     1     -39.162 -48.280  11.353  1.00  0.00    -0.310 N 
ATOM     19  HN  UNL     1     -40.587 -46.779  10.854  1.00  0.00     0.186 HD
HETATM   20  C   UNL     1     -39.194 -49.632  11.547  1.00  0.00     0.138 A 
HETATM   21  H   UNL     1     -38.369 -47.651  11.427  1.00  0.00     0.186 HD
ENDBRANCH   4  15
TORSDOF 3
ENDMDL
MODEL 4
REMARK VINA RESULT:      -5.8      5.227      6.357
REMARK  3 active torsions:
REMARK  status: ('A' for Active; 'I' for Inactive)
REMARK       I    between atoms: C_2  and  N_3 
REMARK       I    between atoms: C_2  and  N_12 
REMARK    1  A    between atoms: N_3  and  C_4 
REMARK    2  A    between atoms: C_4  and  C_5 
REMARK    3  A    between atoms: N_12  and  C_13 
ROOT
HETATM    1  O   UNL     1     -42.800 -48.386  13.499  1.00  0.00    -0.247 OA
HETATM    2  C   UNL     1     -43.023 -49.138  12.558  1.00  0.00     0.320 C 
HETATM    3  N   UNL     1     -43.749 -50.308  12.698  1.00  0.00    -0.342 N 
HETATM    4  N   UNL     1     -42.632 -48.937  11.254  1.00  0.00    -0.306 N 
HETATM    5  H   UNL     1     -43.432 -51.058  12.098  1.00  0.00     0.164 HD
HETATM    6  H   UNL     1     -43.095 -49.467  10.533  1.00  0.00     0.171 HD
ENDROOT
BRANCH   3   7
HETATM    7  C   UNL     1     -44.196 -50.688  14.023  1.00  0.00     0.130 C 
BRANCH   7   8
HETATM    8  C   UNL     1     -45.011 -51.982  14.024  1.00  0.00     0.018 C 
HETATM    9  C   UNL     1     -46.520 -51.736  14.248  1.00  0.00     0.022 C 
HETATM   10  C   UNL     1     -47.136 -52.874  15.063  1.00  0.00     0.141 C 
HETATM   11  S   UNL     1     -45.851 -54.063  15.365  1.00  0.00     0.144 S 
HETATM   12  O   UNL     1     -45.886 -54.472  16.751  1.00  0.00    -0.228 OA
HETATM   13  O   UNL     1     -45.838 -55.013  14.271  1.00  0.00    -0.228 OA
HETATM   14  C   UNL     1     -44.524 -52.918  15.127  1.00  0.00     0.146 C 
ENDBRANCH   7   8
ENDBRANCH   3   7
BRANCH   4  15
HETATM   15  C   UNL     1     -41.843 -47.873  10.856  1.00  0.00     0.070 A 
HETATM   16  C   UNL     1     -40.475 -47.597  11.075  1.00  0.00     0.138 A 
HETATM   17  N   UNL     1     -40.093 -46.441  10.522  1.00  0.00    -0.310 N 
HETATM   18  N   UNL     1     -41.219 -45.973   9.963  1.00  0.00    -0.310 N 
ATOM     19  HN  UNL     1     -39.166 -46.016  10.524  1.00  0.00     0.186 HD
HETATM   20  C   UNL     1     -42.291 -46.808  10.111  1.00  0.00     0.138 A 
HETATM   21  H   UNL     1     -41.182 -45.073   9.496  1.00  0.00     0.186 HD
ENDBRANCH   4  15
TORSDOF 3
ENDMDL
MODEL 5
REMARK VINA RESULT:      -5.5      4.627      6.385
REMARK  3 active torsions:
REMARK  status: ('A' for Active; 'I' for Inactive)
REMARK       I    between atoms: C_2  and  N_3 
REMARK       I    between atoms: C_2  and  N_12 
REMARK    1  A    between atoms: N_3  and  C_4 
REMARK    2  A    between atoms: C_4  and  C_5 
REMARK    3  A    between atoms: N_12  and  C_13 
ROOT
HETATM    1  O   UNL     1     -41.488 -50.986  13.333  1.00  0.00    -0.247 OA
HETATM    2  C   UNL     1     -41.594 -51.346  12.168  1.00  0.00     0.320 C 
HETATM    3  N   UNL     1     -40.933 -50.709  11.131  1.00  0.00    -0.342 N 
HETATM    4  N   UNL     1     -42.330 -52.417  11.717  1.00  0.00    -0.306 N 
HETATM    5  H   UNL     1     -41.456 -50.690  10.266  1.00  0.00     0.164 HD
HETATM    6  H   UNL     1     -42.129 -52.778  10.797  1.00  0.00     0.171 HD
ENDROOT
BRANCH   3   7
HETATM    7  C   UNL     1     -40.148 -49.530  11.434  1.00  0.00     0.130 C 
BRANCH   7   8
HETATM    8  C   UNL     1     -40.993 -48.257  11.498  1.00  0.00     0.018 C 
HETATM    9  C   UNL     1     -42.093 -48.217  10.415  1.00  0.00     0.022 C 
HETATM   10  C   UNL     1     -42.312 -46.786   9.921  1.00  0.00     0.141 C 
HETATM   11  S   UNL     1     -41.235 -45.733  10.863  1.00  0.00     0.144 S 
HETATM   12  O   UNL     1     -40.567 -44.806   9.977  1.00  0.00    -0.228 OA
HETATM   13  O   UNL     1     -41.939 -45.302  12.055  1.00  0.00    -0.228 OA
HETATM   14  C   UNL     1     -40.113 -47.023  11.313  1.00  0.00     0.146 C 
ENDBRANCH   7   8
ENDBRANCH   3   7
BRANCH   4  15
HETATM   15  C   UNL     1     -43.132 -53.185  12.542  1.00  0.00     0.070 A 
HETATM   16  C   UNL     1     -42.804 -54.102  13.565  1.00  0.00     0.138 A 
HETATM   17  N   UNL     1     -43.888 -54.649  14.125  1.00  0.00    -0.310 N 
HETATM   18  N   UNL     1     -44.905 -54.093  13.451  1.00  0.00    -0.310 N 
ATOM     19  HN  UNL     1     -43.931 -55.329  14.885  1.00  0.00     0.186 HD
HETATM   20  C   UNL     1     -44.506 -53.187  12.509  1.00  0.00     0.138 A 
HETATM   21  H   UNL     1     -45.849 -54.382  13.687  1.00  0.00     0.186 HD
ENDBRANCH   4  15
TORSDOF 3
ENDMDL
MODEL 6
REMARK VINA RESULT:      -5.4      5.398      6.343
REMARK  3 active torsions:
REMARK  status: ('A' for Active; 'I' for Inactive)
REMARK       I    between atoms: C_2  and  N_3 
REMARK       I    between atoms: C_2  and  N_12 
REMARK    1  A    between atoms: N_3  and  C_4 
REMARK    2  A    between atoms: C_4  and  C_5 
REMARK    3  A    between atoms: N_12  and  C_13 
ROOT
HETATM    1  O   UNL     1     -42.589 -52.895  14.072  1.00  0.00    -0.247 OA
HETATM    2  C   UNL     1     -42.843 -53.005  12.879  1.00  0.00     0.320 C 
HETATM    3  N   UNL     1     -41.936 -52.660  11.890  1.00  0.00    -0.342 N 
HETATM    4  N   UNL     1     -44.011 -53.499  12.345  1.00  0.00    -0.306 N 
HETATM    5  H   UNL     1     -42.367 -52.275  11.061  1.00  0.00     0.164 HD
HETATM    6  H   UNL     1     -44.004 -53.794  11.381  1.00  0.00     0.171 HD
ENDROOT
BRANCH   3   7
HETATM    7  C   UNL     1     -40.670 -52.079  12.289  1.00  0.00     0.130 C 
BRANCH   7   8
HETATM    8  C   UNL     1     -40.525 -50.621  11.854  1.00  0.00     0.018 C 
HETATM    9  C   UNL     1     -39.051 -50.166  11.772  1.00  0.00     0.022 C 
HETATM   10  C   UNL     1     -38.916 -48.700  12.190  1.00  0.00     0.141 C 
HETATM   11  S   UNL     1     -40.550 -48.099  12.541  1.00  0.00     0.144 S 
HETATM   12  O   UNL     1     -40.535 -47.348  13.777  1.00  0.00    -0.228 OA
HETATM   13  O   UNL     1     -41.119 -47.572  11.316  1.00  0.00    -0.228 OA
HETATM   14  C   UNL     1     -41.244 -49.698  12.836  1.00  0.00     0.146 C 
ENDBRANCH   7   8
ENDBRANCH   3   7
BRANCH   4  15
HETATM   15  C   UNL     1     -45.102 -53.859  13.114  1.00  0.00     0.070 A 
HETATM   16  C   UNL     1     -45.460 -55.095  13.699  1.00  0.00     0.138 A 
HETATM   17  N   UNL     1     -46.614 -55.026  14.369  1.00  0.00    -0.310 N 
HETATM   18  N   UNL     1     -47.000 -53.752  14.201  1.00  0.00    -0.310 N 
ATOM     19  HN  UNL     1     -47.090 -55.766  14.886  1.00  0.00     0.186 HD
HETATM   20  C   UNL     1     -46.113 -53.003  13.480  1.00  0.00     0.138 A 
HETATM   21  H   UNL     1     -47.884 -53.463  14.608  1.00  0.00     0.186 HD
ENDBRANCH   4  15
TORSDOF 3
ENDMDL
MODEL 7
REMARK VINA RESULT:      -5.3      4.350      5.243
REMARK  3 active torsions:
REMARK  status: ('A' for Active; 'I' for Inactive)
REMARK       I    between atoms: C_2  and  N_3 
REMARK       I    between atoms: C_2  and  N_12 
REMARK    1  A    between atoms: N_3  and  C_4 
REMARK    2  A    between atoms: C_4  and  C_5 
REMARK    3  A    between atoms: N_12  and  C_13 
ROOT
HETATM    1  O   UNL     1     -41.473 -49.165  12.881  1.00  0.00    -0.247 OA
HETATM    2  C   UNL     1     -41.402 -49.553  11.722  1.00  0.00     0.320 C 
HETATM    3  N   UNL     1     -41.413 -50.897  11.385  1.00  0.00    -0.342 N 
HETATM    4  N   UNL     1     -41.333 -48.752  10.605  1.00  0.00    -0.306 N 
HETATM    5  H   UNL     1     -40.838 -51.120  10.584  1.00  0.00     0.164 HD
HETATM    6  H   UNL     1     -41.551 -49.165   9.711  1.00  0.00     0.171 HD
ENDROOT
BRANCH   3   7
HETATM    7  C   UNL     1     -41.437 -51.875  12.454  1.00  0.00     0.130 C 
BRANCH   7   8
HETATM    8  C   UNL     1     -42.810 -52.523  12.633  1.00  0.00     0.018 C 
HETATM    9  C   UNL     1     -43.721 -51.734  13.599  1.00  0.00     0.022 C 
HETATM   10  C   UNL     1     -44.606 -52.687  14.405  1.00  0.00     0.141 C 
HETATM   11  S   UNL     1     -44.258 -54.335  13.839  1.00  0.00     0.144 S 
HETATM   12  O   UNL     1     -44.102 -55.215  14.975  1.00  0.00    -0.228 OA
HETATM   13  O   UNL     1     -45.145 -54.638  12.734  1.00  0.00    -0.228 OA
HETATM   14  C   UNL     1     -42.664 -53.940  13.183  1.00  0.00     0.146 C 
ENDBRANCH   7   8
ENDBRANCH   3   7
BRANCH   4  15
HETATM   15  C   UNL     1     -41.246 -47.374  10.667  1.00  0.00     0.070 A 
HETATM   16  C   UNL     1     -42.203 -46.369  10.400  1.00  0.00     0.138 A 
HETATM   17  N   UNL     1     -41.711 -45.138  10.574  1.00  0.00    -0.310 N 
HETATM   18  N   UNL     1     -40.438 -45.356  10.937  1.00  0.00    -0.310 N 
ATOM     19  HN  UNL     1     -42.190 -44.245  10.457  1.00  0.00     0.186 HD
HETATM   20  C   UNL     1     -40.117 -46.681  11.036  1.00  0.00     0.138 A 
HETATM   21  H   UNL     1     -39.844 -44.550  11.102  1.00  0.00     0.186 HD
ENDBRANCH   4  15
TORSDOF 3
ENDMDL
MODEL 8
REMARK VINA RESULT:      -5.2      5.398      6.848
REMARK  3 active torsions:
REMARK  status: ('A' for Active; 'I' for Inactive)
REMARK       I    between atoms: C_2  and  N_3 
REMARK       I    between atoms: C_2  and  N_12 
REMARK    1  A    between atoms: N_3  and  C_4 
REMARK    2  A    between atoms: C_4  and  C_5 
REMARK    3  A    between atoms: N_12  and  C_13 
ROOT
HETATM    1  O   UNL     1     -43.768 -50.983  14.530  1.00  0.00    -0.247 OA
HETATM    2  C   UNL     1     -44.086 -50.892  13.351  1.00  0.00     0.320 C 
HETATM    3  N   UNL     1     -43.662 -49.849  12.544  1.00  0.00    -0.342 N 
HETATM    4  N   UNL     1     -44.859 -51.791  12.652  1.00  0.00    -0.306 N 
HETATM    5  H   UNL     1     -44.344 -49.566  11.854  1.00  0.00     0.164 HD
HETATM    6  H   UNL     1     -44.828 -51.760  11.645  1.00  0.00     0.171 HD
ENDROOT
BRANCH   3   7
HETATM    7  C   UNL     1     -42.874 -48.791  13.143  1.00  0.00     0.130 C 
BRANCH   7   8
HETATM    8  C   UNL     1     -42.964 -47.476  12.369  1.00  0.00     0.018 C 
HETATM    9  C   UNL     1     -43.480 -47.667  10.926  1.00  0.00     0.022 C 
HETATM   10  C   UNL     1     -42.802 -46.678   9.975  1.00  0.00     0.141 C 
HETATM   11  S   UNL     1     -41.730 -45.656  10.955  1.00  0.00     0.144 S 
HETATM   12  O   UNL     1     -40.447 -45.530  10.299  1.00  0.00    -0.228 OA
HETATM   13  O   UNL     1     -42.485 -44.509  11.418  1.00  0.00    -0.228 OA
HETATM   14  C   UNL     1     -41.592 -46.810  12.289  1.00  0.00     0.146 C 
ENDBRANCH   7   8
ENDBRANCH   3   7
BRANCH   4  15
HETATM   15  C   UNL     1     -45.457 -52.890  13.239  1.00  0.00     0.070 A 
HETATM   16  C   UNL     1     -46.602 -52.999  14.061  1.00  0.00     0.138 A 
HETATM   17  N   UNL     1     -46.845 -54.259  14.433  1.00  0.00    -0.310 N 
HETATM   18  N   UNL     1     -45.849 -54.953  13.861  1.00  0.00    -0.310 N 
ATOM     19  HN  UNL     1     -47.606 -54.610  15.013  1.00  0.00     0.186 HD
HETATM   20  C   UNL     1     -45.006 -54.183  13.111  1.00  0.00     0.138 A 
HETATM   21  H   UNL     1     -45.807 -55.954  14.028  1.00  0.00     0.186 HD
ENDBRANCH   4  15
TORSDOF 3
ENDMDL
MODEL 9
REMARK VINA RESULT:      -5.1      4.759      5.688
REMARK  3 active torsions:
REMARK  status: ('A' for Active; 'I' for Inactive)
REMARK       I    between atoms: C_2  and  N_3 
REMARK       I    between atoms: C_2  and  N_12 
REMARK    1  A    between atoms: N_3  and  C_4 
REMARK    2  A    between atoms: C_4  and  C_5 
REMARK    3  A    between atoms: N_12  and  C_13 
ROOT
HETATM    1  O   UNL     1     -42.397 -50.821  12.880  1.00  0.00    -0.247 OA
HETATM    2  C   UNL     1     -41.769 -51.615  12.193  1.00  0.00     0.320 C 
HETATM    3  N   UNL     1     -40.723 -51.226  11.373  1.00  0.00    -0.342 N 
HETATM    4  N   UNL     1     -41.968 -52.976  12.146  1.00  0.00    -0.306 N 
HETATM    5  H   UNL     1     -40.655 -51.761  10.518  1.00  0.00     0.164 HD
HETATM    6  H   UNL     1     -41.232 -53.551  11.766  1.00  0.00     0.171 HD
ENDROOT
BRANCH   3   7
HETATM    7  C   UNL     1     -40.414 -49.813  11.274  1.00  0.00     0.130 C 
BRANCH   7   8
HETATM    8  C   UNL     1     -39.176 -49.420  12.081  1.00  0.00     0.018 C 
HETATM    9  C   UNL     1     -38.178 -50.587  12.248  1.00  0.00     0.022 C 
HETATM   10  C   UNL     1     -37.495 -50.520  13.615  1.00  0.00     0.141 C 
HETATM   11  S   UNL     1     -38.096 -49.062  14.434  1.00  0.00     0.144 S 
HETATM   12  O   UNL     1     -38.435 -49.381  15.803  1.00  0.00    -0.228 OA
HETATM   13  O   UNL     1     -37.236 -47.950  14.082  1.00  0.00    -0.228 OA
HETATM   14  C   UNL     1     -39.578 -48.947  13.476  1.00  0.00     0.146 C 
ENDBRANCH   7   8
ENDBRANCH   3   7
BRANCH   4  15
HETATM   15  C   UNL     1     -42.989 -53.615  12.825  1.00  0.00     0.070 A 
HETATM   16  C   UNL     1     -44.368 -53.729  12.538  1.00  0.00     0.138 A 
HETATM   17  N   UNL     1     -45.025 -54.434  13.465  1.00  0.00    -0.310 N 
HETATM   18  N   UNL     1     -44.070 -54.756  14.351  1.00  0.00    -0.310 N 
ATOM     19  HN  UNL     1     -46.017 -54.670  13.493  1.00  0.00     0.186 HD
HETATM   20  C   UNL     1     -42.826 -54.312  13.999  1.00  0.00     0.138 A 
HETATM   21  H   UNL     1     -44.342 -55.280  15.176  1.00  0.00     0.186 HD
ENDBRANCH   4  15
TORSDOF 3
ENDMDL
