MODEL 1
REMARK VINA RESULT:      -6.6      0.000      0.000
REMARK  5 active torsions:
REMARK  status: ('A' for Active; 'I' for Inactive)
REMARK    1  A    between atoms: O_2  and  C_3 
REMARK    2  A    between atoms: C_3  and  C_4 
REMARK    3  A    between atoms: N_7  and  C_8 
REMARK    4  A    between atoms: C_8  and  C_9 
REMARK       I    between atoms: C_9  and  N_11 
REMARK    5  A    between atoms: N_11  and  C_12 
ROOT
HETATM    1  C   UNL     1     -42.933 -52.287  12.620  1.00  0.00     0.237 C 
HETATM    2  O   UNL     1     -43.252 -51.416  13.423  1.00  0.00    -0.272 OA
HETATM    3  N   UNL     1     -43.817 -53.237  12.164  1.00  0.00    -0.355 N 
HETATM    4  H   UNL     1     -43.558 -53.757  11.334  1.00  0.00     0.162 HD
ENDROOT
BRANCH   1   5
HETATM    5  C   UNL     1     -41.561 -52.277  11.940  1.00  0.00     0.257 C 
BRANCH   5   6
HETATM    6  N   UNL     1     -40.996 -50.952  11.781  1.00  0.00    -0.226 N 
HETATM    7  N   UNL     1     -41.735 -49.877  11.369  1.00  0.00    -0.274 N 
HETATM    8  C   UNL     1     -40.856 -48.922  11.352  1.00  0.00     0.167 A 
ATOM      9  HN  UNL     1     -42.727 -49.837  11.134  1.00  0.00     0.189 HD
HETATM   10  O   UNL     1     -39.602 -49.263  11.722  1.00  0.00    -0.243 OA
HETATM   11  C   UNL     1     -39.698 -50.588  12.018  1.00  0.00     0.388 A 
HETATM   12  O   UNL     1     -38.796 -51.280  12.458  1.00  0.00    -0.236 OA
BRANCH   8  13
HETATM   13  C   UNL     1     -41.110 -47.482  11.024  1.00  0.00     0.253 C 
BRANCH  13  14
HETATM   14  O   UNL     1     -39.907 -46.731  10.970  1.00  0.00    -0.388 OA
HETATM   15  C   UNL     1     -40.148 -45.403  10.515  1.00  0.00     0.202 C 
ENDBRANCH  13  14
ENDBRANCH   8  13
ENDBRANCH   5   6
ENDBRANCH   1   5
BRANCH   3  16
HETATM   16  C   UNL     1     -45.160 -53.475  12.693  1.00  0.00     0.088 C 
HETATM   17  C   UNL     1     -46.126 -52.304  12.419  1.00  0.00     0.025 C 
HETATM   18  C   UNL     1     -46.480 -51.423  13.612  1.00  0.00     0.002 C 
HETATM   19  C   UNL     1     -46.753 -52.232  14.869  1.00  0.00     0.005 C 
HETATM   20  C   UNL     1     -45.522 -53.063  15.246  1.00  0.00    -0.013 C 
HETATM   21  C   UNL     1     -45.764 -53.738  16.603  1.00  0.00     0.010 C 
HETATM   22  C   UNL     1     -45.212 -54.084  14.125  1.00  0.00     0.008 C 
HETATM   23  C   UNL     1     -43.974 -54.934  14.446  1.00  0.00     0.012 C 
ENDBRANCH   3  16
TORSDOF 5
ENDMDL
MODEL 2
REMARK VINA RESULT:      -6.3      1.699      2.017
REMARK  5 active torsions:
REMARK  status: ('A' for Active; 'I' for Inactive)
REMARK    1  A    between atoms: O_2  and  C_3 
REMARK    2  A    between atoms: C_3  and  C_4 
REMARK    3  A    between atoms: N_7  and  C_8 
REMARK    4  A    between atoms: C_8  and  C_9 
REMARK       I    between atoms: C_9  and  N_11 
REMARK    5  A    between atoms: N_11  and  C_12 
ROOT
HETATM    1  C   UNL     1     -43.128 -51.234  13.055  1.00  0.00     0.237 C 
HETATM    2  O   UNL     1     -43.711 -50.551  13.892  1.00  0.00    -0.272 OA
HETATM    3  N   UNL     1     -43.718 -52.307  12.429  1.00  0.00    -0.355 N 
HETATM    4  H   UNL     1     -43.274 -52.660  11.590  1.00  0.00     0.162 HD
ENDROOT
BRANCH   1   5
HETATM    5  C   UNL     1     -41.747 -50.835  12.528  1.00  0.00     0.257 C 
BRANCH   5   6
HETATM    6  N   UNL     1     -41.750 -49.619  11.738  1.00  0.00    -0.226 N 
HETATM    7  N   UNL     1     -42.901 -49.041  11.277  1.00  0.00    -0.274 N 
HETATM    8  C   UNL     1     -42.454 -48.011  10.624  1.00  0.00     0.167 A 
ATOM      9  HN  UNL     1     -43.865 -49.342  11.412  1.00  0.00     0.189 HD
HETATM   10  O   UNL     1     -41.113 -47.849  10.616  1.00  0.00    -0.243 OA
HETATM   11  C   UNL     1     -40.653 -48.894  11.358  1.00  0.00     0.388 A 
HETATM   12  O   UNL     1     -39.488 -49.090  11.655  1.00  0.00    -0.236 OA
BRANCH   8  13
HETATM   13  C   UNL     1     -43.279 -46.963   9.939  1.00  0.00     0.253 C 
BRANCH  13  14
HETATM   14  O   UNL     1     -44.195 -47.532   9.016  1.00  0.00    -0.388 OA
HETATM   15  C   UNL     1     -43.563 -47.819   7.773  1.00  0.00     0.202 C 
ENDBRANCH  13  14
ENDBRANCH   8  13
ENDBRANCH   5   6
ENDBRANCH   1   5
BRANCH   3  16
HETATM   16  C   UNL     1     -45.004 -52.903  12.790  1.00  0.00     0.088 C 
HETATM   17  C   UNL     1     -46.179 -51.912  12.661  1.00  0.00     0.025 C 
HETATM   18  C   UNL     1     -46.759 -51.374  13.964  1.00  0.00     0.002 C 
HETATM   19  C   UNL     1     -46.913 -52.455  15.020  1.00  0.00     0.005 C 
HETATM   20  C   UNL     1     -45.554 -53.088  15.337  1.00  0.00    -0.013 C 
HETATM   21  C   UNL     1     -45.709 -54.055  16.519  1.00  0.00     0.010 C 
HETATM   22  C   UNL     1     -44.990 -53.784  14.075  1.00  0.00     0.008 C 
HETATM   23  C   UNL     1     -43.617 -54.423  14.332  1.00  0.00     0.012 C 
ENDBRANCH   3  16
TORSDOF 5
ENDMDL
MODEL 3
REMARK VINA RESULT:      -6.2      1.529      2.263
REMARK  5 active torsions:
REMARK  status: ('A' for Active; 'I' for Inactive)
REMARK    1  A    between atoms: O_2  and  C_3 
REMARK    2  A    between atoms: C_3  and  C_4 
REMARK    3  A    between atoms: N_7  and  C_8 
REMARK    4  A    between atoms: C_8  and  C_9 
REMARK       I    between atoms: C_9  and  N_11 
REMARK    5  A    between atoms: N_11  and  C_12 
ROOT
HETATM    1  C   UNL     1     -41.510 -52.926  13.375  1.00  0.00     0.237 C 
HETATM    2  O   UNL     1     -40.859 -52.914  14.415  1.00  0.00    -0.272 OA
HETATM    3  N   UNL     1     -42.879 -53.060  13.356  1.00  0.00    -0.355 N 
HETATM    4  H   UNL     1     -43.361 -52.816  12.499  1.00  0.00     0.162 HD
ENDROOT
BRANCH   1   5
HETATM    5  C   UNL     1     -40.854 -52.626  12.024  1.00  0.00     0.257 C 
BRANCH   5   6
HETATM    6  N   UNL     1     -40.609 -51.216  11.792  1.00  0.00    -0.226 N 
HETATM    7  N   UNL     1     -41.594 -50.348  11.408  1.00  0.00    -0.274 N 
HETATM    8  C   UNL     1     -40.952 -49.225  11.304  1.00  0.00     0.167 A 
ATOM      9  HN  UNL     1     -42.583 -50.536  11.245  1.00  0.00     0.189 HD
HETATM   10  O   UNL     1     -39.632 -49.266  11.591  1.00  0.00    -0.243 OA
HETATM   11  C   UNL     1     -39.411 -50.567  11.925  1.00  0.00     0.388 A 
HETATM   12  O   UNL     1     -38.352 -51.026  12.315  1.00  0.00    -0.236 OA
BRANCH   8  13
HETATM   13  C   UNL     1     -41.540 -47.890  10.960  1.00  0.00     0.253 C 
BRANCH  13  14
HETATM   14  O   UNL     1     -42.910 -47.992  10.599  1.00  0.00    -0.388 OA
HETATM   15  C   UNL     1     -43.130 -47.523   9.273  1.00  0.00     0.202 C 
ENDBRANCH  13  14
ENDBRANCH   8  13
ENDBRANCH   5   6
ENDBRANCH   1   5
BRANCH   3  16
HETATM   16  C   UNL     1     -43.718 -53.399  14.506  1.00  0.00     0.088 C 
HETATM   17  C   UNL     1     -44.321 -54.815  14.409  1.00  0.00     0.025 C 
HETATM   18  C   UNL     1     -45.808 -54.898  14.080  1.00  0.00     0.002 C 
HETATM   19  C   UNL     1     -46.629 -53.875  14.845  1.00  0.00     0.005 C 
HETATM   20  C   UNL     1     -46.154 -52.456  14.517  1.00  0.00    -0.013 C 
HETATM   21  C   UNL     1     -47.102 -51.442  15.170  1.00  0.00     0.010 C 
HETATM   22  C   UNL     1     -44.687 -52.273  14.975  1.00  0.00     0.008 C 
HETATM   23  C   UNL     1     -44.153 -50.869  14.654  1.00  0.00     0.012 C 
ENDBRANCH   3  16
TORSDOF 5
ENDMDL
MODEL 4
REMARK VINA RESULT:      -6.1      2.239      4.357
REMARK  5 active torsions:
REMARK  status: ('A' for Active; 'I' for Inactive)
REMARK    1  A    between atoms: O_2  and  C_3 
REMARK    2  A    between atoms: C_3  and  C_4 
REMARK    3  A    between atoms: N_7  and  C_8 
REMARK    4  A    between atoms: C_8  and  C_9 
REMARK       I    between atoms: C_9  and  N_11 
REMARK    5  A    between atoms: N_11  and  C_12 
ROOT
HETATM    1  C   UNL     1     -41.497 -49.290  11.718  1.00  0.00     0.237 C 
HETATM    2  O   UNL     1     -40.993 -48.650  12.635  1.00  0.00    -0.272 OA
HETATM    3  N   UNL     1     -42.021 -50.550  11.890  1.00  0.00    -0.355 N 
HETATM    4  H   UNL     1     -42.629 -50.907  11.164  1.00  0.00     0.162 HD
ENDROOT
BRANCH   1   5
HETATM    5  C   UNL     1     -41.725 -48.659  10.341  1.00  0.00     0.257 C 
BRANCH   5   6
HETATM    6  N   UNL     1     -41.607 -47.215  10.332  1.00  0.00    -0.226 N 
HETATM    7  N   UNL     1     -40.420 -46.569  10.547  1.00  0.00    -0.274 N 
HETATM    8  C   UNL     1     -40.763 -45.319  10.467  1.00  0.00     0.167 A 
ATOM      9  HN  UNL     1     -39.499 -46.969  10.724  1.00  0.00     0.189 HD
HETATM   10  O   UNL     1     -42.067 -45.076  10.212  1.00  0.00    -0.243 OA
HETATM   11  C   UNL     1     -42.616 -46.318  10.108  1.00  0.00     0.388 A 
HETATM   12  O   UNL     1     -43.776 -46.554   9.819  1.00  0.00    -0.236 OA
BRANCH   8  13
HETATM   13  C   UNL     1     -39.848 -44.136  10.569  1.00  0.00     0.253 C 
BRANCH  13  14
HETATM   14  O   UNL     1     -40.569 -42.922  10.720  1.00  0.00    -0.388 OA
HETATM   15  C   UNL     1     -40.452 -42.416  12.046  1.00  0.00     0.202 C 
ENDBRANCH  13  14
ENDBRANCH   8  13
ENDBRANCH   5   6
ENDBRANCH   1   5
BRANCH   3  16
HETATM   16  C   UNL     1     -41.885 -51.372  13.093  1.00  0.00     0.088 C 
HETATM   17  C   UNL     1     -40.627 -52.264  13.069  1.00  0.00     0.025 C 
HETATM   18  C   UNL     1     -40.855 -53.751  12.823  1.00  0.00     0.002 C 
HETATM   19  C   UNL     1     -42.040 -54.293  13.604  1.00  0.00     0.005 C 
HETATM   20  C   UNL     1     -43.321 -53.550  13.211  1.00  0.00    -0.013 C 
HETATM   21  C   UNL     1     -44.524 -54.224  13.887  1.00  0.00     0.010 C 
HETATM   22  C   UNL     1     -43.197 -52.053  13.584  1.00  0.00     0.008 C 
HETATM   23  C   UNL     1     -44.452 -51.256  13.195  1.00  0.00     0.012 C 
ENDBRANCH   3  16
TORSDOF 5
ENDMDL
MODEL 5
REMARK VINA RESULT:      -5.9      2.519      4.194
REMARK  5 active torsions:
REMARK  status: ('A' for Active; 'I' for Inactive)
REMARK    1  A    between atoms: O_2  and  C_3 
REMARK    2  A    between atoms: C_3  and  C_4 
REMARK    3  A    between atoms: N_7  and  C_8 
REMARK    4  A    between atoms: C_8  and  C_9 
REMARK       I    between atoms: C_9  and  N_11 
REMARK    5  A    between atoms: N_11  and  C_12 
ROOT
HETATM    1  C   UNL     1     -43.042 -52.259  12.651  1.00  0.00     0.237 C 
HETATM    2  O   UNL     1     -43.340 -51.415  13.490  1.00  0.00    -0.272 OA
HETATM    3  N   UNL     1     -43.943 -53.183  12.173  1.00  0.00    -0.355 N 
HETATM    4  H   UNL     1     -43.701 -53.675  11.322  1.00  0.00     0.162 HD
ENDROOT
BRANCH   1   5
HETATM    5  C   UNL     1     -41.680 -52.239  11.952  1.00  0.00     0.257 C 
BRANCH   5   6
HETATM    6  N   UNL     1     -40.592 -52.730  12.776  1.00  0.00    -0.226 N 
HETATM    7  N   UNL     1     -40.682 -53.881  13.509  1.00  0.00    -0.274 N 
HETATM    8  C   UNL     1     -39.521 -53.934  14.090  1.00  0.00     0.167 A 
ATOM      9  HN  UNL     1     -41.463 -54.533  13.582  1.00  0.00     0.189 HD
HETATM   10  O   UNL     1     -38.667 -52.927  13.803  1.00  0.00    -0.243 OA
HETATM   11  C   UNL     1     -39.363 -52.147  12.931  1.00  0.00     0.388 A 
HETATM   12  O   UNL     1     -38.931 -51.155  12.370  1.00  0.00    -0.236 OA
BRANCH   8  13
HETATM   13  C   UNL     1     -39.023 -55.025  14.989  1.00  0.00     0.253 C 
BRANCH  13  14
HETATM   14  O   UNL     1     -38.553 -54.516  16.228  1.00  0.00    -0.388 OA
HETATM   15  C   UNL     1     -39.635 -54.141  17.074  1.00  0.00     0.202 C 
ENDBRANCH  13  14
ENDBRANCH   8  13
ENDBRANCH   5   6
ENDBRANCH   1   5
BRANCH   3  16
HETATM   16  C   UNL     1     -45.281 -53.425  12.712  1.00  0.00     0.088 C 
HETATM   17  C   UNL     1     -46.233 -52.228  12.510  1.00  0.00     0.025 C 
HETATM   18  C   UNL     1     -46.554 -51.399  13.748  1.00  0.00     0.002 C 
HETATM   19  C   UNL     1     -46.820 -52.262  14.970  1.00  0.00     0.005 C 
HETATM   20  C   UNL     1     -45.597 -53.128  15.288  1.00  0.00    -0.013 C 
HETATM   21  C   UNL     1     -45.828 -53.863  16.615  1.00  0.00     0.010 C 
HETATM   22  C   UNL     1     -45.320 -54.100  14.116  1.00  0.00     0.008 C 
HETATM   23  C   UNL     1     -44.090 -54.983  14.375  1.00  0.00     0.012 C 
ENDBRANCH   3  16
TORSDOF 5
ENDMDL
MODEL 6
REMARK VINA RESULT:      -5.7      2.602      4.247
REMARK  5 active torsions:
REMARK  status: ('A' for Active; 'I' for Inactive)
REMARK    1  A    between atoms: O_2  and  C_3 
REMARK    2  A    between atoms: C_3  and  C_4 
REMARK    3  A    between atoms: N_7  and  C_8 
REMARK    4  A    between atoms: C_8  and  C_9 
REMARK       I    between atoms: C_9  and  N_11 
REMARK    5  A    between atoms: N_11  and  C_12 
ROOT
HETATM    1  C   UNL     1     -41.254 -49.601  12.234  1.00  0.00     0.237 C 
HETATM    2  O   UNL     1     -41.183 -48.890  13.231  1.00  0.00    -0.272 OA
HETATM    3  N   UNL     1     -41.816 -50.857  12.255  1.00  0.00    -0.355 N 
HETATM    4  H   UNL     1     -42.060 -51.275  11.365  1.00  0.00     0.162 HD
ENDROOT
BRANCH   1   5
HETATM    5  C   UNL     1     -40.865 -49.072  10.851  1.00  0.00     0.257 C 
BRANCH   5   6
HETATM    6  N   UNL     1     -41.709 -47.992  10.378  1.00  0.00    -0.226 N 
HETATM    7  N   UNL     1     -42.870 -48.209   9.688  1.00  0.00    -0.274 N 
HETATM    8  C   UNL     1     -43.287 -47.002   9.455  1.00  0.00     0.167 A 
ATOM      9  HN  UNL     1     -43.299 -49.096   9.424  1.00  0.00     0.189 HD
HETATM   10  O   UNL     1     -42.512 -46.004   9.933  1.00  0.00    -0.243 OA
HETATM   11  C   UNL     1     -41.487 -46.652  10.551  1.00  0.00     0.388 A 
HETATM   12  O   UNL     1     -40.588 -46.118  11.176  1.00  0.00    -0.236 OA
BRANCH   8  13
HETATM   13  C   UNL     1     -44.561 -46.616   8.766  1.00  0.00     0.253 C 
BRANCH  13  14
HETATM   14  O   UNL     1     -45.705 -47.044   9.491  1.00  0.00    -0.388 OA
HETATM   15  C   UNL     1     -46.427 -48.039   8.774  1.00  0.00     0.202 C 
ENDBRANCH  13  14
ENDBRANCH   8  13
ENDBRANCH   5   6
ENDBRANCH   1   5
BRANCH   3  16
HETATM   16  C   UNL     1     -42.217 -51.591  13.455  1.00  0.00     0.088 C 
HETATM   17  C   UNL     1     -41.289 -52.783  13.765  1.00  0.00     0.025 C 
HETATM   18  C   UNL     1     -41.847 -54.171  13.475  1.00  0.00     0.002 C 
HETATM   19  C   UNL     1     -43.292 -54.319  13.922  1.00  0.00     0.005 C 
HETATM   20  C   UNL     1     -44.179 -53.297  13.204  1.00  0.00    -0.013 C 
HETATM   21  C   UNL     1     -45.649 -53.575  13.545  1.00  0.00     0.010 C 
HETATM   22  C   UNL     1     -43.745 -51.862  13.589  1.00  0.00     0.008 C 
HETATM   23  C   UNL     1     -44.594 -50.793  12.882  1.00  0.00     0.012 C 
ENDBRANCH   3  16
TORSDOF 5
ENDMDL
MODEL 7
REMARK VINA RESULT:      -5.6     14.252     15.639
REMARK  5 active torsions:
REMARK  status: ('A' for Active; 'I' for Inactive)
REMARK    1  A    between atoms: O_2  and  C_3 
REMARK    2  A    between atoms: C_3  and  C_4 
REMARK    3  A    between atoms: N_7  and  C_8 
REMARK    4  A    between atoms: C_8  and  C_9 
REMARK       I    between atoms: C_9  and  N_11 
REMARK    5  A    between atoms: N_11  and  C_12 
ROOT
HETATM    1  C   UNL     1     -50.581 -50.275  -0.031  1.00  0.00     0.237 C 
HETATM    2  O   UNL     1     -49.897 -50.464   0.970  1.00  0.00    -0.272 OA
HETATM    3  N   UNL     1     -51.129 -51.303  -0.762  1.00  0.00    -0.355 N 
HETATM    4  H   UNL     1     -51.869 -51.071  -1.413  1.00  0.00     0.162 HD
ENDROOT
BRANCH   1   5
HETATM    5  C   UNL     1     -51.009 -48.864  -0.446  1.00  0.00     0.257 C 
BRANCH   5   6
HETATM    6  N   UNL     1     -50.908 -47.885   0.618  1.00  0.00    -0.226 N 
HETATM    7  N   UNL     1     -49.786 -47.131   0.824  1.00  0.00    -0.274 N 
HETATM    8  C   UNL     1     -50.114 -46.417   1.858  1.00  0.00     0.167 A 
ATOM      9  HN  UNL     1     -48.913 -47.129   0.298  1.00  0.00     0.189 HD
HETATM   10  O   UNL     1     -51.354 -46.625   2.353  1.00  0.00    -0.243 OA
HETATM   11  C   UNL     1     -51.879 -47.575   1.532  1.00  0.00     0.388 A 
HETATM   12  O   UNL     1     -53.016 -48.008   1.590  1.00  0.00    -0.236 OA
BRANCH   8  13
HETATM   13  C   UNL     1     -49.281 -45.355   2.510  1.00  0.00     0.253 C 
BRANCH  13  14
HETATM   14  O   UNL     1     -50.080 -44.400   3.192  1.00  0.00    -0.388 OA
HETATM   15  C   UNL     1     -49.274 -43.493   3.937  1.00  0.00     0.202 C 
ENDBRANCH  13  14
ENDBRANCH   8  13
ENDBRANCH   5   6
ENDBRANCH   1   5
BRANCH   3  16
HETATM   16  C   UNL     1     -50.831 -52.725  -0.588  1.00  0.00     0.088 C 
HETATM   17  C   UNL     1     -49.462 -53.125  -1.177  1.00  0.00     0.025 C 
HETATM   18  C   UNL     1     -49.489 -53.919  -2.478  1.00  0.00     0.002 C 
HETATM   19  C   UNL     1     -50.554 -55.002  -2.474  1.00  0.00     0.005 C 
HETATM   20  C   UNL     1     -51.941 -54.385  -2.271  1.00  0.00    -0.013 C 
HETATM   21  C   UNL     1     -53.009 -55.475  -2.437  1.00  0.00     0.010 C 
HETATM   22  C   UNL     1     -52.014 -53.693  -0.889  1.00  0.00     0.008 C 
HETATM   23  C   UNL     1     -53.382 -53.041  -0.640  1.00  0.00     0.012 C 
ENDBRANCH   3  16
TORSDOF 5
ENDMDL
MODEL 8
REMARK VINA RESULT:      -5.6      1.758      2.705
REMARK  5 active torsions:
REMARK  status: ('A' for Active; 'I' for Inactive)
REMARK    1  A    between atoms: O_2  and  C_3 
REMARK    2  A    between atoms: C_3  and  C_4 
REMARK    3  A    between atoms: N_7  and  C_8 
REMARK    4  A    between atoms: C_8  and  C_9 
REMARK       I    between atoms: C_9  and  N_11 
REMARK    5  A    between atoms: N_11  and  C_12 
ROOT
HETATM    1  C   UNL     1     -42.944 -52.340  12.639  1.00  0.00     0.237 C 
HETATM    2  O   UNL     1     -43.213 -51.502  13.494  1.00  0.00    -0.272 OA
HETATM    3  N   UNL     1     -43.871 -53.237  12.159  1.00  0.00    -0.355 N 
HETATM    4  H   UNL     1     -43.650 -53.721  11.298  1.00  0.00     0.162 HD
ENDROOT
BRANCH   1   5
HETATM    5  C   UNL     1     -41.590 -52.338  11.923  1.00  0.00     0.257 C 
BRANCH   5   6
HETATM    6  N   UNL     1     -40.581 -51.533  12.582  1.00  0.00    -0.226 N 
HETATM    7  N   UNL     1     -40.068 -51.850  13.810  1.00  0.00    -0.274 N 
HETATM    8  C   UNL     1     -39.229 -50.882  14.021  1.00  0.00     0.167 A 
ATOM      9  HN  UNL     1     -40.289 -52.646  14.408  1.00  0.00     0.189 HD
HETATM   10  O   UNL     1     -39.133 -49.955  13.043  1.00  0.00    -0.243 OA
HETATM   11  C   UNL     1     -40.007 -50.390  12.094  1.00  0.00     0.388 A 
HETATM   12  O   UNL     1     -40.184 -49.871  11.006  1.00  0.00    -0.236 OA
BRANCH   8  13
HETATM   13  C   UNL     1     -38.324 -50.730  15.206  1.00  0.00     0.253 C 
BRANCH  13  14
HETATM   14  O   UNL     1     -38.170 -49.369  15.583  1.00  0.00    -0.388 OA
HETATM   15  C   UNL     1     -36.795 -49.004  15.646  1.00  0.00     0.202 C 
ENDBRANCH  13  14
ENDBRANCH   8  13
ENDBRANCH   5   6
ENDBRANCH   1   5
BRANCH   3  16
HETATM   16  C   UNL     1     -45.207 -53.458  12.712  1.00  0.00     0.088 C 
HETATM   17  C   UNL     1     -46.151 -52.258  12.493  1.00  0.00     0.025 C 
HETATM   18  C   UNL     1     -46.457 -51.404  13.718  1.00  0.00     0.002 C 
HETATM   19  C   UNL     1     -46.721 -52.242  14.958  1.00  0.00     0.005 C 
HETATM   20  C   UNL     1     -45.502 -53.111  15.283  1.00  0.00    -0.013 C 
HETATM   21  C   UNL     1     -45.730 -53.819  16.626  1.00  0.00     0.010 C 
HETATM   22  C   UNL     1     -45.242 -54.107  14.128  1.00  0.00     0.008 C 
HETATM   23  C   UNL     1     -44.017 -54.994  14.396  1.00  0.00     0.012 C 
ENDBRANCH   3  16
TORSDOF 5
ENDMDL
MODEL 9
REMARK VINA RESULT:      -5.6      2.500      3.241
REMARK  5 active torsions:
REMARK  status: ('A' for Active; 'I' for Inactive)
REMARK    1  A    between atoms: O_2  and  C_3 
REMARK    2  A    between atoms: C_3  and  C_4 
REMARK    3  A    between atoms: N_7  and  C_8 
REMARK    4  A    between atoms: C_8  and  C_9 
REMARK       I    between atoms: C_9  and  N_11 
REMARK    5  A    between atoms: N_11  and  C_12 
ROOT
HETATM    1  C   UNL     1     -40.781 -52.608  14.302  1.00  0.00     0.237 C 
HETATM    2  O   UNL     1     -40.485 -52.400  15.475  1.00  0.00    -0.272 OA
HETATM    3  N   UNL     1     -42.068 -52.872  13.895  1.00  0.00    -0.355 N 
HETATM    4  H   UNL     1     -42.272 -52.788  12.906  1.00  0.00     0.162 HD
ENDROOT
BRANCH   1   5
HETATM    5  C   UNL     1     -39.754 -52.427  13.180  1.00  0.00     0.257 C 
BRANCH   5   6
HETATM    6  N   UNL     1     -39.095 -51.136  13.193  1.00  0.00    -0.226 N 
HETATM    7  N   UNL     1     -39.703 -50.000  13.654  1.00  0.00    -0.274 N 
HETATM    8  C   UNL     1     -38.786 -49.099  13.474  1.00  0.00     0.167 A 
ATOM      9  HN  UNL     1     -40.639 -49.890  14.043  1.00  0.00     0.189 HD
HETATM   10  O   UNL     1     -37.623 -49.534  12.941  1.00  0.00    -0.243 OA
HETATM   11  C   UNL     1     -37.820 -50.870  12.771  1.00  0.00     0.388 A 
HETATM   12  O   UNL     1     -36.986 -51.661  12.369  1.00  0.00    -0.236 OA
BRANCH   8  13
HETATM   13  C   UNL     1     -38.872 -47.651  13.852  1.00  0.00     0.253 C 
BRANCH  13  14
HETATM   14  O   UNL     1     -37.736 -47.229  14.593  1.00  0.00    -0.388 OA
HETATM   15  C   UNL     1     -37.780 -47.722  15.928  1.00  0.00     0.202 C 
ENDBRANCH  13  14
ENDBRANCH   8  13
ENDBRANCH   5   6
ENDBRANCH   1   5
BRANCH   3  16
HETATM   16  C   UNL     1     -43.204 -53.135  14.778  1.00  0.00     0.088 C 
HETATM   17  C   UNL     1     -43.674 -54.603  14.726  1.00  0.00     0.025 C 
HETATM   18  C   UNL     1     -44.978 -54.872  13.984  1.00  0.00     0.002 C 
HETATM   19  C   UNL     1     -46.048 -53.841  14.299  1.00  0.00     0.005 C 
HETATM   20  C   UNL     1     -45.568 -52.438  13.912  1.00  0.00    -0.013 C 
HETATM   21  C   UNL     1     -46.722 -51.442  14.085  1.00  0.00     0.010 C 
HETATM   22  C   UNL     1     -44.327 -52.056  14.755  1.00  0.00     0.008 C 
HETATM   23  C   UNL     1     -43.792 -50.661  14.395  1.00  0.00     0.012 C 
ENDBRANCH   3  16
TORSDOF 5
ENDMDL
