MODEL 1
REMARK VINA RESULT:      -5.7      0.000      0.000
REMARK  5 active torsions:
REMARK  status: ('A' for Active; 'I' for Inactive)
REMARK    1  A    between atoms: C_2  and  C_3 
REMARK    2  A    between atoms: C_2  and  N_14 
REMARK       I    between atoms: C_3  and  N_5 
REMARK    3  A    between atoms: N_5  and  C_6 
REMARK    4  A    between atoms: C_6  and  C_7 
REMARK    5  A    between atoms: C_7  and  N_8 
ROOT
HETATM    1  C   UNL     1     -41.733 -48.964  11.266  1.00  0.00     0.242 C 
HETATM    2  O   UNL     1     -40.532 -49.180  11.094  1.00  0.00    -0.271 OA
HETATM    3  N   UNL     1     -42.568 -49.891  11.862  1.00  0.00    -0.358 N 
HETATM    4  H   UNL     1     -43.494 -49.576  12.155  1.00  0.00     0.162 HD
ENDROOT
BRANCH   1   5
HETATM    5  C   UNL     1     -42.318 -47.613  10.883  1.00  0.00     0.196 C 
HETATM    6  C   UNL     1     -43.072 -46.998  12.058  1.00  0.00     0.044 C 
BRANCH   5   7
HETATM    7  N   UNL     1     -43.117 -47.663   9.673  1.00  0.00    -0.273 N 
HETATM    8  C   UNL     1     -44.446 -47.399   9.549  1.00  0.00     0.202 A 
HETATM    9  N   UNL     1     -44.819 -47.609   8.308  1.00  0.00    -0.346 N 
HETATM   10  C   UNL     1     -43.666 -48.008   7.699  1.00  0.00     0.198 A 
ATOM     11  HN  UNL     1     -45.746 -47.500   7.898  1.00  0.00     0.167 HD
HETATM   12  N   UNL     1     -42.587 -48.040   8.488  1.00  0.00    -0.292 N 
ATOM     13  HN  UNL     1     -41.624 -48.283   8.258  1.00  0.00     0.188 HD
ENDBRANCH   5   7
ENDBRANCH   1   5
BRANCH   3  14
HETATM   14  C   UNL     1     -42.009 -51.101  12.441  1.00  0.00     0.152 C 
BRANCH  14  15
HETATM   15  C   UNL     1     -43.022 -51.974  13.212  1.00  0.00     0.292 C 
BRANCH  15  16
HETATM   16  N   UNL     1     -43.012 -53.377  12.747  1.00  0.00     0.094 N 
HETATM   17  C   UNL     1     -44.362 -53.980  12.628  1.00  0.00     0.298 C 
HETATM   18  C   UNL     1     -45.004 -54.368  13.970  1.00  0.00     0.198 C 
HETATM   19  O   UNL     1     -44.160 -55.262  14.703  1.00  0.00    -0.388 OA
HETATM   20  C   UNL     1     -42.878 -54.666  14.933  1.00  0.00     0.198 C 
HETATM   21  C   UNL     1     -42.196 -54.256  13.615  1.00  0.00     0.298 C 
ENDBRANCH  15  16
ENDBRANCH  14  15
ENDBRANCH   3  14
TORSDOF 5
ENDMDL
MODEL 2
REMARK VINA RESULT:      -5.6      1.641      1.860
REMARK  5 active torsions:
REMARK  status: ('A' for Active; 'I' for Inactive)
REMARK    1  A    between atoms: C_2  and  C_3 
REMARK    2  A    between atoms: C_2  and  N_14 
REMARK       I    between atoms: C_3  and  N_5 
REMARK    3  A    between atoms: N_5  and  C_6 
REMARK    4  A    between atoms: C_6  and  C_7 
REMARK    5  A    between atoms: C_7  and  N_8 
ROOT
HETATM    1  C   UNL     1     -42.664 -48.230  11.437  1.00  0.00     0.242 C 
HETATM    2  O   UNL     1     -43.230 -47.745  12.419  1.00  0.00    -0.271 OA
HETATM    3  N   UNL     1     -42.109 -49.496  11.461  1.00  0.00    -0.358 N 
HETATM    4  H   UNL     1     -41.839 -49.912  10.568  1.00  0.00     0.162 HD
ENDROOT
BRANCH   1   5
HETATM    5  C   UNL     1     -42.630 -47.455  10.128  1.00  0.00     0.196 C 
HETATM    6  C   UNL     1     -41.730 -46.230  10.249  1.00  0.00     0.044 C 
BRANCH   5   7
HETATM    7  N   UNL     1     -43.953 -47.128   9.629  1.00  0.00    -0.273 N 
HETATM    8  C   UNL     1     -44.336 -45.990   8.989  1.00  0.00     0.202 A 
HETATM    9  N   UNL     1     -45.625 -46.039   8.745  1.00  0.00    -0.346 N 
HETATM   10  C   UNL     1     -45.995 -47.245   9.264  1.00  0.00     0.198 A 
ATOM     11  HN  UNL     1     -46.209 -45.344   8.281  1.00  0.00     0.167 HD
HETATM   12  N   UNL     1     -45.002 -47.963   9.801  1.00  0.00    -0.292 N 
ATOM     13  HN  UNL     1     -45.030 -48.889  10.226  1.00  0.00     0.188 HD
ENDBRANCH   5   7
ENDBRANCH   1   5
BRANCH   3  14
HETATM   14  C   UNL     1     -42.313 -50.355  12.616  1.00  0.00     0.152 C 
BRANCH  14  15
HETATM   15  C   UNL     1     -41.251 -51.461  12.792  1.00  0.00     0.292 C 
BRANCH  15  16
HETATM   16  N   UNL     1     -41.727 -52.769  12.295  1.00  0.00     0.094 N 
HETATM   17  C   UNL     1     -43.159 -53.034  12.577  1.00  0.00     0.298 C 
HETATM   18  C   UNL     1     -43.459 -53.413  14.036  1.00  0.00     0.198 C 
HETATM   19  O   UNL     1     -42.690 -54.551  14.440  1.00  0.00    -0.388 OA
HETATM   20  C   UNL     1     -41.290 -54.290  14.283  1.00  0.00     0.198 C 
HETATM   21  C   UNL     1     -40.941 -53.901  12.835  1.00  0.00     0.298 C 
ENDBRANCH  15  16
ENDBRANCH  14  15
ENDBRANCH   3  14
TORSDOF 5
ENDMDL
MODEL 3
REMARK VINA RESULT:      -5.5      1.536      2.296
REMARK  5 active torsions:
REMARK  status: ('A' for Active; 'I' for Inactive)
REMARK    1  A    between atoms: C_2  and  C_3 
REMARK    2  A    between atoms: C_2  and  N_14 
REMARK       I    between atoms: C_3  and  N_5 
REMARK    3  A    between atoms: N_5  and  C_6 
REMARK    4  A    between atoms: C_6  and  C_7 
REMARK    5  A    between atoms: C_7  and  N_8 
ROOT
HETATM    1  C   UNL     1     -40.634 -50.425  12.114  1.00  0.00     0.242 C 
HETATM    2  O   UNL     1     -40.478 -50.371  13.336  1.00  0.00    -0.271 OA
HETATM    3  N   UNL     1     -41.063 -51.576  11.480  1.00  0.00    -0.358 N 
HETATM    4  H   UNL     1     -41.363 -51.497  10.507  1.00  0.00     0.162 HD
ENDROOT
BRANCH   1   5
HETATM    5  C   UNL     1     -40.423 -49.176  11.272  1.00  0.00     0.196 C 
HETATM    6  C   UNL     1     -39.512 -48.187  11.991  1.00  0.00     0.044 C 
BRANCH   5   7
HETATM    7  N   UNL     1     -41.667 -48.571  10.833  1.00  0.00    -0.273 N 
HETATM    8  C   UNL     1     -42.791 -48.365  11.572  1.00  0.00     0.202 A 
HETATM    9  N   UNL     1     -43.726 -47.847  10.810  1.00  0.00    -0.346 N 
HETATM   10  C   UNL     1     -43.119 -47.754   9.592  1.00  0.00     0.198 A 
ATOM     11  HN  UNL     1     -44.676 -47.579  11.067  1.00  0.00     0.167 HD
HETATM   12  N   UNL     1     -41.848 -48.168   9.556  1.00  0.00    -0.292 N 
ATOM     13  HN  UNL     1     -41.192 -48.176   8.775  1.00  0.00     0.188 HD
ENDBRANCH   5   7
ENDBRANCH   1   5
BRANCH   3  14
HETATM   14  C   UNL     1     -41.488 -52.721  12.267  1.00  0.00     0.152 C 
BRANCH  14  15
HETATM   15  C   UNL     1     -43.013 -52.956  12.293  1.00  0.00     0.292 C 
BRANCH  15  16
HETATM   16  N   UNL     1     -43.580 -52.769  13.645  1.00  0.00     0.094 N 
HETATM   17  C   UNL     1     -42.810 -53.445  14.718  1.00  0.00     0.298 C 
HETATM   18  C   UNL     1     -43.012 -54.968  14.780  1.00  0.00     0.198 C 
HETATM   19  O   UNL     1     -44.398 -55.296  14.927  1.00  0.00    -0.388 OA
HETATM   20  C   UNL     1     -45.160 -54.749  13.845  1.00  0.00     0.198 C 
HETATM   21  C   UNL     1     -44.985 -53.223  13.739  1.00  0.00     0.298 C 
ENDBRANCH  15  16
ENDBRANCH  14  15
ENDBRANCH   3  14
TORSDOF 5
ENDMDL
MODEL 4
REMARK VINA RESULT:      -5.4      1.708      1.972
REMARK  5 active torsions:
REMARK  status: ('A' for Active; 'I' for Inactive)
REMARK    1  A    between atoms: C_2  and  C_3 
REMARK    2  A    between atoms: C_2  and  N_14 
REMARK       I    between atoms: C_3  and  N_5 
REMARK    3  A    between atoms: N_5  and  C_6 
REMARK    4  A    between atoms: C_6  and  C_7 
REMARK    5  A    between atoms: C_7  and  N_8 
ROOT
HETATM    1  C   UNL     1     -42.942 -48.470  11.932  1.00  0.00     0.242 C 
HETATM    2  O   UNL     1     -43.232 -47.688  12.839  1.00  0.00    -0.271 OA
HETATM    3  N   UNL     1     -42.960 -49.841  12.112  1.00  0.00    -0.358 N 
HETATM    4  H   UNL     1     -42.908 -50.429  11.279  1.00  0.00     0.162 HD
ENDROOT
BRANCH   1   5
HETATM    5  C   UNL     1     -42.622 -47.931  10.546  1.00  0.00     0.196 C 
HETATM    6  C   UNL     1     -41.440 -46.970  10.599  1.00  0.00     0.044 C 
BRANCH   5   7
HETATM    7  N   UNL     1     -43.777 -47.357   9.881  1.00  0.00    -0.273 N 
HETATM    8  C   UNL     1     -43.838 -46.183   9.196  1.00  0.00     0.202 A 
HETATM    9  N   UNL     1     -45.069 -45.977   8.789  1.00  0.00    -0.346 N 
HETATM   10  C   UNL     1     -45.738 -47.069   9.257  1.00  0.00     0.198 A 
ATOM     11  HN  UNL     1     -45.436 -45.191   8.253  1.00  0.00     0.167 HD
HETATM   12  N   UNL     1     -44.988 -47.957   9.918  1.00  0.00    -0.292 N 
ATOM     13  HN  UNL     1     -45.257 -48.847  10.337  1.00  0.00     0.188 HD
ENDBRANCH   5   7
ENDBRANCH   1   5
BRANCH   3  14
HETATM   14  C   UNL     1     -43.472 -50.402  13.351  1.00  0.00     0.152 C 
BRANCH  14  15
HETATM   15  C   UNL     1     -43.324 -51.933  13.474  1.00  0.00     0.292 C 
BRANCH  15  16
HETATM   16  N   UNL     1     -44.322 -52.655  12.656  1.00  0.00     0.094 N 
HETATM   17  C   UNL     1     -45.726 -52.279  12.952  1.00  0.00     0.298 C 
HETATM   18  C   UNL     1     -46.280 -52.872  14.256  1.00  0.00     0.198 C 
HETATM   19  O   UNL     1     -46.174 -54.299  14.258  1.00  0.00    -0.388 OA
HETATM   20  C   UNL     1     -44.809 -54.700  14.083  1.00  0.00     0.198 C 
HETATM   21  C   UNL     1     -44.207 -54.124  12.788  1.00  0.00     0.298 C 
ENDBRANCH  15  16
ENDBRANCH  14  15
ENDBRANCH   3  14
TORSDOF 5
ENDMDL
MODEL 5
REMARK VINA RESULT:      -5.3      3.453      4.495
REMARK  5 active torsions:
REMARK  status: ('A' for Active; 'I' for Inactive)
REMARK    1  A    between atoms: C_2  and  C_3 
REMARK    2  A    between atoms: C_2  and  N_14 
REMARK       I    between atoms: C_3  and  N_5 
REMARK    3  A    between atoms: N_5  and  C_6 
REMARK    4  A    between atoms: C_6  and  C_7 
REMARK    5  A    between atoms: C_7  and  N_8 
ROOT
HETATM    1  C   UNL     1     -42.661 -48.179  11.128  1.00  0.00     0.242 C 
HETATM    2  O   UNL     1     -43.355 -47.910  12.111  1.00  0.00    -0.271 OA
HETATM    3  N   UNL     1     -41.866 -49.309  11.078  1.00  0.00    -0.358 N 
HETATM    4  H   UNL     1     -41.479 -49.577  10.172  1.00  0.00     0.162 HD
ENDROOT
BRANCH   1   5
HETATM    5  C   UNL     1     -42.726 -47.291   9.895  1.00  0.00     0.196 C 
HETATM    6  C   UNL     1     -41.902 -46.024  10.098  1.00  0.00     0.044 C 
BRANCH   5   7
HETATM    7  N   UNL     1     -44.084 -47.010   9.469  1.00  0.00    -0.273 N 
HETATM    8  C   UNL     1     -44.572 -45.837   8.983  1.00  0.00     0.202 A 
HETATM    9  N   UNL     1     -45.861 -45.957   8.763  1.00  0.00    -0.346 N 
HETATM   10  C   UNL     1     -46.122 -47.242   9.137  1.00  0.00     0.198 A 
ATOM     11  HN  UNL     1     -46.510 -45.258   8.401  1.00  0.00     0.167 HD
HETATM   12  N   UNL     1     -45.062 -47.939   9.560  1.00  0.00    -0.292 N 
ATOM     13  HN  UNL     1     -45.007 -48.909   9.868  1.00  0.00     0.188 HD
ENDBRANCH   5   7
ENDBRANCH   1   5
BRANCH   3  14
HETATM   14  C   UNL     1     -41.944 -50.297  12.141  1.00  0.00     0.152 C 
BRANCH  14  15
HETATM   15  C   UNL     1     -40.765 -50.268  13.136  1.00  0.00     0.292 C 
BRANCH  15  16
HETATM   16  N   UNL     1     -39.591 -49.559  12.584  1.00  0.00     0.094 N 
HETATM   17  C   UNL     1     -38.504 -50.461  12.131  1.00  0.00     0.298 C 
HETATM   18  C   UNL     1     -37.672 -51.074  13.269  1.00  0.00     0.198 C 
HETATM   19  O   UNL     1     -37.111 -50.054  14.102  1.00  0.00    -0.388 OA
HETATM   20  C   UNL     1     -38.145 -49.226  14.647  1.00  0.00     0.198 C 
HETATM   21  C   UNL     1     -39.010 -48.593  13.542  1.00  0.00     0.298 C 
ENDBRANCH  15  16
ENDBRANCH  14  15
ENDBRANCH   3  14
TORSDOF 5
ENDMDL
MODEL 6
REMARK VINA RESULT:      -5.3      5.190      6.805
REMARK  5 active torsions:
REMARK  status: ('A' for Active; 'I' for Inactive)
REMARK    1  A    between atoms: C_2  and  C_3 
REMARK    2  A    between atoms: C_2  and  N_14 
REMARK       I    between atoms: C_3  and  N_5 
REMARK    3  A    between atoms: N_5  and  C_6 
REMARK    4  A    between atoms: C_6  and  C_7 
REMARK    5  A    between atoms: C_7  and  N_8 
ROOT
HETATM    1  C   UNL     1     -42.947 -47.022   9.930  1.00  0.00     0.242 C 
HETATM    2  O   UNL     1     -43.305 -48.006  10.581  1.00  0.00    -0.271 OA
HETATM    3  N   UNL     1     -41.682 -46.479  10.057  1.00  0.00    -0.358 N 
HETATM    4  H   UNL     1     -41.384 -45.802   9.353  1.00  0.00     0.162 HD
ENDROOT
BRANCH   1   5
HETATM    5  C   UNL     1     -43.887 -46.420   8.897  1.00  0.00     0.196 C 
HETATM    6  C   UNL     1     -44.146 -44.947   9.196  1.00  0.00     0.044 C 
BRANCH   5   7
HETATM    7  N   UNL     1     -45.113 -47.179   8.736  1.00  0.00    -0.273 N 
HETATM    8  C   UNL     1     -46.336 -46.898   9.264  1.00  0.00     0.202 A 
HETATM    9  N   UNL     1     -47.180 -47.850   8.942  1.00  0.00    -0.346 N 
HETATM   10  C   UNL     1     -46.417 -48.707   8.205  1.00  0.00     0.198 A 
ATOM     11  HN  UNL     1     -48.168 -47.929   9.184  1.00  0.00     0.167 HD
HETATM   12  N   UNL     1     -45.145 -48.333   8.032  1.00  0.00    -0.292 N 
ATOM     13  HN  UNL     1     -44.400 -48.794   7.510  1.00  0.00     0.188 HD
ENDBRANCH   5   7
ENDBRANCH   1   5
BRANCH   3  14
HETATM   14  C   UNL     1     -40.681 -47.155  10.865  1.00  0.00     0.152 C 
BRANCH  14  15
HETATM   15  C   UNL     1     -40.067 -46.290  11.987  1.00  0.00     0.292 C 
BRANCH  15  16
HETATM   16  N   UNL     1     -41.012 -45.264  12.476  1.00  0.00     0.094 N 
HETATM   17  C   UNL     1     -40.617 -43.875  12.138  1.00  0.00     0.298 C 
HETATM   18  C   UNL     1     -39.472 -43.315  12.997  1.00  0.00     0.198 C 
HETATM   19  O   UNL     1     -39.796 -43.378  14.390  1.00  0.00    -0.388 OA
HETATM   20  C   UNL     1     -40.078 -44.728  14.778  1.00  0.00     0.198 C 
HETATM   21  C   UNL     1     -41.218 -45.335  13.940  1.00  0.00     0.298 C 
ENDBRANCH  15  16
ENDBRANCH  14  15
ENDBRANCH   3  14
TORSDOF 5
ENDMDL
MODEL 7
REMARK VINA RESULT:      -5.1      1.811      2.499
REMARK  5 active torsions:
REMARK  status: ('A' for Active; 'I' for Inactive)
REMARK    1  A    between atoms: C_2  and  C_3 
REMARK    2  A    between atoms: C_2  and  N_14 
REMARK       I    between atoms: C_3  and  N_5 
REMARK    3  A    between atoms: N_5  and  C_6 
REMARK    4  A    between atoms: C_6  and  C_7 
REMARK    5  A    between atoms: C_7  and  N_8 
ROOT
HETATM    1  C   UNL     1     -41.584 -48.756  11.487  1.00  0.00     0.242 C 
HETATM    2  O   UNL     1     -40.380 -48.741  11.747  1.00  0.00    -0.271 OA
HETATM    3  N   UNL     1     -42.376 -49.861  11.737  1.00  0.00    -0.358 N 
HETATM    4  H   UNL     1     -43.388 -49.740  11.688  1.00  0.00     0.162 HD
ENDROOT
BRANCH   1   5
HETATM    5  C   UNL     1     -42.252 -47.503  10.941  1.00  0.00     0.196 C 
HETATM    6  C   UNL     1     -42.853 -47.766   9.564  1.00  0.00     0.044 C 
BRANCH   5   7
HETATM    7  N   UNL     1     -41.379 -46.343  10.955  1.00  0.00    -0.273 N 
HETATM    8  C   UNL     1     -41.605 -45.146  11.563  1.00  0.00     0.202 A 
HETATM    9  N   UNL     1     -40.611 -44.330  11.302  1.00  0.00    -0.346 N 
HETATM   10  C   UNL     1     -39.788 -45.082  10.517  1.00  0.00     0.198 A 
ATOM     11  HN  UNL     1     -40.485 -43.366  11.611  1.00  0.00     0.167 HD
HETATM   12  N   UNL     1     -40.203 -46.332  10.289  1.00  0.00    -0.292 N 
ATOM     13  HN  UNL     1     -39.754 -47.077   9.757  1.00  0.00     0.188 HD
ENDBRANCH   5   7
ENDBRANCH   1   5
BRANCH   3  14
HETATM   14  C   UNL     1     -41.827 -50.996  12.460  1.00  0.00     0.152 C 
BRANCH  14  15
HETATM   15  C   UNL     1     -42.874 -51.865  13.188  1.00  0.00     0.292 C 
BRANCH  15  16
HETATM   16  N   UNL     1     -42.895 -53.252  12.678  1.00  0.00     0.094 N 
HETATM   17  C   UNL     1     -44.255 -53.839  12.590  1.00  0.00     0.298 C 
HETATM   18  C   UNL     1     -44.852 -54.263  13.941  1.00  0.00     0.198 C 
HETATM   19  O   UNL     1     -43.991 -55.189  14.614  1.00  0.00    -0.388 OA
HETATM   20  C   UNL     1     -42.695 -54.613  14.815  1.00  0.00     0.198 C 
HETATM   21  C   UNL     1     -42.058 -54.165  13.486  1.00  0.00     0.298 C 
ENDBRANCH  15  16
ENDBRANCH  14  15
ENDBRANCH   3  14
TORSDOF 5
ENDMDL
MODEL 8
REMARK VINA RESULT:      -5.1      3.709      5.272
REMARK  5 active torsions:
REMARK  status: ('A' for Active; 'I' for Inactive)
REMARK    1  A    between atoms: C_2  and  C_3 
REMARK    2  A    between atoms: C_2  and  N_14 
REMARK       I    between atoms: C_3  and  N_5 
REMARK    3  A    between atoms: N_5  and  C_6 
REMARK    4  A    between atoms: C_6  and  C_7 
REMARK    5  A    between atoms: C_7  and  N_8 
ROOT
HETATM    1  C   UNL     1     -42.273 -53.968  13.242  1.00  0.00     0.242 C 
HETATM    2  O   UNL     1     -42.489 -54.226  14.428  1.00  0.00    -0.271 OA
HETATM    3  N   UNL     1     -43.295 -53.855  12.318  1.00  0.00    -0.358 N 
HETATM    4  H   UNL     1     -43.070 -53.445  11.410  1.00  0.00     0.162 HD
ENDROOT
BRANCH   1   5
HETATM    5  C   UNL     1     -40.851 -53.690  12.778  1.00  0.00     0.196 C 
HETATM    6  C   UNL     1     -39.840 -54.321  13.729  1.00  0.00     0.044 C 
BRANCH   5   7
HETATM    7  N   UNL     1     -40.595 -52.279  12.550  1.00  0.00    -0.273 N 
HETATM    8  C   UNL     1     -40.100 -51.375  13.437  1.00  0.00     0.202 A 
HETATM    9  N   UNL     1     -40.067 -50.187  12.878  1.00  0.00    -0.346 N 
HETATM   10  C   UNL     1     -40.561 -50.418  11.628  1.00  0.00     0.198 A 
ATOM     11  HN  UNL     1     -39.748 -49.306  13.281  1.00  0.00     0.167 HD
HETATM   12  N   UNL     1     -40.883 -51.689  11.368  1.00  0.00    -0.292 N 
ATOM     13  HN  UNL     1     -41.247 -52.102  10.510  1.00  0.00     0.188 HD
ENDBRANCH   5   7
ENDBRANCH   1   5
BRANCH   3  14
HETATM   14  C   UNL     1     -44.679 -53.894  12.760  1.00  0.00     0.152 C 
BRANCH  14  15
HETATM   15  C   UNL     1     -45.269 -52.523  13.153  1.00  0.00     0.292 C 
BRANCH  15  16
HETATM   16  N   UNL     1     -46.514 -52.659  13.938  1.00  0.00     0.094 N 
HETATM   17  C   UNL     1     -46.863 -51.452  14.726  1.00  0.00     0.298 C 
HETATM   18  C   UNL     1     -46.017 -51.255  15.993  1.00  0.00     0.198 C 
HETATM   19  O   UNL     1     -46.095 -52.403  16.846  1.00  0.00    -0.388 OA
HETATM   20  C   UNL     1     -45.659 -53.576  16.148  1.00  0.00     0.198 C 
HETATM   21  C   UNL     1     -46.476 -53.812  14.865  1.00  0.00     0.298 C 
ENDBRANCH  15  16
ENDBRANCH  14  15
ENDBRANCH   3  14
TORSDOF 5
ENDMDL
MODEL 9
REMARK VINA RESULT:      -5.1      4.075      4.606
REMARK  5 active torsions:
REMARK  status: ('A' for Active; 'I' for Inactive)
REMARK    1  A    between atoms: C_2  and  C_3 
REMARK    2  A    between atoms: C_2  and  N_14 
REMARK       I    between atoms: C_3  and  N_5 
REMARK    3  A    between atoms: N_5  and  C_6 
REMARK    4  A    between atoms: C_6  and  C_7 
REMARK    5  A    between atoms: C_7  and  N_8 
ROOT
HETATM    1  C   UNL     1     -41.466 -47.862  10.860  1.00  0.00     0.242 C 
HETATM    2  O   UNL     1     -42.053 -48.901  11.168  1.00  0.00    -0.271 OA
HETATM    3  N   UNL     1     -40.127 -47.665  11.141  1.00  0.00    -0.358 N 
HETATM    4  H   UNL     1     -39.658 -46.880  10.687  1.00  0.00     0.162 HD
ENDROOT
BRANCH   1   5
HETATM    5  C   UNL     1     -42.203 -46.783  10.081  1.00  0.00     0.196 C 
HETATM    6  C   UNL     1     -42.399 -45.537  10.937  1.00  0.00     0.044 C 
BRANCH   5   7
HETATM    7  N   UNL     1     -43.443 -47.256   9.492  1.00  0.00    -0.273 N 
HETATM    8  C   UNL     1     -43.629 -47.741   8.235  1.00  0.00     0.202 A 
HETATM    9  N   UNL     1     -44.900 -48.011   8.054  1.00  0.00    -0.346 N 
HETATM   10  C   UNL     1     -45.464 -47.668   9.247  1.00  0.00     0.198 A 
ATOM     11  HN  UNL     1     -45.356 -48.386   7.223  1.00  0.00     0.167 HD
HETATM   12  N   UNL     1     -44.611 -47.216  10.172  1.00  0.00    -0.292 N 
ATOM     13  HN  UNL     1     -44.792 -46.922  11.131  1.00  0.00     0.188 HD
ENDBRANCH   5   7
ENDBRANCH   1   5
BRANCH   3  14
HETATM   14  C   UNL     1     -39.333 -48.754  11.684  1.00  0.00     0.152 C 
BRANCH  14  15
HETATM   15  C   UNL     1     -38.953 -48.597  13.172  1.00  0.00     0.292 C 
BRANCH  15  16
HETATM   16  N   UNL     1     -37.707 -49.318  13.505  1.00  0.00     0.094 N 
HETATM   17  C   UNL     1     -37.793 -50.786  13.313  1.00  0.00     0.298 C 
HETATM   18  C   UNL     1     -38.582 -51.523  14.407  1.00  0.00     0.198 C 
HETATM   19  O   UNL     1     -38.034 -51.257  15.703  1.00  0.00    -0.388 OA
HETATM   20  C   UNL     1     -38.036 -49.849  15.968  1.00  0.00     0.198 C 
HETATM   21  C   UNL     1     -37.261 -49.066  14.893  1.00  0.00     0.298 C 
ENDBRANCH  15  16
ENDBRANCH  14  15
ENDBRANCH   3  14
TORSDOF 5
ENDMDL
