MODEL 1
REMARK VINA RESULT:      -6.6      0.000      0.000
REMARK  8 active torsions:
REMARK  status: ('A' for Active; 'I' for Inactive)
REMARK    1  A    between atoms: N_2  and  C_15 
REMARK    2  A    between atoms: C_6  and  N_7 
REMARK    3  A    between atoms: N_9  and  C_19 
REMARK    4  A    between atoms: C_14  and  C_15 
REMARK    5  A    between atoms: C_14  and  C_26 
REMARK    6  A    between atoms: C_19  and  C_23 
REMARK    7  A    between atoms: C_23  and  O_27 
REMARK    8  A    between atoms: C_26  and  O_28 
ROOT
HETATM    1  C   UNL     1     -41.590 -49.563  12.038  1.00  0.00     0.122 A 
HETATM    2  N   UNL     1     -41.974 -47.681  11.011  1.00  0.00    -0.326 N 
HETATM    3  C   UNL     1     -40.966 -48.533  11.351  1.00  0.00     0.140 A 
HETATM    4  N   UNL     1     -42.945 -49.319  12.147  1.00  0.00    -0.346 N 
ATOM      5  HN  UNL     1     -43.644 -49.899  12.609  1.00  0.00     0.167 HD
HETATM    6  C   UNL     1     -40.778 -50.641  12.435  1.00  0.00     0.135 A 
HETATM    7  C   UNL     1     -43.139 -48.177  11.527  1.00  0.00     0.185 A 
HETATM    8  N   UNL     1     -39.664 -48.424  11.044  1.00  0.00    -0.336 N 
ATOM      9  HN  UNL     1     -39.252 -47.635  10.546  1.00  0.00     0.168 HD
HETATM   10  N   UNL     1     -39.450 -50.579  12.127  1.00  0.00    -0.337 N 
ATOM     11  HN  UNL     1     -38.822 -51.341  12.383  1.00  0.00     0.168 HD
HETATM   12  C   UNL     1     -38.979 -49.495  11.480  1.00  0.00     0.183 A 
ENDROOT
BRANCH   6  13
HETATM   13  N   UNL     1     -41.317 -51.783  13.016  1.00  0.00    -0.362 N 
HETATM   14  C   UNL     1     -41.674 -51.645  14.427  1.00  0.00     0.160 C 
HETATM   15  C   UNL     1     -41.969 -53.059  14.981  1.00  0.00     0.237 C 
HETATM   16  N   UNL     1     -43.127 -53.721  14.301  1.00  0.00     0.098 N 
HETATM   17  C   UNL     1     -41.895 -53.091  16.505  1.00  0.00     0.044 C 
HETATM   18  C   UNL     1     -42.716 -53.841  12.858  1.00  0.00     0.293 C 
HETATM   19  C   UNL     1     -42.279 -52.510  12.175  1.00  0.00     0.154 C 
BRANCH  16  20
HETATM   20  C   UNL     1     -44.441 -53.031  14.350  1.00  0.00     0.309 C 
BRANCH  20  21
HETATM   21  C   UNL     1     -45.732 -53.750  13.855  1.00  0.00     0.077 C 
HETATM   22  C   UNL     1     -45.520 -55.272  13.891  1.00  0.00     0.047 C 
HETATM   23  C   UNL     1     -46.949 -53.382  14.701  1.00  0.00     0.047 C 
BRANCH  21  24
HETATM   24  O   UNL     1     -46.010 -53.453  12.488  1.00  0.00    -0.389 OA
HETATM   25  H   UNL     1     -46.044 -54.295  12.002  1.00  0.00     0.210 HD
ENDBRANCH  21  24
ENDBRANCH  20  21
ENDBRANCH  16  20
ENDBRANCH   6  13
BRANCH   2  26
HETATM   26  C   UNL     1     -41.814 -46.443  10.266  1.00  0.00     0.147 C 
BRANCH  26  27
HETATM   27  C   UNL     1     -41.349 -45.263  11.109  1.00  0.00     0.040 C 
HETATM   28  C   UNL     1     -41.586 -45.323  12.635  1.00  0.00     0.183 C 
HETATM   29  O   UNL     1     -42.258 -44.037  12.603  1.00  0.00    -0.389 OA
HETATM   30  C   UNL     1     -42.411 -44.146  11.166  1.00  0.00     0.183 C 
BRANCH  27  31
HETATM   31  C   UNL     1     -39.950 -44.754  10.775  1.00  0.00     0.179 C 
BRANCH  31  32
HETATM   32  O   UNL     1     -39.358 -45.607   9.802  1.00  0.00    -0.400 OA
HETATM   33  H   UNL     1     -38.469 -45.271   9.599  1.00  0.00     0.209 HD
ENDBRANCH  31  32
ENDBRANCH  27  31
ENDBRANCH  26  27
ENDBRANCH   2  26
TORSDOF 8
ENDMDL
MODEL 2
REMARK VINA RESULT:      -6.5      1.777      8.047
REMARK  8 active torsions:
REMARK  status: ('A' for Active; 'I' for Inactive)
REMARK    1  A    between atoms: N_2  and  C_15 
REMARK    2  A    between atoms: C_6  and  N_7 
REMARK    3  A    between atoms: N_9  and  C_19 
REMARK    4  A    between atoms: C_14  and  C_15 
REMARK    5  A    between atoms: C_14  and  C_26 
REMARK    6  A    between atoms: C_19  and  C_23 
REMARK    7  A    between atoms: C_23  and  O_27 
REMARK    8  A    between atoms: C_26  and  O_28 
ROOT
HETATM    1  C   UNL     1     -42.558 -50.401  12.840  1.00  0.00     0.122 A 
HETATM    2  N   UNL     1     -43.680 -51.655  14.223  1.00  0.00    -0.326 N 
HETATM    3  C   UNL     1     -42.759 -51.719  13.221  1.00  0.00     0.140 A 
HETATM    4  N   UNL     1     -43.373 -49.559  13.570  1.00  0.00    -0.346 N 
ATOM      5  HN  UNL     1     -43.443 -48.544  13.493  1.00  0.00     0.167 HD
HETATM    6  C   UNL     1     -41.572 -50.169  11.863  1.00  0.00     0.135 A 
HETATM    7  C   UNL     1     -44.039 -50.346  14.385  1.00  0.00     0.185 A 
HETATM    8  N   UNL     1     -42.144 -52.812  12.744  1.00  0.00    -0.336 N 
ATOM      9  HN  UNL     1     -42.339 -53.766  13.050  1.00  0.00     0.168 HD
HETATM   10  N   UNL     1     -40.910 -51.253  11.363  1.00  0.00    -0.337 N 
ATOM     11  HN  UNL     1     -40.179 -51.135  10.661  1.00  0.00     0.168 HD
HETATM   12  C   UNL     1     -41.237 -52.481  11.809  1.00  0.00     0.183 A 
ENDROOT
BRANCH   6  13
HETATM   13  N   UNL     1     -41.198 -48.881  11.498  1.00  0.00    -0.362 N 
HETATM   14  C   UNL     1     -42.303 -48.008  11.104  1.00  0.00     0.160 C 
HETATM   15  C   UNL     1     -41.698 -46.742  10.456  1.00  0.00     0.237 C 
HETATM   16  N   UNL     1     -40.839 -45.958  11.400  1.00  0.00     0.098 N 
HETATM   17  C   UNL     1     -42.727 -45.998   9.608  1.00  0.00     0.044 C 
HETATM   18  C   UNL     1     -39.721 -46.892  11.777  1.00  0.00     0.293 C 
HETATM   19  C   UNL     1     -40.167 -48.271  12.350  1.00  0.00     0.154 C 
BRANCH  16  20
HETATM   20  C   UNL     1     -41.467 -45.461  12.651  1.00  0.00     0.309 C 
BRANCH  20  21
HETATM   21  C   UNL     1     -41.789 -43.947  12.828  1.00  0.00     0.077 C 
HETATM   22  C   UNL     1     -41.405 -43.499  14.247  1.00  0.00     0.047 C 
HETATM   23  C   UNL     1     -41.055 -43.085  11.802  1.00  0.00     0.047 C 
BRANCH  21  24
HETATM   24  O   UNL     1     -43.190 -43.690  12.731  1.00  0.00    -0.389 OA
HETATM   25  H   UNL     1     -43.303 -42.783  12.399  1.00  0.00     0.210 HD
ENDBRANCH  21  24
ENDBRANCH  20  21
ENDBRANCH  16  20
ENDBRANCH   6  13
BRANCH   2  26
HETATM   26  C   UNL     1     -44.212 -52.794  14.953  1.00  0.00     0.147 C 
BRANCH  26  27
HETATM   27  C   UNL     1     -45.396 -53.472  14.277  1.00  0.00     0.040 C 
HETATM   28  C   UNL     1     -46.245 -54.454  15.114  1.00  0.00     0.183 C 
HETATM   29  O   UNL     1     -46.075 -55.490  14.112  1.00  0.00    -0.389 OA
HETATM   30  C   UNL     1     -44.972 -54.752  13.529  1.00  0.00     0.183 C 
BRANCH  27  31
HETATM   31  C   UNL     1     -46.269 -52.542  13.440  1.00  0.00     0.179 C 
BRANCH  31  32
HETATM   32  O   UNL     1     -46.361 -53.049  12.113  1.00  0.00    -0.400 OA
HETATM   33  H   UNL     1     -45.832 -53.863  12.058  1.00  0.00     0.209 HD
ENDBRANCH  31  32
ENDBRANCH  27  31
ENDBRANCH  26  27
ENDBRANCH   2  26
TORSDOF 8
ENDMDL
MODEL 3
REMARK VINA RESULT:      -6.5      2.076      2.971
REMARK  8 active torsions:
REMARK  status: ('A' for Active; 'I' for Inactive)
REMARK    1  A    between atoms: N_2  and  C_15 
REMARK    2  A    between atoms: C_6  and  N_7 
REMARK    3  A    between atoms: N_9  and  C_19 
REMARK    4  A    between atoms: C_14  and  C_15 
REMARK    5  A    between atoms: C_14  and  C_26 
REMARK    6  A    between atoms: C_19  and  C_23 
REMARK    7  A    between atoms: C_23  and  O_27 
REMARK    8  A    between atoms: C_26  and  O_28 
ROOT
HETATM    1  C   UNL     1     -42.706 -47.415  12.933  1.00  0.00     0.122 A 
HETATM    2  N   UNL     1     -42.360 -45.396  12.193  1.00  0.00    -0.326 N 
HETATM    3  C   UNL     1     -42.227 -46.706  11.842  1.00  0.00     0.140 A 
HETATM    4  N   UNL     1     -43.082 -46.550  13.942  1.00  0.00    -0.346 N 
ATOM      5  HN  UNL     1     -43.457 -46.794  14.859  1.00  0.00     0.167 HD
HETATM    6  C   UNL     1     -42.765 -48.815  12.801  1.00  0.00     0.135 A 
HETATM    7  C   UNL     1     -42.853 -45.347  13.467  1.00  0.00     0.185 A 
HETATM    8  N   UNL     1     -41.781 -47.200  10.677  1.00  0.00    -0.336 N 
ATOM      9  HN  UNL     1     -41.425 -46.633   9.907  1.00  0.00     0.168 HD
HETATM   10  N   UNL     1     -42.336 -49.357  11.625  1.00  0.00    -0.337 N 
ATOM     11  HN  UNL     1     -42.370 -50.366  11.477  1.00  0.00     0.168 HD
HETATM   12  C   UNL     1     -41.867 -48.542  10.662  1.00  0.00     0.183 A 
ENDROOT
BRANCH   6  13
HETATM   13  N   UNL     1     -43.344 -49.614  13.780  1.00  0.00    -0.362 N 
HETATM   14  C   UNL     1     -44.417 -50.488  13.306  1.00  0.00     0.160 C 
HETATM   15  C   UNL     1     -45.134 -51.070  14.546  1.00  0.00     0.237 C 
HETATM   16  N   UNL     1     -44.235 -51.910  15.399  1.00  0.00     0.098 N 
HETATM   17  C   UNL     1     -46.521 -51.604  14.192  1.00  0.00     0.044 C 
HETATM   18  C   UNL     1     -43.151 -50.973  15.862  1.00  0.00     0.293 C 
HETATM   19  C   UNL     1     -42.396 -50.215  14.729  1.00  0.00     0.154 C 
BRANCH  16  20
HETATM   20  C   UNL     1     -43.588 -53.087  14.767  1.00  0.00     0.309 C 
BRANCH  20  21
HETATM   21  C   UNL     1     -44.142 -54.523  15.015  1.00  0.00     0.077 C 
HETATM   22  C   UNL     1     -44.965 -54.975  13.798  1.00  0.00     0.047 C 
HETATM   23  C   UNL     1     -43.023 -55.528  15.280  1.00  0.00     0.047 C 
BRANCH  21  24
HETATM   24  O   UNL     1     -45.061 -54.553  16.107  1.00  0.00    -0.389 OA
HETATM   25  H   UNL     1     -45.591 -53.739  16.071  1.00  0.00     0.210 HD
ENDBRANCH  21  24
ENDBRANCH  20  21
ENDBRANCH  16  20
ENDBRANCH   6  13
BRANCH   2  26
HETATM   26  C   UNL     1     -41.994 -44.261  11.362  1.00  0.00     0.147 C 
BRANCH  26  27
HETATM   27  C   UNL     1     -40.558 -43.789  11.547  1.00  0.00     0.040 C 
HETATM   28  C   UNL     1     -39.979 -43.770  12.980  1.00  0.00     0.183 C 
HETATM   29  O   UNL     1     -39.597 -42.378  12.831  1.00  0.00    -0.389 OA
HETATM   30  C   UNL     1     -40.472 -42.255  11.682  1.00  0.00     0.183 C 
BRANCH  27  31
HETATM   31  C   UNL     1     -39.563 -44.366  10.545  1.00  0.00     0.179 C 
BRANCH  31  32
HETATM   32  O   UNL     1     -40.274 -44.944   9.455  1.00  0.00    -0.400 OA
HETATM   33  H   UNL     1     -40.723 -45.746   9.772  1.00  0.00     0.209 HD
ENDBRANCH  31  32
ENDBRANCH  27  31
ENDBRANCH  26  27
ENDBRANCH   2  26
TORSDOF 8
ENDMDL
MODEL 4
REMARK VINA RESULT:      -6.4      1.288      1.603
REMARK  8 active torsions:
REMARK  status: ('A' for Active; 'I' for Inactive)
REMARK    1  A    between atoms: N_2  and  C_15 
REMARK    2  A    between atoms: C_6  and  N_7 
REMARK    3  A    between atoms: N_9  and  C_19 
REMARK    4  A    between atoms: C_14  and  C_15 
REMARK    5  A    between atoms: C_14  and  C_26 
REMARK    6  A    between atoms: C_19  and  C_23 
REMARK    7  A    between atoms: C_23  and  O_27 
REMARK    8  A    between atoms: C_26  and  O_28 
ROOT
HETATM    1  C   UNL     1     -40.745 -49.469  13.037  1.00  0.00     0.122 A 
HETATM    2  N   UNL     1     -40.662 -47.297  12.901  1.00  0.00    -0.326 N 
HETATM    3  C   UNL     1     -39.994 -48.423  12.523  1.00  0.00     0.140 A 
HETATM    4  N   UNL     1     -41.824 -48.983  13.748  1.00  0.00    -0.346 N 
ATOM      5  HN  UNL     1     -42.535 -49.523  14.241  1.00  0.00     0.167 HD
HETATM    6  C   UNL     1     -40.319 -50.771  12.714  1.00  0.00     0.135 A 
HETATM    7  C   UNL     1     -41.739 -47.676  13.652  1.00  0.00     0.185 A 
HETATM    8  N   UNL     1     -38.883 -48.502  11.774  1.00  0.00    -0.336 N 
ATOM      9  HN  UNL     1     -38.358 -47.698  11.431  1.00  0.00     0.168 HD
HETATM   10  N   UNL     1     -39.202 -50.897  11.940  1.00  0.00    -0.337 N 
ATOM     11  HN  UNL     1     -38.861 -51.819  11.669  1.00  0.00     0.168 HD
HETATM   12  C   UNL     1     -38.557 -49.785  11.538  1.00  0.00     0.183 A 
ENDROOT
BRANCH   6  13
HETATM   13  N   UNL     1     -41.065 -51.889  13.068  1.00  0.00    -0.362 N 
HETATM   14  C   UNL     1     -41.433 -51.961  14.481  1.00  0.00     0.160 C 
HETATM   15  C   UNL     1     -41.985 -53.379  14.754  1.00  0.00     0.237 C 
HETATM   16  N   UNL     1     -43.221 -53.685  13.967  1.00  0.00     0.098 N 
HETATM   17  C   UNL     1     -41.961 -53.714  16.244  1.00  0.00     0.044 C 
HETATM   18  C   UNL     1     -42.797 -53.599  12.525  1.00  0.00     0.293 C 
HETATM   19  C   UNL     1     -42.115 -52.261  12.109  1.00  0.00     0.154 C 
BRANCH  16  20
HETATM   20  C   UNL     1     -44.396 -52.796  14.155  1.00  0.00     0.309 C 
BRANCH  20  21
HETATM   21  C   UNL     1     -45.840 -53.333  13.924  1.00  0.00     0.077 C 
HETATM   22  C   UNL     1     -45.881 -54.843  14.205  1.00  0.00     0.047 C 
HETATM   23  C   UNL     1     -46.862 -52.619  14.808  1.00  0.00     0.047 C 
BRANCH  21  24
HETATM   24  O   UNL     1     -46.239 -53.206  12.560  1.00  0.00    -0.389 OA
HETATM   25  H   UNL     1     -45.818 -52.407  12.200  1.00  0.00     0.210 HD
ENDBRANCH  21  24
ENDBRANCH  20  21
ENDBRANCH  16  20
ENDBRANCH   6  13
BRANCH   2  26
HETATM   26  C   UNL     1     -40.260 -45.935  12.588  1.00  0.00     0.147 C 
BRANCH  26  27
HETATM   27  C   UNL     1     -40.678 -45.464  11.201  1.00  0.00     0.040 C 
HETATM   28  C   UNL     1     -39.573 -45.270  10.138  1.00  0.00     0.183 C 
HETATM   29  O   UNL     1     -40.025 -43.914   9.885  1.00  0.00    -0.389 OA
HETATM   30  C   UNL     1     -40.776 -43.927  11.124  1.00  0.00     0.183 C 
BRANCH  27  31
HETATM   31  C   UNL     1     -41.896 -46.180  10.625  1.00  0.00     0.179 C 
BRANCH  31  32
HETATM   32  O   UNL     1     -42.004 -45.883   9.237  1.00  0.00    -0.400 OA
HETATM   33  H   UNL     1     -42.257 -46.696   8.768  1.00  0.00     0.209 HD
ENDBRANCH  31  32
ENDBRANCH  27  31
ENDBRANCH  26  27
ENDBRANCH   2  26
TORSDOF 8
ENDMDL
MODEL 5
REMARK VINA RESULT:      -6.4      2.468      8.067
REMARK  8 active torsions:
REMARK  status: ('A' for Active; 'I' for Inactive)
REMARK    1  A    between atoms: N_2  and  C_15 
REMARK    2  A    between atoms: C_6  and  N_7 
REMARK    3  A    between atoms: N_9  and  C_19 
REMARK    4  A    between atoms: C_14  and  C_15 
REMARK    5  A    between atoms: C_14  and  C_26 
REMARK    6  A    between atoms: C_19  and  C_23 
REMARK    7  A    between atoms: C_23  and  O_27 
REMARK    8  A    between atoms: C_26  and  O_28 
ROOT
HETATM    1  C   UNL     1     -41.388 -50.063  12.031  1.00  0.00     0.122 A 
HETATM    2  N   UNL     1     -41.314 -52.187  12.504  1.00  0.00    -0.326 N 
HETATM    3  C   UNL     1     -40.526 -51.146  12.114  1.00  0.00     0.140 A 
HETATM    4  N   UNL     1     -42.680 -50.450  12.326  1.00  0.00    -0.346 N 
ATOM      5  HN  UNL     1     -43.515 -49.867  12.332  1.00  0.00     0.167 HD
HETATM    6  C   UNL     1     -40.809 -48.817  11.726  1.00  0.00     0.135 A 
HETATM    7  C   UNL     1     -42.600 -51.734  12.597  1.00  0.00     0.185 A 
HETATM    8  N   UNL     1     -39.201 -51.156  11.906  1.00  0.00    -0.336 N 
ATOM      9  HN  UNL     1     -38.612 -51.987  11.966  1.00  0.00     0.168 HD
HETATM   10  N   UNL     1     -39.460 -48.780  11.523  1.00  0.00    -0.337 N 
ATOM     11  HN  UNL     1     -38.992 -47.898  11.311  1.00  0.00     0.168 HD
HETATM   12  C   UNL     1     -38.754 -49.924  11.607  1.00  0.00     0.183 A 
ENDROOT
BRANCH   6  13
HETATM   13  N   UNL     1     -41.555 -47.644  11.741  1.00  0.00    -0.362 N 
HETATM   14  C   UNL     1     -41.640 -46.987  13.045  1.00  0.00     0.160 C 
HETATM   15  C   UNL     1     -42.728 -45.892  12.952  1.00  0.00     0.237 C 
HETATM   16  N   UNL     1     -42.401 -44.829  11.949  1.00  0.00     0.098 N 
HETATM   17  C   UNL     1     -43.221 -45.471  14.334  1.00  0.00     0.044 C 
HETATM   18  C   UNL     1     -42.322 -45.549  10.630  1.00  0.00     0.293 C 
HETATM   19  C   UNL     1     -41.343 -46.760  10.586  1.00  0.00     0.154 C 
BRANCH  16  20
HETATM   20  C   UNL     1     -41.137 -44.071  12.136  1.00  0.00     0.309 C 
BRANCH  20  21
HETATM   21  C   UNL     1     -41.159 -42.520  12.280  1.00  0.00     0.077 C 
HETATM   22  C   UNL     1     -42.611 -42.034  12.412  1.00  0.00     0.047 C 
HETATM   23  C   UNL     1     -40.350 -42.048  13.487  1.00  0.00     0.047 C 
BRANCH  21  24
HETATM   24  O   UNL     1     -40.664 -41.873  11.109  1.00  0.00    -0.389 OA
HETATM   25  H   UNL     1     -39.750 -42.173  10.968  1.00  0.00     0.210 HD
ENDBRANCH  21  24
ENDBRANCH  20  21
ENDBRANCH  16  20
ENDBRANCH   6  13
BRANCH   2  26
HETATM   26  C   UNL     1     -40.857 -53.548  12.735  1.00  0.00     0.147 C 
BRANCH  26  27
HETATM   27  C   UNL     1     -40.641 -53.894  14.202  1.00  0.00     0.040 C 
HETATM   28  C   UNL     1     -41.817 -54.530  14.978  1.00  0.00     0.183 C 
HETATM   29  O   UNL     1     -41.718 -53.510  16.006  1.00  0.00    -0.389 OA
HETATM   30  C   UNL     1     -40.919 -52.687  15.121  1.00  0.00     0.183 C 
BRANCH  27  31
HETATM   31  C   UNL     1     -39.321 -54.595  14.504  1.00  0.00     0.179 C 
BRANCH  31  32
HETATM   32  O   UNL     1     -38.555 -54.694  13.308  1.00  0.00    -0.400 OA
HETATM   33  H   UNL     1     -38.713 -53.896  12.776  1.00  0.00     0.209 HD
ENDBRANCH  31  32
ENDBRANCH  27  31
ENDBRANCH  26  27
ENDBRANCH   2  26
TORSDOF 8
ENDMDL
MODEL 6
REMARK VINA RESULT:      -6.3      1.968      2.751
REMARK  8 active torsions:
REMARK  status: ('A' for Active; 'I' for Inactive)
REMARK    1  A    between atoms: N_2  and  C_15 
REMARK    2  A    between atoms: C_6  and  N_7 
REMARK    3  A    between atoms: N_9  and  C_19 
REMARK    4  A    between atoms: C_14  and  C_15 
REMARK    5  A    between atoms: C_14  and  C_26 
REMARK    6  A    between atoms: C_19  and  C_23 
REMARK    7  A    between atoms: C_23  and  O_27 
REMARK    8  A    between atoms: C_26  and  O_28 
ROOT
HETATM    1  C   UNL     1     -41.095 -47.530  12.138  1.00  0.00     0.122 A 
HETATM    2  N   UNL     1     -40.357 -45.504  11.831  1.00  0.00    -0.326 N 
HETATM    3  C   UNL     1     -41.102 -46.478  11.235  1.00  0.00     0.140 A 
HETATM    4  N   UNL     1     -40.327 -47.214  13.241  1.00  0.00    -0.346 N 
ATOM      5  HN  UNL     1     -40.138 -47.801  14.053  1.00  0.00     0.167 HD
HETATM    6  C   UNL     1     -41.876 -48.652  11.805  1.00  0.00     0.135 A 
HETATM    7  C   UNL     1     -39.893 -45.994  13.019  1.00  0.00     0.185 A 
HETATM    8  N   UNL     1     -41.742 -46.412  10.058  1.00  0.00    -0.336 N 
ATOM      9  HN  UNL     1     -41.703 -45.616   9.421  1.00  0.00     0.168 HD
HETATM   10  N   UNL     1     -42.558 -48.621  10.624  1.00  0.00    -0.337 N 
ATOM     11  HN  UNL     1     -43.146 -49.405  10.344  1.00  0.00     0.168 HD
HETATM   12  C   UNL     1     -42.442 -47.537   9.831  1.00  0.00     0.183 A 
ENDROOT
BRANCH   6  13
HETATM   13  N   UNL     1     -42.045 -49.710  12.692  1.00  0.00    -0.362 N 
HETATM   14  C   UNL     1     -43.270 -49.655  13.488  1.00  0.00     0.160 C 
HETATM   15  C   UNL     1     -43.155 -50.717  14.606  1.00  0.00     0.237 C 
HETATM   16  N   UNL     1     -43.043 -52.113  14.075  1.00  0.00     0.098 N 
HETATM   17  C   UNL     1     -44.133 -50.441  15.746  1.00  0.00     0.044 C 
HETATM   18  C   UNL     1     -41.774 -52.121  13.265  1.00  0.00     0.293 C 
HETATM   19  C   UNL     1     -41.682 -51.030  12.156  1.00  0.00     0.154 C 
BRANCH  16  20
HETATM   20  C   UNL     1     -44.144 -52.612  13.212  1.00  0.00     0.309 C 
BRANCH  20  21
HETATM   21  C   UNL     1     -45.298 -53.466  13.817  1.00  0.00     0.077 C 
HETATM   22  C   UNL     1     -44.841 -54.082  15.149  1.00  0.00     0.047 C 
HETATM   23  C   UNL     1     -46.562 -52.638  14.042  1.00  0.00     0.047 C 
BRANCH  21  24
HETATM   24  O   UNL     1     -45.617 -54.584  12.989  1.00  0.00    -0.389 OA
HETATM   25  H   UNL     1     -45.669 -55.370  13.559  1.00  0.00     0.210 HD
ENDBRANCH  21  24
ENDBRANCH  20  21
ENDBRANCH  16  20
ENDBRANCH   6  13
BRANCH   2  26
HETATM   26  C   UNL     1     -40.078 -44.193  11.267  1.00  0.00     0.147 C 
BRANCH  26  27
HETATM   27  C   UNL     1     -40.771 -43.044  11.986  1.00  0.00     0.040 C 
HETATM   28  C   UNL     1     -42.112 -43.336  12.696  1.00  0.00     0.183 C 
HETATM   29  O   UNL     1     -42.753 -42.248  11.979  1.00  0.00    -0.389 OA
HETATM   30  C   UNL     1     -41.658 -42.222  11.030  1.00  0.00     0.183 C 
BRANCH  27  31
HETATM   31  C   UNL     1     -39.851 -42.186  12.849  1.00  0.00     0.179 C 
BRANCH  31  32
HETATM   32  O   UNL     1     -39.911 -42.638  14.197  1.00  0.00    -0.400 OA
HETATM   33  H   UNL     1     -39.243 -43.333  14.318  1.00  0.00     0.209 HD
ENDBRANCH  31  32
ENDBRANCH  27  31
ENDBRANCH  26  27
ENDBRANCH   2  26
TORSDOF 8
ENDMDL
MODEL 7
REMARK VINA RESULT:      -6.0      1.911      2.288
REMARK  8 active torsions:
REMARK  status: ('A' for Active; 'I' for Inactive)
REMARK    1  A    between atoms: N_2  and  C_15 
REMARK    2  A    between atoms: C_6  and  N_7 
REMARK    3  A    between atoms: N_9  and  C_19 
REMARK    4  A    between atoms: C_14  and  C_15 
REMARK    5  A    between atoms: C_14  and  C_26 
REMARK    6  A    between atoms: C_19  and  C_23 
REMARK    7  A    between atoms: C_23  and  O_27 
REMARK    8  A    between atoms: C_26  and  O_28 
ROOT
HETATM    1  C   UNL     1     -39.904 -49.715  13.062  1.00  0.00     0.122 A 
HETATM    2  N   UNL     1     -40.230 -47.562  13.014  1.00  0.00    -0.326 N 
HETATM    3  C   UNL     1     -39.409 -48.535  12.528  1.00  0.00     0.140 A 
HETATM    4  N   UNL     1     -40.980 -49.456  13.888  1.00  0.00    -0.346 N 
ATOM      5  HN  UNL     1     -41.529 -50.131  14.420  1.00  0.00     0.167 HD
HETATM    6  C   UNL     1     -39.283 -50.907  12.645  1.00  0.00     0.135 A 
HETATM    7  C   UNL     1     -41.143 -48.153  13.842  1.00  0.00     0.185 A 
HETATM    8  N   UNL     1     -38.381 -48.389  11.679  1.00  0.00    -0.336 N 
ATOM      9  HN  UNL     1     -38.046 -47.492  11.324  1.00  0.00     0.168 HD
HETATM   10  N   UNL     1     -38.243 -50.804  11.768  1.00  0.00    -0.337 N 
ATOM     11  HN  UNL     1     -37.768 -51.640  11.428  1.00  0.00     0.168 HD
HETATM   12  C   UNL     1     -37.852 -49.582  11.358  1.00  0.00     0.183 A 
ENDROOT
BRANCH   6  13
HETATM   13  N   UNL     1     -39.776 -52.153  13.016  1.00  0.00    -0.362 N 
HETATM   14  C   UNL     1     -39.899 -52.361  14.459  1.00  0.00     0.160 C 
HETATM   15  C   UNL     1     -40.168 -53.865  14.698  1.00  0.00     0.237 C 
HETATM   16  N   UNL     1     -41.449 -54.333  14.080  1.00  0.00     0.098 N 
HETATM   17  C   UNL     1     -39.855 -54.269  16.136  1.00  0.00     0.044 C 
HETATM   18  C   UNL     1     -41.277 -54.100  12.603  1.00  0.00     0.293 C 
HETATM   19  C   UNL     1     -40.893 -52.645  12.197  1.00  0.00     0.154 C 
BRANCH  16  20
HETATM   20  C   UNL     1     -42.705 -53.667  14.510  1.00  0.00     0.309 C 
BRANCH  20  21
HETATM   21  C   UNL     1     -43.988 -54.504  14.792  1.00  0.00     0.077 C 
HETATM   22  C   UNL     1     -44.747 -53.901  15.985  1.00  0.00     0.047 C 
HETATM   23  C   UNL     1     -44.910 -54.561  13.575  1.00  0.00     0.047 C 
BRANCH  21  24
HETATM   24  O   UNL     1     -43.672 -55.835  15.197  1.00  0.00    -0.389 OA
HETATM   25  H   UNL     1     -42.857 -56.100  14.738  1.00  0.00     0.210 HD
ENDBRANCH  21  24
ENDBRANCH  20  21
ENDBRANCH  16  20
ENDBRANCH   6  13
BRANCH   2  26
HETATM   26  C   UNL     1     -40.115 -46.141  12.725  1.00  0.00     0.147 C 
BRANCH  26  27
HETATM   27  C   UNL     1     -40.731 -45.722  11.397  1.00  0.00     0.040 C 
HETATM   28  C   UNL     1     -39.777 -45.321  10.250  1.00  0.00     0.183 C 
HETATM   29  O   UNL     1     -40.473 -44.057  10.085  1.00  0.00    -0.389 OA
HETATM   30  C   UNL     1     -41.095 -44.224  11.383  1.00  0.00     0.183 C 
BRANCH  27  31
HETATM   31  C   UNL     1     -41.858 -46.625  10.905  1.00  0.00     0.179 C 
BRANCH  31  32
HETATM   32  O   UNL     1     -41.982 -46.495   9.493  1.00  0.00    -0.400 OA
HETATM   33  H   UNL     1     -41.827 -45.565   9.255  1.00  0.00     0.209 HD
ENDBRANCH  31  32
ENDBRANCH  27  31
ENDBRANCH  26  27
ENDBRANCH   2  26
TORSDOF 8
ENDMDL
MODEL 8
REMARK VINA RESULT:      -6.0      3.908      7.846
REMARK  8 active torsions:
REMARK  status: ('A' for Active; 'I' for Inactive)
REMARK    1  A    between atoms: N_2  and  C_15 
REMARK    2  A    between atoms: C_6  and  N_7 
REMARK    3  A    between atoms: N_9  and  C_19 
REMARK    4  A    between atoms: C_14  and  C_15 
REMARK    5  A    between atoms: C_14  and  C_26 
REMARK    6  A    between atoms: C_19  and  C_23 
REMARK    7  A    between atoms: C_23  and  O_27 
REMARK    8  A    between atoms: C_26  and  O_28 
ROOT
HETATM    1  C   UNL     1     -42.268 -51.457  13.091  1.00  0.00     0.122 A 
HETATM    2  N   UNL     1     -44.348 -52.100  13.159  1.00  0.00    -0.326 N 
HETATM    3  C   UNL     1     -43.081 -52.576  12.995  1.00  0.00     0.140 A 
HETATM    4  N   UNL     1     -43.031 -50.320  13.269  1.00  0.00    -0.346 N 
ATOM      5  HN  UNL     1     -42.700 -49.360  13.359  1.00  0.00     0.167 HD
HETATM    6  C   UNL     1     -40.879 -51.680  13.043  1.00  0.00     0.135 A 
HETATM    7  C   UNL     1     -44.275 -50.742  13.297  1.00  0.00     0.185 A 
HETATM    8  N   UNL     1     -42.702 -53.852  12.829  1.00  0.00    -0.336 N 
ATOM      9  HN  UNL     1     -43.345 -54.641  12.750  1.00  0.00     0.168 HD
HETATM   10  N   UNL     1     -40.450 -52.966  12.892  1.00  0.00    -0.337 N 
ATOM     11  HN  UNL     1     -39.453 -53.180  12.863  1.00  0.00     0.168 HD
HETATM   12  C   UNL     1     -41.362 -53.951  12.781  1.00  0.00     0.183 A 
ENDROOT
BRANCH   6  13
HETATM   13  N   UNL     1     -39.970 -50.650  13.257  1.00  0.00    -0.362 N 
HETATM   14  C   UNL     1     -39.980 -50.091  14.608  1.00  0.00     0.160 C 
HETATM   15  C   UNL     1     -39.145 -48.790  14.587  1.00  0.00     0.237 C 
HETATM   16  N   UNL     1     -37.711 -49.023  14.223  1.00  0.00     0.098 N 
HETATM   17  C   UNL     1     -39.463 -47.899  15.785  1.00  0.00     0.044 C 
HETATM   18  C   UNL     1     -37.750 -49.597  12.833  1.00  0.00     0.293 C 
HETATM   19  C   UNL     1     -38.645 -50.861  12.656  1.00  0.00     0.154 C 
BRANCH  16  20
HETATM   20  C   UNL     1     -36.925 -49.946  15.081  1.00  0.00     0.309 C 
BRANCH  20  21
HETATM   21  C   UNL     1     -36.065 -49.393  16.257  1.00  0.00     0.077 C 
HETATM   22  C   UNL     1     -35.915 -47.870  16.116  1.00  0.00     0.047 C 
HETATM   23  C   UNL     1     -36.679 -49.724  17.616  1.00  0.00     0.047 C 
BRANCH  21  24
HETATM   24  O   UNL     1     -34.730 -49.895  16.217  1.00  0.00    -0.389 OA
HETATM   25  H   UNL     1     -34.642 -50.443  15.419  1.00  0.00     0.210 HD
ENDBRANCH  21  24
ENDBRANCH  20  21
ENDBRANCH  16  20
ENDBRANCH   6  13
BRANCH   2  26
HETATM   26  C   UNL     1     -45.559 -52.905  13.143  1.00  0.00     0.147 C 
BRANCH  26  27
HETATM   27  C   UNL     1     -46.143 -53.180  14.522  1.00  0.00     0.040 C 
HETATM   28  C   UNL     1     -45.165 -53.520  15.670  1.00  0.00     0.183 C 
HETATM   29  O   UNL     1     -45.904 -54.734  15.969  1.00  0.00    -0.389 OA
HETATM   30  C   UNL     1     -46.564 -54.655  14.681  1.00  0.00     0.183 C 
BRANCH  27  31
HETATM   31  C   UNL     1     -47.215 -52.191  14.969  1.00  0.00     0.179 C 
BRANCH  31  32
HETATM   32  O   UNL     1     -46.647 -51.264  15.888  1.00  0.00    -0.400 OA
HETATM   33  H   UNL     1     -47.168 -50.444  15.858  1.00  0.00     0.209 HD
ENDBRANCH  31  32
ENDBRANCH  27  31
ENDBRANCH  26  27
ENDBRANCH   2  26
TORSDOF 8
ENDMDL
MODEL 9
REMARK VINA RESULT:      -5.9      2.388      7.860
REMARK  8 active torsions:
REMARK  status: ('A' for Active; 'I' for Inactive)
REMARK    1  A    between atoms: N_2  and  C_15 
REMARK    2  A    between atoms: C_6  and  N_7 
REMARK    3  A    between atoms: N_9  and  C_19 
REMARK    4  A    between atoms: C_14  and  C_15 
REMARK    5  A    between atoms: C_14  and  C_26 
REMARK    6  A    between atoms: C_19  and  C_23 
REMARK    7  A    between atoms: C_23  and  O_27 
REMARK    8  A    between atoms: C_26  and  O_28 
ROOT
HETATM    1  C   UNL     1     -41.414 -50.852  13.446  1.00  0.00     0.122 A 
HETATM    2  N   UNL     1     -41.677 -52.983  13.809  1.00  0.00    -0.326 N 
HETATM    3  C   UNL     1     -41.019 -51.887  14.279  1.00  0.00     0.140 A 
HETATM    4  N   UNL     1     -42.264 -51.321  12.464  1.00  0.00    -0.346 N 
ATOM      5  HN  UNL     1     -42.697 -50.786  11.712  1.00  0.00     0.167 HD
HETATM    6  C   UNL     1     -40.941 -49.566  13.767  1.00  0.00     0.135 A 
HETATM    7  C   UNL     1     -42.393 -52.606  12.707  1.00  0.00     0.185 A 
HETATM    8  N   UNL     1     -40.208 -51.815  15.346  1.00  0.00    -0.336 N 
ATOM      9  HN  UNL     1     -39.936 -52.613  15.921  1.00  0.00     0.168 HD
HETATM   10  N   UNL     1     -40.126 -49.446  14.855  1.00  0.00    -0.337 N 
ATOM     11  HN  UNL     1     -39.767 -48.533  15.135  1.00  0.00     0.168 HD
HETATM   12  C   UNL     1     -39.802 -50.550  15.555  1.00  0.00     0.183 A 
ENDROOT
BRANCH   6  13
HETATM   13  N   UNL     1     -41.374 -48.438  13.079  1.00  0.00    -0.362 N 
HETATM   14  C   UNL     1     -40.555 -48.072  11.923  1.00  0.00     0.160 C 
HETATM   15  C   UNL     1     -40.989 -46.660  11.466  1.00  0.00     0.237 C 
HETATM   16  N   UNL     1     -42.418 -46.605  11.022  1.00  0.00     0.098 N 
HETATM   17  C   UNL     1     -39.923 -46.000  10.594  1.00  0.00     0.044 C 
HETATM   18  C   UNL     1     -43.219 -46.988  12.238  1.00  0.00     0.293 C 
HETATM   19  C   UNL     1     -42.829 -48.347  12.893  1.00  0.00     0.154 C 
BRANCH  16  20
HETATM   20  C   UNL     1     -42.827 -47.491   9.903  1.00  0.00     0.309 C 
BRANCH  20  21
HETATM   21  C   UNL     1     -43.460 -46.892   8.611  1.00  0.00     0.077 C 
HETATM   22  C   UNL     1     -43.565 -47.984   7.534  1.00  0.00     0.047 C 
HETATM   23  C   UNL     1     -44.843 -46.300   8.876  1.00  0.00     0.047 C 
BRANCH  21  24
HETATM   24  O   UNL     1     -42.629 -45.888   8.031  1.00  0.00    -0.389 OA
HETATM   25  H   UNL     1     -43.156 -45.414   7.366  1.00  0.00     0.210 HD
ENDBRANCH  21  24
ENDBRANCH  20  21
ENDBRANCH  16  20
ENDBRANCH   6  13
BRANCH   2  26
HETATM   26  C   UNL     1     -41.588 -54.323  14.366  1.00  0.00     0.147 C 
BRANCH  26  27
HETATM   27  C   UNL     1     -42.572 -54.595  15.496  1.00  0.00     0.040 C 
HETATM   28  C   UNL     1     -42.222 -54.070  16.906  1.00  0.00     0.183 C 
HETATM   29  O   UNL     1     -42.406 -55.395  17.469  1.00  0.00    -0.389 OA
HETATM   30  C   UNL     1     -42.333 -55.974  16.143  1.00  0.00     0.183 C 
BRANCH  27  31
HETATM   31  C   UNL     1     -44.034 -54.336  15.143  1.00  0.00     0.179 C 
BRANCH  31  32
HETATM   32  O   UNL     1     -44.574 -55.484  14.497  1.00  0.00    -0.400 OA
HETATM   33  H   UNL     1     -45.133 -55.960  15.134  1.00  0.00     0.209 HD
ENDBRANCH  31  32
ENDBRANCH  27  31
ENDBRANCH  26  27
ENDBRANCH   2  26
TORSDOF 8
ENDMDL
