MODEL 1
REMARK VINA RESULT:      -6.6      0.000      0.000
REMARK  6 active torsions:
REMARK  status: ('A' for Active; 'I' for Inactive)
REMARK    1  A    between atoms: C_7  and  O_8 
REMARK    2  A    between atoms: O_8  and  C_9 
REMARK    3  A    between atoms: C_9  and  C_10 
REMARK    4  A    between atoms: C_10  and  N_11 
REMARK       I    between atoms: N_11  and  C_12 
REMARK    5  A    between atoms: C_12  and  C_14 
REMARK    6  A    between atoms: C_14  and  N_15 
ROOT
HETATM    1  N   UNL     1     -41.875 -50.199  11.694  1.00  0.00    -0.358 N 
HETATM    2  C   UNL     1     -42.379 -48.915  11.703  1.00  0.00     0.237 C 
HETATM    3  O   UNL     1     -43.092 -48.463  12.599  1.00  0.00    -0.272 OA
HETATM    4  H   UNL     1     -41.491 -50.563  10.829  1.00  0.00     0.162 HD
ENDROOT
BRANCH   1   5
HETATM    5  C   UNL     1     -42.235 -51.154  12.733  1.00  0.00     0.148 C 
BRANCH   5   6
HETATM    6  C   UNL     1     -42.325 -52.594  12.220  1.00  0.00     0.187 C 
BRANCH   6   7
HETATM    7  O   UNL     1     -43.571 -53.184  12.594  1.00  0.00    -0.384 OA
BRANCH   7   8
HETATM    8  C   UNL     1     -44.386 -52.358  13.434  1.00  0.00     0.125 C 
HETATM    9  C   UNL     1     -44.507 -52.914  14.870  1.00  0.00     0.010 C 
HETATM   10  C   UNL     1     -44.898 -54.399  14.895  1.00  0.00     0.012 C 
HETATM   11  C   UNL     1     -45.476 -52.056  15.694  1.00  0.00     0.007 C 
HETATM   12  C   UNL     1     -46.847 -51.918  15.039  1.00  0.00     0.001 C 
HETATM   13  C   UNL     1     -46.739 -51.410  13.605  1.00  0.00     0.002 C 
HETATM   14  C   UNL     1     -45.763 -52.231  12.766  1.00  0.00     0.032 C 
ENDBRANCH   7   8
ENDBRANCH   6   7
ENDBRANCH   5   6
ENDBRANCH   1   5
BRANCH   2  15
HETATM   15  C   UNL     1     -41.989 -48.055  10.504  1.00  0.00     0.255 C 
BRANCH  15  16
HETATM   16  N   UNL     1     -43.134 -47.321   9.986  1.00  0.00    -0.246 N 
HETATM   17  N   UNL     1     -44.338 -48.048   9.921  1.00  0.00    -0.261 N 
HETATM   18  C   UNL     1     -45.456 -47.555   9.303  1.00  0.00     0.260 C 
HETATM   19  H   UNL     1     -44.282 -49.067   9.992  1.00  0.00     0.190 HD
HETATM   20  O   UNL     1     -46.455 -48.226   9.076  1.00  0.00    -0.267 OA
HETATM   21  C   UNL     1     -45.412 -46.128   8.931  1.00  0.00     0.081 C 
HETATM   22  C   UNL     1     -44.289 -45.418   9.045  1.00  0.00     0.081 C 
HETATM   23  C   UNL     1     -43.036 -46.022   9.547  1.00  0.00     0.262 C 
HETATM   24  O   UNL     1     -42.003 -45.358   9.561  1.00  0.00    -0.267 OA
ENDBRANCH  15  16
ENDBRANCH   2  15
TORSDOF 6
ENDMDL
MODEL 2
REMARK VINA RESULT:      -6.3      1.686      2.249
REMARK  6 active torsions:
REMARK  status: ('A' for Active; 'I' for Inactive)
REMARK    1  A    between atoms: C_7  and  O_8 
REMARK    2  A    between atoms: O_8  and  C_9 
REMARK    3  A    between atoms: C_9  and  C_10 
REMARK    4  A    between atoms: C_10  and  N_11 
REMARK       I    between atoms: N_11  and  C_12 
REMARK    5  A    between atoms: C_12  and  C_14 
REMARK    6  A    between atoms: C_14  and  N_15 
ROOT
HETATM    1  N   UNL     1     -41.854 -50.288  11.729  1.00  0.00    -0.358 N 
HETATM    2  C   UNL     1     -40.758 -49.535  11.363  1.00  0.00     0.237 C 
HETATM    3  O   UNL     1     -39.625 -49.995  11.220  1.00  0.00    -0.272 OA
HETATM    4  H   UNL     1     -42.690 -49.806  12.040  1.00  0.00     0.162 HD
ENDROOT
BRANCH   1   5
HETATM    5  C   UNL     1     -41.718 -51.699  12.061  1.00  0.00     0.148 C 
BRANCH   5   6
HETATM    6  C   UNL     1     -42.473 -52.091  13.335  1.00  0.00     0.187 C 
BRANCH   6   7
HETATM    7  O   UNL     1     -43.778 -52.575  13.018  1.00  0.00    -0.384 OA
BRANCH   7   8
HETATM    8  C   UNL     1     -44.702 -52.541  14.111  1.00  0.00     0.125 C 
HETATM    9  C   UNL     1     -46.160 -52.782  13.660  1.00  0.00     0.010 C 
HETATM   10  C   UNL     1     -46.565 -51.889  12.479  1.00  0.00     0.012 C 
HETATM   11  C   UNL     1     -47.118 -52.626  14.848  1.00  0.00     0.007 C 
HETATM   12  C   UNL     1     -46.974 -51.279  15.551  1.00  0.00     0.001 C 
HETATM   13  C   UNL     1     -45.531 -51.009  15.964  1.00  0.00     0.002 C 
HETATM   14  C   UNL     1     -44.550 -51.180  14.806  1.00  0.00     0.032 C 
ENDBRANCH   7   8
ENDBRANCH   6   7
ENDBRANCH   5   6
ENDBRANCH   1   5
BRANCH   2  15
HETATM   15  C   UNL     1     -41.034 -48.052  11.133  1.00  0.00     0.255 C 
BRANCH  15  16
HETATM   16  N   UNL     1     -42.302 -47.849  10.451  1.00  0.00    -0.246 N 
HETATM   17  N   UNL     1     -42.304 -48.152   9.075  1.00  0.00    -0.261 N 
HETATM   18  C   UNL     1     -43.367 -47.856   8.264  1.00  0.00     0.260 C 
HETATM   19  H   UNL     1     -41.398 -48.242   8.608  1.00  0.00     0.190 HD
HETATM   20  O   UNL     1     -43.330 -47.943   7.043  1.00  0.00    -0.267 OA
HETATM   21  C   UNL     1     -44.604 -47.435   8.948  1.00  0.00     0.081 C 
HETATM   22  C   UNL     1     -44.624 -47.203  10.260  1.00  0.00     0.081 C 
HETATM   23  C   UNL     1     -43.412 -47.354  11.094  1.00  0.00     0.262 C 
HETATM   24  O   UNL     1     -43.451 -47.053  12.284  1.00  0.00    -0.267 OA
ENDBRANCH  15  16
ENDBRANCH   2  15
TORSDOF 6
ENDMDL
MODEL 3
REMARK VINA RESULT:      -6.3      1.623      1.937
REMARK  6 active torsions:
REMARK  status: ('A' for Active; 'I' for Inactive)
REMARK    1  A    between atoms: C_7  and  O_8 
REMARK    2  A    between atoms: O_8  and  C_9 
REMARK    3  A    between atoms: C_9  and  C_10 
REMARK    4  A    between atoms: C_10  and  N_11 
REMARK       I    between atoms: N_11  and  C_12 
REMARK    5  A    between atoms: C_12  and  C_14 
REMARK    6  A    between atoms: C_14  and  N_15 
ROOT
HETATM    1  N   UNL     1     -40.867 -51.452  12.638  1.00  0.00    -0.358 N 
HETATM    2  C   UNL     1     -41.416 -50.260  12.215  1.00  0.00     0.237 C 
HETATM    3  O   UNL     1     -42.464 -49.789  12.658  1.00  0.00    -0.272 OA
HETATM    4  H   UNL     1     -40.137 -51.875  12.078  1.00  0.00     0.162 HD
ENDROOT
BRANCH   1   5
HETATM    5  C   UNL     1     -41.558 -52.295  13.604  1.00  0.00     0.148 C 
BRANCH   5   6
HETATM    6  C   UNL     1     -42.319 -53.454  12.953  1.00  0.00     0.187 C 
BRANCH   6   7
HETATM    7  O   UNL     1     -43.633 -53.044  12.576  1.00  0.00    -0.384 OA
BRANCH   7   8
HETATM    8  C   UNL     1     -44.458 -52.625  13.669  1.00  0.00     0.125 C 
HETATM    9  C   UNL     1     -44.892 -53.805  14.566  1.00  0.00     0.010 C 
HETATM   10  C   UNL     1     -45.478 -54.973  13.760  1.00  0.00     0.012 C 
HETATM   11  C   UNL     1     -45.860 -53.321  15.653  1.00  0.00     0.007 C 
HETATM   12  C   UNL     1     -47.071 -52.588  15.083  1.00  0.00     0.001 C 
HETATM   13  C   UNL     1     -46.657 -51.446  14.160  1.00  0.00     0.002 C 
HETATM   14  C   UNL     1     -45.674 -51.894  13.081  1.00  0.00     0.032 C 
ENDBRANCH   7   8
ENDBRANCH   6   7
ENDBRANCH   5   6
ENDBRANCH   1   5
BRANCH   2  15
HETATM   15  C   UNL     1     -40.626 -49.527  11.134  1.00  0.00     0.255 C 
BRANCH  15  16
HETATM   16  N   UNL     1     -41.294 -48.299  10.731  1.00  0.00    -0.246 N 
HETATM   17  N   UNL     1     -42.438 -48.469   9.927  1.00  0.00    -0.261 N 
HETATM   18  C   UNL     1     -43.074 -47.414   9.332  1.00  0.00     0.260 C 
HETATM   19  H   UNL     1     -42.573 -49.381   9.483  1.00  0.00     0.190 HD
HETATM   20  O   UNL     1     -43.955 -47.543   8.491  1.00  0.00    -0.267 OA
HETATM   21  C   UNL     1     -42.655 -46.071   9.776  1.00  0.00     0.081 C 
HETATM   22  C   UNL     1     -41.608 -45.907  10.585  1.00  0.00     0.081 C 
HETATM   23  C   UNL     1     -40.816 -47.056  11.075  1.00  0.00     0.262 C 
HETATM   24  O   UNL     1     -39.811 -46.858  11.752  1.00  0.00    -0.267 OA
ENDBRANCH  15  16
ENDBRANCH   2  15
TORSDOF 6
ENDMDL
MODEL 4
REMARK VINA RESULT:      -6.2      1.856      2.381
REMARK  6 active torsions:
REMARK  status: ('A' for Active; 'I' for Inactive)
REMARK    1  A    between atoms: C_7  and  O_8 
REMARK    2  A    between atoms: O_8  and  C_9 
REMARK    3  A    between atoms: C_9  and  C_10 
REMARK    4  A    between atoms: C_10  and  N_11 
REMARK       I    between atoms: N_11  and  C_12 
REMARK    5  A    between atoms: C_12  and  C_14 
REMARK    6  A    between atoms: C_14  and  N_15 
ROOT
HETATM    1  N   UNL     1     -42.077 -49.180  11.116  1.00  0.00    -0.358 N 
HETATM    2  C   UNL     1     -42.395 -47.838  11.075  1.00  0.00     0.237 C 
HETATM    3  O   UNL     1     -42.493 -47.124  12.073  1.00  0.00    -0.272 OA
HETATM    4  H   UNL     1     -42.234 -49.740  10.286  1.00  0.00     0.162 HD
ENDROOT
BRANCH   1   5
HETATM    5  C   UNL     1     -41.914 -49.874  12.385  1.00  0.00     0.148 C 
BRANCH   5   6
HETATM    6  C   UNL     1     -41.169 -51.206  12.249  1.00  0.00     0.187 C 
BRANCH   6   7
HETATM    7  O   UNL     1     -42.088 -52.275  12.023  1.00  0.00    -0.384 OA
BRANCH   7   8
HETATM    8  C   UNL     1     -42.640 -52.842  13.217  1.00  0.00     0.125 C 
HETATM    9  C   UNL     1     -41.570 -53.532  14.091  1.00  0.00     0.010 C 
HETATM   10  C   UNL     1     -40.695 -54.507  13.291  1.00  0.00     0.012 C 
HETATM   11  C   UNL     1     -42.227 -54.216  15.297  1.00  0.00     0.007 C 
HETATM   12  C   UNL     1     -43.326 -55.195  14.896  1.00  0.00     0.001 C 
HETATM   13  C   UNL     1     -44.368 -54.537  13.995  1.00  0.00     0.002 C 
HETATM   14  C   UNL     1     -43.740 -53.828  12.798  1.00  0.00     0.032 C 
ENDBRANCH   7   8
ENDBRANCH   6   7
ENDBRANCH   5   6
ENDBRANCH   1   5
BRANCH   2  15
HETATM   15  C   UNL     1     -42.624 -47.265   9.679  1.00  0.00     0.255 C 
BRANCH  15  16
HETATM   16  N   UNL     1     -44.036 -47.019   9.433  1.00  0.00    -0.246 N 
HETATM   17  N   UNL     1     -44.876 -48.143   9.558  1.00  0.00    -0.261 N 
HETATM   18  C   UNL     1     -46.196 -48.111   9.197  1.00  0.00     0.260 C 
HETATM   19  H   UNL     1     -44.436 -49.066   9.559  1.00  0.00     0.190 HD
HETATM   20  O   UNL     1     -46.901 -49.110   9.126  1.00  0.00    -0.267 OA
HETATM   21  C   UNL     1     -46.755 -46.778   8.906  1.00  0.00     0.081 C 
HETATM   22  C   UNL     1     -45.974 -45.699   8.843  1.00  0.00     0.081 C 
HETATM   23  C   UNL     1     -44.513 -45.784   9.059  1.00  0.00     0.262 C 
HETATM   24  O   UNL     1     -43.817 -44.784   8.913  1.00  0.00    -0.267 OA
ENDBRANCH  15  16
ENDBRANCH   2  15
TORSDOF 6
ENDMDL
MODEL 5
REMARK VINA RESULT:      -6.1      2.339      3.370
REMARK  6 active torsions:
REMARK  status: ('A' for Active; 'I' for Inactive)
REMARK    1  A    between atoms: C_7  and  O_8 
REMARK    2  A    between atoms: O_8  and  C_9 
REMARK    3  A    between atoms: C_9  and  C_10 
REMARK    4  A    between atoms: C_10  and  N_11 
REMARK       I    between atoms: N_11  and  C_12 
REMARK    5  A    between atoms: C_12  and  C_14 
REMARK    6  A    between atoms: C_14  and  N_15 
ROOT
HETATM    1  N   UNL     1     -42.458 -49.839  11.795  1.00  0.00    -0.358 N 
HETATM    2  C   UNL     1     -41.809 -48.739  11.274  1.00  0.00     0.237 C 
HETATM    3  O   UNL     1     -40.597 -48.693  11.061  1.00  0.00    -0.272 OA
HETATM    4  H   UNL     1     -43.402 -49.723  12.145  1.00  0.00     0.162 HD
ENDROOT
BRANCH   1   5
HETATM    5  C   UNL     1     -41.715 -51.018  12.218  1.00  0.00     0.148 C 
BRANCH   5   6
HETATM    6  C   UNL     1     -42.419 -51.805  13.328  1.00  0.00     0.187 C 
BRANCH   6   7
HETATM    7  O   UNL     1     -43.755 -52.131  12.943  1.00  0.00    -0.384 OA
BRANCH   7   8
HETATM    8  C   UNL     1     -44.669 -52.265  14.037  1.00  0.00     0.125 C 
HETATM    9  C   UNL     1     -46.094 -52.640  13.574  1.00  0.00     0.010 C 
HETATM   10  C   UNL     1     -46.605 -51.730  12.447  1.00  0.00     0.012 C 
HETATM   11  C   UNL     1     -47.055 -52.662  14.769  1.00  0.00     0.007 C 
HETATM   12  C   UNL     1     -47.057 -51.351  15.550  1.00  0.00     0.001 C 
HETATM   13  C   UNL     1     -45.649 -50.946  15.978  1.00  0.00     0.002 C 
HETATM   14  C   UNL     1     -44.664 -50.938  14.811  1.00  0.00     0.032 C 
ENDBRANCH   7   8
ENDBRANCH   6   7
ENDBRANCH   5   6
ENDBRANCH   1   5
BRANCH   2  15
HETATM   15  C   UNL     1     -42.704 -47.544  10.959  1.00  0.00     0.255 C 
BRANCH  15  16
HETATM   16  N   UNL     1     -41.998 -46.288  11.157  1.00  0.00    -0.246 N 
HETATM   17  N   UNL     1     -41.099 -45.932  10.133  1.00  0.00    -0.261 N 
HETATM   18  C   UNL     1     -40.241 -44.872  10.252  1.00  0.00     0.260 C 
HETATM   19  H   UNL     1     -40.817 -46.662   9.475  1.00  0.00     0.190 HD
HETATM   20  O   UNL     1     -39.332 -44.646   9.463  1.00  0.00    -0.267 OA
HETATM   21  C   UNL     1     -40.480 -43.972  11.396  1.00  0.00     0.081 C 
HETATM   22  C   UNL     1     -41.372 -44.274  12.339  1.00  0.00     0.081 C 
HETATM   23  C   UNL     1     -42.164 -45.522  12.287  1.00  0.00     0.262 C 
HETATM   24  O   UNL     1     -42.917 -45.804  13.215  1.00  0.00    -0.267 OA
ENDBRANCH  15  16
ENDBRANCH   2  15
TORSDOF 6
ENDMDL
MODEL 6
REMARK VINA RESULT:      -6.1      4.614      7.433
REMARK  6 active torsions:
REMARK  status: ('A' for Active; 'I' for Inactive)
REMARK    1  A    between atoms: C_7  and  O_8 
REMARK    2  A    between atoms: O_8  and  C_9 
REMARK    3  A    between atoms: C_9  and  C_10 
REMARK    4  A    between atoms: C_10  and  N_11 
REMARK       I    between atoms: N_11  and  C_12 
REMARK    5  A    between atoms: C_12  and  C_14 
REMARK    6  A    between atoms: C_14  and  N_15 
ROOT
HETATM    1  N   UNL     1     -42.409 -53.897  12.671  1.00  0.00    -0.358 N 
HETATM    2  C   UNL     1     -43.023 -54.266  13.850  1.00  0.00     0.237 C 
HETATM    3  O   UNL     1     -42.444 -54.336  14.935  1.00  0.00    -0.272 OA
HETATM    4  H   UNL     1     -42.890 -54.078  11.798  1.00  0.00     0.162 HD
ENDROOT
BRANCH   1   5
HETATM    5  C   UNL     1     -40.976 -53.642  12.620  1.00  0.00     0.148 C 
BRANCH   5   6
HETATM    6  C   UNL     1     -40.639 -52.181  12.306  1.00  0.00     0.187 C 
BRANCH   6   7
HETATM    7  O   UNL     1     -39.296 -51.882  12.689  1.00  0.00    -0.384 OA
BRANCH   7   8
HETATM    8  C   UNL     1     -39.146 -50.651  13.406  1.00  0.00     0.125 C 
HETATM    9  C   UNL     1     -38.831 -49.460  12.475  1.00  0.00     0.010 C 
HETATM   10  C   UNL     1     -37.675 -49.758  11.509  1.00  0.00     0.012 C 
HETATM   11  C   UNL     1     -38.572 -48.193  13.300  1.00  0.00     0.007 C 
HETATM   12  C   UNL     1     -37.476 -48.381  14.345  1.00  0.00     0.001 C 
HETATM   13  C   UNL     1     -37.752 -49.582  15.245  1.00  0.00     0.002 C 
HETATM   14  C   UNL     1     -38.037 -50.854  14.450  1.00  0.00     0.032 C 
ENDBRANCH   7   8
ENDBRANCH   6   7
ENDBRANCH   5   6
ENDBRANCH   1   5
BRANCH   2  15
HETATM   15  C   UNL     1     -44.510 -54.590  13.736  1.00  0.00     0.255 C 
BRANCH  15  16
HETATM   16  N   UNL     1     -45.330 -53.458  14.139  1.00  0.00    -0.246 N 
HETATM   17  N   UNL     1     -45.445 -53.258  15.528  1.00  0.00    -0.261 N 
HETATM   18  C   UNL     1     -46.311 -52.345  16.065  1.00  0.00     0.260 C 
HETATM   19  H   UNL     1     -45.174 -54.030  16.142  1.00  0.00     0.190 HD
HETATM   20  O   UNL     1     -46.562 -52.272  17.261  1.00  0.00    -0.267 OA
HETATM   21  C   UNL     1     -46.934 -51.406  15.111  1.00  0.00     0.081 C 
HETATM   22  C   UNL     1     -46.782 -51.555  13.796  1.00  0.00     0.081 C 
HETATM   23  C   UNL     1     -45.985 -52.664  13.226  1.00  0.00     0.262 C 
HETATM   24  O   UNL     1     -45.935 -52.815  12.009  1.00  0.00    -0.267 OA
ENDBRANCH  15  16
ENDBRANCH   2  15
TORSDOF 6
ENDMDL
MODEL 7
REMARK VINA RESULT:      -6.0      3.910      5.424
REMARK  6 active torsions:
REMARK  status: ('A' for Active; 'I' for Inactive)
REMARK    1  A    between atoms: C_7  and  O_8 
REMARK    2  A    between atoms: O_8  and  C_9 
REMARK    3  A    between atoms: C_9  and  C_10 
REMARK    4  A    between atoms: C_10  and  N_11 
REMARK       I    between atoms: N_11  and  C_12 
REMARK    5  A    between atoms: C_12  and  C_14 
REMARK    6  A    between atoms: C_14  and  N_15 
ROOT
HETATM    1  N   UNL     1     -40.585 -53.806  14.962  1.00  0.00    -0.358 N 
HETATM    2  C   UNL     1     -39.975 -53.257  13.854  1.00  0.00     0.237 C 
HETATM    3  O   UNL     1     -40.384 -53.403  12.701  1.00  0.00    -0.272 OA
HETATM    4  H   UNL     1     -40.072 -53.828  15.836  1.00  0.00     0.162 HD
ENDROOT
BRANCH   1   5
HETATM    5  C   UNL     1     -41.737 -54.686  14.827  1.00  0.00     0.148 C 
BRANCH   5   6
HETATM    6  C   UNL     1     -42.890 -54.316  15.765  1.00  0.00     0.187 C 
BRANCH   6   7
HETATM    7  O   UNL     1     -43.346 -52.989  15.500  1.00  0.00    -0.384 OA
BRANCH   7   8
HETATM    8  C   UNL     1     -44.591 -52.923  14.794  1.00  0.00     0.125 C 
HETATM    9  C   UNL     1     -44.397 -52.768  13.270  1.00  0.00     0.010 C 
HETATM   10  C   UNL     1     -43.422 -51.637  12.912  1.00  0.00     0.012 C 
HETATM   11  C   UNL     1     -45.754 -52.591  12.576  1.00  0.00     0.007 C 
HETATM   12  C   UNL     1     -46.565 -51.432  13.149  1.00  0.00     0.001 C 
HETATM   13  C   UNL     1     -46.727 -51.550  14.661  1.00  0.00     0.002 C 
HETATM   14  C   UNL     1     -45.394 -51.750  15.378  1.00  0.00     0.032 C 
ENDBRANCH   7   8
ENDBRANCH   6   7
ENDBRANCH   5   6
ENDBRANCH   1   5
BRANCH   2  15
HETATM   15  C   UNL     1     -38.726 -52.428  14.141  1.00  0.00     0.255 C 
BRANCH  15  16
HETATM   16  N   UNL     1     -38.691 -51.225  13.325  1.00  0.00    -0.246 N 
HETATM   17  N   UNL     1     -39.776 -50.343  13.502  1.00  0.00    -0.261 N 
HETATM   18  C   UNL     1     -39.972 -49.258  12.691  1.00  0.00     0.260 C 
HETATM   19  H   UNL     1     -40.608 -50.704  13.974  1.00  0.00     0.190 HD
HETATM   20  O   UNL     1     -40.992 -48.579  12.706  1.00  0.00    -0.267 OA
HETATM   21  C   UNL     1     -38.859 -48.916  11.786  1.00  0.00     0.081 C 
HETATM   22  C   UNL     1     -37.802 -49.718  11.657  1.00  0.00     0.081 C 
HETATM   23  C   UNL     1     -37.692 -50.985  12.411  1.00  0.00     0.262 C 
HETATM   24  O   UNL     1     -36.742 -51.736  12.205  1.00  0.00    -0.267 OA
ENDBRANCH  15  16
ENDBRANCH   2  15
TORSDOF 6
ENDMDL
MODEL 8
REMARK VINA RESULT:      -6.0      2.984      3.657
REMARK  6 active torsions:
REMARK  status: ('A' for Active; 'I' for Inactive)
REMARK    1  A    between atoms: C_7  and  O_8 
REMARK    2  A    between atoms: O_8  and  C_9 
REMARK    3  A    between atoms: C_9  and  C_10 
REMARK    4  A    between atoms: C_10  and  N_11 
REMARK       I    between atoms: N_11  and  C_12 
REMARK    5  A    between atoms: C_12  and  C_14 
REMARK    6  A    between atoms: C_14  and  N_15 
ROOT
HETATM    1  N   UNL     1     -40.207 -51.109  11.962  1.00  0.00    -0.358 N 
HETATM    2  C   UNL     1     -40.381 -49.801  11.560  1.00  0.00     0.237 C 
HETATM    3  O   UNL     1     -41.428 -49.361  11.085  1.00  0.00    -0.272 OA
HETATM    4  H   UNL     1     -39.265 -51.442  12.130  1.00  0.00     0.162 HD
ENDROOT
BRANCH   1   5
HETATM    5  C   UNL     1     -41.255 -52.100  11.763  1.00  0.00     0.148 C 
BRANCH   5   6
HETATM    6  C   UNL     1     -42.108 -52.330  13.015  1.00  0.00     0.187 C 
BRANCH   6   7
HETATM    7  O   UNL     1     -43.497 -52.341  12.682  1.00  0.00    -0.384 OA
BRANCH   7   8
HETATM    8  C   UNL     1     -44.374 -52.179  13.802  1.00  0.00     0.125 C 
HETATM    9  C   UNL     1     -44.651 -53.511  14.533  1.00  0.00     0.010 C 
HETATM   10  C   UNL     1     -45.074 -54.632  13.572  1.00  0.00     0.012 C 
HETATM   11  C   UNL     1     -45.679 -53.302  15.652  1.00  0.00     0.007 C 
HETATM   12  C   UNL     1     -46.974 -52.667  15.154  1.00  0.00     0.001 C 
HETATM   13  C   UNL     1     -46.712 -51.371  14.392  1.00  0.00     0.002 C 
HETATM   14  C   UNL     1     -45.674 -51.544  13.286  1.00  0.00     0.032 C 
ENDBRANCH   7   8
ENDBRANCH   6   7
ENDBRANCH   5   6
ENDBRANCH   1   5
BRANCH   2  15
HETATM   15  C   UNL     1     -39.167 -48.895  11.748  1.00  0.00     0.255 C 
BRANCH  15  16
HETATM   16  N   UNL     1     -39.563 -47.505  11.908  1.00  0.00    -0.246 N 
HETATM   17  N   UNL     1     -39.783 -46.798  10.710  1.00  0.00    -0.261 N 
HETATM   18  C   UNL     1     -39.996 -45.446  10.690  1.00  0.00     0.260 C 
HETATM   19  H   UNL     1     -39.419 -47.205   9.845  1.00  0.00     0.190 HD
HETATM   20  O   UNL     1     -40.013 -44.779   9.662  1.00  0.00    -0.267 OA
HETATM   21  C   UNL     1     -40.233 -44.809  11.999  1.00  0.00     0.081 C 
HETATM   22  C   UNL     1     -40.083 -45.488  13.136  1.00  0.00     0.081 C 
HETATM   23  C   UNL     1     -39.673 -46.909  13.143  1.00  0.00     0.262 C 
HETATM   24  O   UNL     1     -39.467 -47.478  14.211  1.00  0.00    -0.267 OA
ENDBRANCH  15  16
ENDBRANCH   2  15
TORSDOF 6
ENDMDL
MODEL 9
REMARK VINA RESULT:      -6.0      3.943      6.700
REMARK  6 active torsions:
REMARK  status: ('A' for Active; 'I' for Inactive)
REMARK    1  A    between atoms: C_7  and  O_8 
REMARK    2  A    between atoms: O_8  and  C_9 
REMARK    3  A    between atoms: C_9  and  C_10 
REMARK    4  A    between atoms: C_10  and  N_11 
REMARK       I    between atoms: N_11  and  C_12 
REMARK    5  A    between atoms: C_12  and  C_14 
REMARK    6  A    between atoms: C_14  and  N_15 
ROOT
HETATM    1  N   UNL     1     -42.940 -54.242  13.566  1.00  0.00    -0.358 N 
HETATM    2  C   UNL     1     -43.712 -55.042  14.382  1.00  0.00     0.237 C 
HETATM    3  O   UNL     1     -43.259 -55.737  15.292  1.00  0.00    -0.272 OA
HETATM    4  H   UNL     1     -43.350 -53.882  12.712  1.00  0.00     0.162 HD
ENDROOT
BRANCH   1   5
HETATM    5  C   UNL     1     -41.488 -54.233  13.681  1.00  0.00     0.148 C 
BRANCH   5   6
HETATM    6  C   UNL     1     -40.807 -53.383  12.603  1.00  0.00     0.187 C 
BRANCH   6   7
HETATM    7  O   UNL     1     -40.648 -52.036  13.051  1.00  0.00    -0.384 OA
BRANCH   7   8
HETATM    8  C   UNL     1     -41.537 -51.100  12.432  1.00  0.00     0.125 C 
HETATM    9  C   UNL     1     -40.789 -49.912  11.789  1.00  0.00     0.010 C 
HETATM   10  C   UNL     1     -39.777 -49.266  12.746  1.00  0.00     0.012 C 
HETATM   11  C   UNL     1     -41.788 -48.887  11.239  1.00  0.00     0.007 C 
HETATM   12  C   UNL     1     -42.782 -48.406  12.292  1.00  0.00     0.001 C 
HETATM   13  C   UNL     1     -43.498 -49.571  12.967  1.00  0.00     0.002 C 
HETATM   14  C   UNL     1     -42.527 -50.621  13.504  1.00  0.00     0.032 C 
ENDBRANCH   7   8
ENDBRANCH   6   7
ENDBRANCH   5   6
ENDBRANCH   1   5
BRANCH   2  15
HETATM   15  C   UNL     1     -45.210 -55.018  14.089  1.00  0.00     0.255 C 
BRANCH  15  16
HETATM   16  N   UNL     1     -45.771 -53.695  14.312  1.00  0.00    -0.246 N 
HETATM   17  N   UNL     1     -46.104 -53.397  15.647  1.00  0.00    -0.261 N 
HETATM   18  C   UNL     1     -46.792 -52.265  15.992  1.00  0.00     0.260 C 
HETATM   19  H   UNL     1     -46.172 -54.178  16.305  1.00  0.00     0.190 HD
HETATM   20  O   UNL     1     -47.249 -52.066  17.111  1.00  0.00    -0.267 OA
HETATM   21  C   UNL     1     -46.947 -51.253  14.930  1.00  0.00     0.081 C 
HETATM   22  C   UNL     1     -46.579 -51.508  13.674  1.00  0.00     0.081 C 
HETATM   23  C   UNL     1     -46.001 -52.811  13.283  1.00  0.00     0.262 C 
HETATM   24  O   UNL     1     -45.751 -53.037  12.102  1.00  0.00    -0.267 OA
ENDBRANCH  15  16
ENDBRANCH   2  15
TORSDOF 6
ENDMDL
