MODEL 1
REMARK VINA RESULT:      -5.6      0.000      0.000
REMARK  7 active torsions:
REMARK  status: ('A' for Active; 'I' for Inactive)
REMARK    1  A    between atoms: C_2  and  C_3 
REMARK    2  A    between atoms: C_3  and  N_4 
REMARK    3  A    between atoms: C_7  and  N_10 
REMARK    4  A    between atoms: N_10  and  C_11 
REMARK    5  A    between atoms: C_11  and  C_12 
REMARK    6  A    between atoms: C_12  and  O_13 
REMARK    7  A    between atoms: C_12  and  C_14 
ROOT
HETATM    1  N   UNL     1     -42.231 -49.164  11.124  1.00  0.00     0.090 N 
HETATM    2  H   UNL     1     -43.211 -48.945  11.301  1.00  0.00     0.316 HD
ENDROOT
BRANCH   1   3
HETATM    3  C   UNL     1     -41.544 -49.605  12.352  1.00  0.00     0.224 C 
HETATM    4  C   UNL     1     -40.657 -50.825  12.038  1.00  0.00     0.066 C 
HETATM    5  C   UNL     1     -41.474 -52.111  11.860  1.00  0.00     0.274 C 
HETATM    6  N   UNL     1     -42.407 -52.400  12.966  1.00  0.00     0.088 N 
HETATM    7  C   UNL     1     -43.274 -51.238  13.208  1.00  0.00     0.274 C 
HETATM    8  C   UNL     1     -42.483 -49.969  13.515  1.00  0.00     0.066 C 
BRANCH   6   9
HETATM    9  C   UNL     1     -41.685 -52.870  14.163  1.00  0.00     0.272 C 
BRANCH   9  10
HETATM   10  C   UNL     1     -41.167 -54.310  14.054  1.00  0.00     0.026 C 
HETATM   11  C   UNL     1     -39.649 -54.354  14.112  1.00  0.00     0.007 C 
ENDBRANCH   9  10
ENDBRANCH   6   9
ENDBRANCH   1   3
BRANCH   1  12
HETATM   12  C   UNL     1     -41.555 -48.044  10.462  1.00  0.00     0.306 C 
BRANCH  12  13
HETATM   13  C   UNL     1     -42.482 -46.834  10.189  1.00  0.00     0.179 C 
BRANCH  13  14
HETATM   14  O   UNL     1     -41.782 -45.773   9.532  1.00  0.00    -0.389 OA
HETATM   15  H   UNL     1     -40.853 -46.037   9.445  1.00  0.00     0.210 HD
ENDBRANCH  13  14
BRANCH  13  16
HETATM   16  C   UNL     1     -43.626 -47.304   9.316  1.00  0.00    -0.025 A 
HETATM   17  C   UNL     1     -44.918 -47.389   9.846  1.00  0.00     0.027 A 
HETATM   18  C   UNL     1     -45.915 -47.969   9.080  1.00  0.00     0.088 A 
HETATM   19  N   UNL     1     -45.719 -48.462   7.839  1.00  0.00    -0.375 N 
HETATM   20  C   UNL     1     -44.473 -48.354   7.334  1.00  0.00     0.088 A 
ATOM     21  HN  UNL     1     -46.476 -48.894   7.309  1.00  0.00     0.164 HD
HETATM   22  C   UNL     1     -43.410 -47.792   8.020  1.00  0.00     0.027 A 
ENDBRANCH  13  16
ENDBRANCH  12  13
ENDBRANCH   1  12
TORSDOF 7
ENDMDL
MODEL 2
REMARK VINA RESULT:      -5.6      1.540      1.795
REMARK  7 active torsions:
REMARK  status: ('A' for Active; 'I' for Inactive)
REMARK    1  A    between atoms: C_2  and  C_3 
REMARK    2  A    between atoms: C_3  and  N_4 
REMARK    3  A    between atoms: C_7  and  N_10 
REMARK    4  A    between atoms: N_10  and  C_11 
REMARK    5  A    between atoms: C_11  and  C_12 
REMARK    6  A    between atoms: C_12  and  O_13 
REMARK    7  A    between atoms: C_12  and  C_14 
ROOT
HETATM    1  N   UNL     1     -42.615 -49.485  11.655  1.00  0.00     0.090 N 
HETATM    2  H   UNL     1     -43.350 -49.998  11.170  1.00  0.00     0.316 HD
ENDROOT
BRANCH   1   3
HETATM    3  C   UNL     1     -42.231 -50.149  12.914  1.00  0.00     0.224 C 
HETATM    4  C   UNL     1     -41.622 -51.530  12.603  1.00  0.00     0.066 C 
HETATM    5  C   UNL     1     -42.685 -52.564  12.213  1.00  0.00     0.274 C 
HETATM    6  N   UNL     1     -43.806 -52.677  13.166  1.00  0.00     0.088 N 
HETATM    7  C   UNL     1     -44.400 -51.354  13.402  1.00  0.00     0.274 C 
HETATM    8  C   UNL     1     -43.384 -50.337  13.916  1.00  0.00     0.066 C 
BRANCH   6   9
HETATM    9  C   UNL     1     -43.391 -53.377  14.397  1.00  0.00     0.272 C 
BRANCH   9  10
HETATM   10  C   UNL     1     -43.987 -54.783  14.545  1.00  0.00     0.026 C 
HETATM   11  C   UNL     1     -45.252 -54.935  13.715  1.00  0.00     0.007 C 
ENDBRANCH   9  10
ENDBRANCH   6   9
ENDBRANCH   1   3
BRANCH   1  12
HETATM   12  C   UNL     1     -42.992 -48.080  11.842  1.00  0.00     0.306 C 
BRANCH  12  13
HETATM   13  C   UNL     1     -42.653 -47.180  10.628  1.00  0.00     0.179 C 
BRANCH  13  14
HETATM   14  O   UNL     1     -41.328 -47.425  10.145  1.00  0.00    -0.389 OA
HETATM   15  H   UNL     1     -41.371 -47.498   9.179  1.00  0.00     0.210 HD
ENDBRANCH  13  14
BRANCH  13  16
HETATM   16  C   UNL     1     -43.655 -47.471   9.531  1.00  0.00    -0.025 A 
HETATM   17  C   UNL     1     -45.023 -47.494   9.826  1.00  0.00     0.027 A 
HETATM   18  C   UNL     1     -45.907 -47.916   8.847  1.00  0.00     0.088 A 
HETATM   19  N   UNL     1     -45.531 -48.310   7.612  1.00  0.00    -0.375 N 
HETATM   20  C   UNL     1     -44.211 -48.263   7.337  1.00  0.00     0.088 A 
ATOM     21  HN  UNL     1     -46.210 -48.627   6.921  1.00  0.00     0.164 HD
HETATM   22  C   UNL     1     -43.249 -47.857   8.247  1.00  0.00     0.027 A 
ENDBRANCH  13  16
ENDBRANCH  12  13
ENDBRANCH   1  12
TORSDOF 7
ENDMDL
MODEL 3
REMARK VINA RESULT:      -5.5      4.098      6.272
REMARK  7 active torsions:
REMARK  status: ('A' for Active; 'I' for Inactive)
REMARK    1  A    between atoms: C_2  and  C_3 
REMARK    2  A    between atoms: C_3  and  N_4 
REMARK    3  A    between atoms: C_7  and  N_10 
REMARK    4  A    between atoms: N_10  and  C_11 
REMARK    5  A    between atoms: C_11  and  C_12 
REMARK    6  A    between atoms: C_12  and  O_13 
REMARK    7  A    between atoms: C_12  and  C_14 
ROOT
HETATM    1  N   UNL     1     -43.191 -52.791  12.076  1.00  0.00     0.090 N 
HETATM    2  H   UNL     1     -42.504 -53.489  11.793  1.00  0.00     0.316 HD
ENDROOT
BRANCH   1   3
HETATM    3  C   UNL     1     -42.650 -51.885  13.107  1.00  0.00     0.224 C 
HETATM    4  C   UNL     1     -42.238 -50.551  12.455  1.00  0.00     0.066 C 
HETATM    5  C   UNL     1     -40.929 -50.668  11.663  1.00  0.00     0.274 C 
HETATM    6  N   UNL     1     -39.809 -51.262  12.418  1.00  0.00     0.088 N 
HETATM    7  C   UNL     1     -40.216 -52.556  12.983  1.00  0.00     0.274 C 
HETATM    8  C   UNL     1     -41.445 -52.445  13.882  1.00  0.00     0.066 C 
BRANCH   6   9
HETATM    9  C   UNL     1     -39.274 -50.314  13.413  1.00  0.00     0.272 C 
BRANCH   9  10
HETATM   10  C   UNL     1     -38.113 -49.455  12.895  1.00  0.00     0.026 C 
HETATM   11  C   UNL     1     -37.409 -50.130  11.728  1.00  0.00     0.007 C 
ENDBRANCH   9  10
ENDBRANCH   6   9
ENDBRANCH   1   3
BRANCH   1  12
HETATM   12  C   UNL     1     -44.449 -53.427  12.479  1.00  0.00     0.306 C 
BRANCH  12  13
HETATM   13  C   UNL     1     -45.623 -52.430  12.645  1.00  0.00     0.179 C 
BRANCH  13  14
HETATM   14  O   UNL     1     -46.712 -52.750  11.774  1.00  0.00    -0.389 OA
HETATM   15  H   UNL     1     -47.131 -51.919  11.501  1.00  0.00     0.210 HD
ENDBRANCH  13  14
BRANCH  13  16
HETATM   16  C   UNL     1     -46.090 -52.488  14.084  1.00  0.00    -0.025 A 
HETATM   17  C   UNL     1     -46.818 -51.422  14.623  1.00  0.00     0.027 A 
HETATM   18  C   UNL     1     -47.098 -51.426  15.980  1.00  0.00     0.088 A 
HETATM   19  N   UNL     1     -46.711 -52.404  16.825  1.00  0.00    -0.375 N 
HETATM   20  C   UNL     1     -46.027 -53.435  16.286  1.00  0.00     0.088 A 
ATOM     21  HN  UNL     1     -46.924 -52.366  17.821  1.00  0.00     0.164 HD
HETATM   22  C   UNL     1     -45.699 -53.522  14.944  1.00  0.00     0.027 A 
ENDBRANCH  13  16
ENDBRANCH  12  13
ENDBRANCH   1  12
TORSDOF 7
ENDMDL
MODEL 4
REMARK VINA RESULT:      -5.5      4.443      6.336
REMARK  7 active torsions:
REMARK  status: ('A' for Active; 'I' for Inactive)
REMARK    1  A    between atoms: C_2  and  C_3 
REMARK    2  A    between atoms: C_3  and  N_4 
REMARK    3  A    between atoms: C_7  and  N_10 
REMARK    4  A    between atoms: N_10  and  C_11 
REMARK    5  A    between atoms: C_11  and  C_12 
REMARK    6  A    between atoms: C_12  and  O_13 
REMARK    7  A    between atoms: C_12  and  C_14 
ROOT
HETATM    1  N   UNL     1     -41.172 -53.680  14.308  1.00  0.00     0.090 N 
HETATM    2  H   UNL     1     -41.267 -53.741  13.295  1.00  0.00     0.316 HD
ENDROOT
BRANCH   1   3
HETATM    3  C   UNL     1     -42.487 -53.675  14.975  1.00  0.00     0.224 C 
HETATM    4  C   UNL     1     -43.415 -54.699  14.292  1.00  0.00     0.066 C 
HETATM    5  C   UNL     1     -43.938 -54.203  12.939  1.00  0.00     0.274 C 
HETATM    6  N   UNL     1     -44.557 -52.864  12.976  1.00  0.00     0.088 N 
HETATM    7  C   UNL     1     -43.629 -51.900  13.583  1.00  0.00     0.274 C 
HETATM    8  C   UNL     1     -43.193 -52.309  14.988  1.00  0.00     0.066 C 
BRANCH   6   9
HETATM    9  C   UNL     1     -45.883 -52.907  13.619  1.00  0.00     0.272 C 
BRANCH   9  10
HETATM   10  C   UNL     1     -46.529 -51.528  13.810  1.00  0.00     0.026 C 
HETATM   11  C   UNL     1     -46.984 -51.328  15.247  1.00  0.00     0.007 C 
ENDBRANCH   9  10
ENDBRANCH   6   9
ENDBRANCH   1   3
BRANCH   1  12
HETATM   12  C   UNL     1     -40.335 -52.539  14.689  1.00  0.00     0.306 C 
BRANCH  12  13
HETATM   13  C   UNL     1     -38.908 -52.588  14.088  1.00  0.00     0.179 C 
BRANCH  13  14
HETATM   14  O   UNL     1     -38.651 -53.841  13.447  1.00  0.00    -0.389 OA
HETATM   15  H   UNL     1     -37.980 -53.694  12.762  1.00  0.00     0.210 HD
ENDBRANCH  13  14
BRANCH  13  16
HETATM   16  C   UNL     1     -38.783 -51.466  13.079  1.00  0.00    -0.025 A 
HETATM   17  C   UNL     1     -39.934 -50.917  12.503  1.00  0.00     0.027 A 
HETATM   18  C   UNL     1     -39.790 -50.005  11.471  1.00  0.00     0.088 A 
HETATM   19  N   UNL     1     -38.598 -49.605  10.980  1.00  0.00    -0.375 N 
HETATM   20  C   UNL     1     -37.498 -50.128  11.560  1.00  0.00     0.088 A 
ATOM     21  HN  UNL     1     -38.532 -48.940  10.210  1.00  0.00     0.164 HD
HETATM   22  C   UNL     1     -37.537 -51.046  12.596  1.00  0.00     0.027 A 
ENDBRANCH  13  16
ENDBRANCH  12  13
ENDBRANCH   1  12
TORSDOF 7
ENDMDL
MODEL 5
REMARK VINA RESULT:      -5.5      3.025      7.017
REMARK  7 active torsions:
REMARK  status: ('A' for Active; 'I' for Inactive)
REMARK    1  A    between atoms: C_2  and  C_3 
REMARK    2  A    between atoms: C_3  and  N_4 
REMARK    3  A    between atoms: C_7  and  N_10 
REMARK    4  A    between atoms: N_10  and  C_11 
REMARK    5  A    between atoms: C_11  and  C_12 
REMARK    6  A    between atoms: C_12  and  O_13 
REMARK    7  A    between atoms: C_12  and  C_14 
ROOT
HETATM    1  N   UNL     1     -41.957 -50.174  11.618  1.00  0.00     0.090 N 
HETATM    2  H   UNL     1     -41.358 -50.054  10.802  1.00  0.00     0.316 HD
ENDROOT
BRANCH   1   3
HETATM    3  C   UNL     1     -42.127 -48.909  12.356  1.00  0.00     0.224 C 
HETATM    4  C   UNL     1     -42.878 -47.894  11.472  1.00  0.00     0.066 C 
HETATM    5  C   UNL     1     -41.985 -47.302  10.375  1.00  0.00     0.274 C 
HETATM    6  N   UNL     1     -40.708 -46.745  10.861  1.00  0.00     0.088 N 
HETATM    7  C   UNL     1     -39.991 -47.753  11.655  1.00  0.00     0.274 C 
HETATM    8  C   UNL     1     -40.815 -48.265  12.834  1.00  0.00     0.066 C 
BRANCH   6   9
HETATM    9  C   UNL     1     -40.916 -45.464  11.562  1.00  0.00     0.272 C 
BRANCH   9  10
HETATM   10  C   UNL     1     -39.947 -44.354  11.133  1.00  0.00     0.026 C 
HETATM   11  C   UNL     1     -39.318 -44.664   9.784  1.00  0.00     0.007 C 
ENDBRANCH   9  10
ENDBRANCH   6   9
ENDBRANCH   1   3
BRANCH   1  12
HETATM   12  C   UNL     1     -41.474 -51.269  12.466  1.00  0.00     0.306 C 
BRANCH  12  13
HETATM   13  C   UNL     1     -41.754 -52.676  11.882  1.00  0.00     0.179 C 
BRANCH  13  14
HETATM   14  O   UNL     1     -40.547 -53.429  11.723  1.00  0.00    -0.389 OA
HETATM   15  H   UNL     1     -40.180 -53.224  10.850  1.00  0.00     0.210 HD
ENDBRANCH  13  14
BRANCH  13  16
HETATM   16  C   UNL     1     -42.685 -53.402  12.829  1.00  0.00    -0.025 A 
HETATM   17  C   UNL     1     -42.165 -54.064  13.947  1.00  0.00     0.027 A 
HETATM   18  C   UNL     1     -43.012 -54.850  14.708  1.00  0.00     0.088 A 
HETATM   19  N   UNL     1     -44.324 -55.021  14.441  1.00  0.00    -0.375 N 
HETATM   20  C   UNL     1     -44.815 -54.361  13.372  1.00  0.00     0.088 A 
ATOM     21  HN  UNL     1     -44.914 -55.620  15.018  1.00  0.00     0.164 HD
HETATM   22  C   UNL     1     -44.049 -53.552  12.549  1.00  0.00     0.027 A 
ENDBRANCH  13  16
ENDBRANCH  12  13
ENDBRANCH   1  12
TORSDOF 7
ENDMDL
MODEL 6
REMARK VINA RESULT:      -5.5      5.277      7.625
REMARK  7 active torsions:
REMARK  status: ('A' for Active; 'I' for Inactive)
REMARK    1  A    between atoms: C_2  and  C_3 
REMARK    2  A    between atoms: C_3  and  N_4 
REMARK    3  A    between atoms: C_7  and  N_10 
REMARK    4  A    between atoms: N_10  and  C_11 
REMARK    5  A    between atoms: C_11  and  C_12 
REMARK    6  A    between atoms: C_12  and  O_13 
REMARK    7  A    between atoms: C_12  and  C_14 
ROOT
HETATM    1  N   UNL     1     -42.161 -54.185  12.860  1.00  0.00     0.090 N 
HETATM    2  H   UNL     1     -42.734 -53.914  12.061  1.00  0.00     0.316 HD
ENDROOT
BRANCH   1   3
HETATM    3  C   UNL     1     -42.819 -53.850  14.137  1.00  0.00     0.224 C 
HETATM    4  C   UNL     1     -43.925 -54.881  14.433  1.00  0.00     0.066 C 
HETATM    5  C   UNL     1     -45.172 -54.664  13.567  1.00  0.00     0.274 C 
HETATM    6  N   UNL     1     -45.704 -53.288  13.594  1.00  0.00     0.088 N 
HETATM    7  C   UNL     1     -44.639 -52.333  13.256  1.00  0.00     0.274 C 
HETATM    8  C   UNL     1     -43.435 -52.441  14.188  1.00  0.00     0.066 C 
BRANCH   6   9
HETATM    9  C   UNL     1     -46.383 -53.003  14.872  1.00  0.00     0.272 C 
BRANCH   9  10
HETATM   10  C   UNL     1     -46.918 -51.570  14.988  1.00  0.00     0.026 C 
HETATM   11  C   UNL     1     -47.496 -51.309  16.370  1.00  0.00     0.007 C 
ENDBRANCH   9  10
ENDBRANCH   6   9
ENDBRANCH   1   3
BRANCH   1  12
HETATM   12  C   UNL     1     -40.810 -53.627  12.750  1.00  0.00     0.306 C 
BRANCH  12  13
HETATM   13  C   UNL     1     -39.845 -54.118  13.858  1.00  0.00     0.179 C 
BRANCH  13  14
HETATM   14  O   UNL     1     -38.777 -54.902  13.317  1.00  0.00    -0.389 OA
HETATM   15  H   UNL     1     -37.947 -54.424  13.471  1.00  0.00     0.210 HD
ENDBRANCH  13  14
BRANCH  13  16
HETATM   16  C   UNL     1     -39.276 -52.902  14.559  1.00  0.00    -0.025 A 
HETATM   17  C   UNL     1     -38.765 -51.839  13.805  1.00  0.00     0.027 A 
HETATM   18  C   UNL     1     -38.109 -50.812  14.463  1.00  0.00     0.088 A 
HETATM   19  N   UNL     1     -37.930 -50.768  15.800  1.00  0.00    -0.375 N 
HETATM   20  C   UNL     1     -38.446 -51.790  16.514  1.00  0.00     0.088 A 
ATOM     21  HN  UNL     1     -37.430 -50.000  16.248  1.00  0.00     0.164 HD
HETATM   22  C   UNL     1     -39.117 -52.861  15.950  1.00  0.00     0.027 A 
ENDBRANCH  13  16
ENDBRANCH  12  13
ENDBRANCH   1  12
TORSDOF 7
ENDMDL
MODEL 7
REMARK VINA RESULT:      -5.4      3.289      6.985
REMARK  7 active torsions:
REMARK  status: ('A' for Active; 'I' for Inactive)
REMARK    1  A    between atoms: C_2  and  C_3 
REMARK    2  A    between atoms: C_3  and  N_4 
REMARK    3  A    between atoms: C_7  and  N_10 
REMARK    4  A    between atoms: N_10  and  C_11 
REMARK    5  A    between atoms: C_11  and  C_12 
REMARK    6  A    between atoms: C_12  and  O_13 
REMARK    7  A    between atoms: C_12  and  C_14 
ROOT
HETATM    1  N   UNL     1     -41.473 -50.010  12.502  1.00  0.00     0.090 N 
HETATM    2  H   UNL     1     -42.487 -50.038  12.395  1.00  0.00     0.316 HD
ENDROOT
BRANCH   1   3
HETATM    3  C   UNL     1     -40.823 -49.383  11.337  1.00  0.00     0.224 C 
HETATM    4  C   UNL     1     -39.501 -48.725  11.777  1.00  0.00     0.066 C 
HETATM    5  C   UNL     1     -39.726 -47.413  12.540  1.00  0.00     0.274 C 
HETATM    6  N   UNL     1     -40.600 -46.446  11.847  1.00  0.00     0.088 N 
HETATM    7  C   UNL     1     -41.872 -47.088  11.487  1.00  0.00     0.274 C 
HETATM    8  C   UNL     1     -41.679 -48.327  10.617  1.00  0.00     0.066 C 
BRANCH   6   9
HETATM    9  C   UNL     1     -39.902 -45.816  10.710  1.00  0.00     0.272 C 
BRANCH   9  10
HETATM   10  C   UNL     1     -40.026 -44.287  10.672  1.00  0.00     0.026 C 
HETATM   11  C   UNL     1     -40.005 -43.699  12.074  1.00  0.00     0.007 C 
ENDBRANCH   9  10
ENDBRANCH   6   9
ENDBRANCH   1   3
BRANCH   1  12
HETATM   12  C   UNL     1     -40.940 -51.342  12.806  1.00  0.00     0.306 C 
BRANCH  12  13
HETATM   13  C   UNL     1     -41.569 -52.471  11.951  1.00  0.00     0.179 C 
BRANCH  13  14
HETATM   14  O   UNL     1     -40.574 -53.372  11.456  1.00  0.00    -0.389 OA
HETATM   15  H   UNL     1     -41.029 -54.128  11.053  1.00  0.00     0.210 HD
ENDBRANCH  13  14
BRANCH  13  16
HETATM   16  C   UNL     1     -42.551 -53.227  12.819  1.00  0.00    -0.025 A 
HETATM   17  C   UNL     1     -42.091 -53.947  13.927  1.00  0.00     0.027 A 
HETATM   18  C   UNL     1     -42.983 -54.756  14.612  1.00  0.00     0.088 A 
HETATM   19  N   UNL     1     -44.283 -54.896  14.277  1.00  0.00    -0.375 N 
HETATM   20  C   UNL     1     -44.716 -54.179  13.219  1.00  0.00     0.088 A 
ATOM     21  HN  UNL     1     -44.906 -55.511  14.798  1.00  0.00     0.164 HD
HETATM   22  C   UNL     1     -43.903 -53.344  12.470  1.00  0.00     0.027 A 
ENDBRANCH  13  16
ENDBRANCH  12  13
ENDBRANCH   1  12
TORSDOF 7
ENDMDL
MODEL 8
REMARK VINA RESULT:      -5.3      2.465      3.630
REMARK  7 active torsions:
REMARK  status: ('A' for Active; 'I' for Inactive)
REMARK    1  A    between atoms: C_2  and  C_3 
REMARK    2  A    between atoms: C_3  and  N_4 
REMARK    3  A    between atoms: C_7  and  N_10 
REMARK    4  A    between atoms: N_10  and  C_11 
REMARK    5  A    between atoms: C_11  and  C_12 
REMARK    6  A    between atoms: C_12  and  O_13 
REMARK    7  A    between atoms: C_12  and  C_14 
ROOT
HETATM    1  N   UNL     1     -41.995 -50.872  12.259  1.00  0.00     0.090 N 
HETATM    2  H   UNL     1     -42.603 -50.825  11.442  1.00  0.00     0.316 HD
ENDROOT
BRANCH   1   3
HETATM    3  C   UNL     1     -42.721 -51.357  13.447  1.00  0.00     0.224 C 
HETATM    4  C   UNL     1     -41.944 -52.526  14.084  1.00  0.00     0.066 C 
HETATM    5  C   UNL     1     -42.087 -53.827  13.285  1.00  0.00     0.274 C 
HETATM    6  N   UNL     1     -43.480 -54.212  12.988  1.00  0.00     0.088 N 
HETATM    7  C   UNL     1     -44.180 -53.097  12.334  1.00  0.00     0.274 C 
HETATM    8  C   UNL     1     -44.162 -51.821  13.172  1.00  0.00     0.066 C 
BRANCH   6   9
HETATM    9  C   UNL     1     -44.160 -54.724  14.192  1.00  0.00     0.272 C 
BRANCH   9  10
HETATM   10  C   UNL     1     -45.583 -55.238  13.933  1.00  0.00     0.026 C 
HETATM   11  C   UNL     1     -46.600 -54.495  14.786  1.00  0.00     0.007 C 
ENDBRANCH   9  10
ENDBRANCH   6   9
ENDBRANCH   1   3
BRANCH   1  12
HETATM   12  C   UNL     1     -41.323 -49.589  12.486  1.00  0.00     0.306 C 
BRANCH  12  13
HETATM   13  C   UNL     1     -40.552 -49.064  11.248  1.00  0.00     0.179 C 
BRANCH  13  14
HETATM   14  O   UNL     1     -40.485 -50.051  10.214  1.00  0.00    -0.389 OA
HETATM   15  H   UNL     1     -39.896 -49.716   9.520  1.00  0.00     0.210 HD
ENDBRANCH  13  14
BRANCH  13  16
HETATM   16  C   UNL     1     -41.271 -47.836  10.732  1.00  0.00    -0.025 A 
HETATM   17  C   UNL     1     -40.703 -46.570  10.910  1.00  0.00     0.027 A 
HETATM   18  C   UNL     1     -41.448 -45.453  10.572  1.00  0.00     0.088 A 
HETATM   19  N   UNL     1     -42.701 -45.507  10.074  1.00  0.00    -0.375 N 
HETATM   20  C   UNL     1     -43.227 -46.735   9.890  1.00  0.00     0.088 A 
ATOM     21  HN  UNL     1     -43.224 -44.661   9.849  1.00  0.00     0.164 HD
HETATM   22  C   UNL     1     -42.564 -47.911  10.196  1.00  0.00     0.027 A 
ENDBRANCH  13  16
ENDBRANCH  12  13
ENDBRANCH   1  12
TORSDOF 7
ENDMDL
MODEL 9
REMARK VINA RESULT:      -5.1      4.123      5.995
REMARK  7 active torsions:
REMARK  status: ('A' for Active; 'I' for Inactive)
REMARK    1  A    between atoms: C_2  and  C_3 
REMARK    2  A    between atoms: C_3  and  N_4 
REMARK    3  A    between atoms: C_7  and  N_10 
REMARK    4  A    between atoms: N_10  and  C_11 
REMARK    5  A    between atoms: C_11  and  C_12 
REMARK    6  A    between atoms: C_12  and  O_13 
REMARK    7  A    between atoms: C_12  and  C_14 
ROOT
HETATM    1  N   UNL     1     -43.816 -51.650  12.514  1.00  0.00     0.090 N 
HETATM    2  H   UNL     1     -44.053 -52.633  12.386  1.00  0.00     0.316 HD
ENDROOT
BRANCH   1   3
HETATM    3  C   UNL     1     -42.698 -51.481  13.460  1.00  0.00     0.224 C 
HETATM    4  C   UNL     1     -41.376 -51.359  12.678  1.00  0.00     0.066 C 
HETATM    5  C   UNL     1     -40.896 -52.707  12.126  1.00  0.00     0.274 C 
HETATM    6  N   UNL     1     -40.825 -53.787  13.129  1.00  0.00     0.088 N 
HETATM    7  C   UNL     1     -42.115 -53.914  13.821  1.00  0.00     0.274 C 
HETATM    8  C   UNL     1     -42.554 -52.614  14.490  1.00  0.00     0.066 C 
BRANCH   6   9
HETATM    9  C   UNL     1     -39.675 -53.601  14.033  1.00  0.00     0.272 C 
BRANCH   9  10
HETATM   10  C   UNL     1     -38.956 -54.905  14.405  1.00  0.00     0.026 C 
HETATM   11  C   UNL     1     -39.296 -55.334  15.824  1.00  0.00     0.007 C 
ENDBRANCH   9  10
ENDBRANCH   6   9
ENDBRANCH   1   3
BRANCH   1  12
HETATM   12  C   UNL     1     -45.001 -50.869  12.884  1.00  0.00     0.306 C 
BRANCH  12  13
HETATM   13  C   UNL     1     -46.308 -51.700  12.914  1.00  0.00     0.179 C 
BRANCH  13  14
HETATM   14  O   UNL     1     -46.315 -52.705  11.895  1.00  0.00    -0.389 OA
HETATM   15  H   UNL     1     -46.560 -52.281  11.058  1.00  0.00     0.210 HD
ENDBRANCH  13  14
BRANCH  13  16
HETATM   16  C   UNL     1     -46.418 -52.355  14.274  1.00  0.00    -0.025 A 
HETATM   17  C   UNL     1     -46.702 -51.577  15.401  1.00  0.00     0.027 A 
HETATM   18  C   UNL     1     -46.643 -52.169  16.651  1.00  0.00     0.088 A 
HETATM   19  N   UNL     1     -46.327 -53.466  16.855  1.00  0.00    -0.375 N 
HETATM   20  C   UNL     1     -46.076 -54.208  15.757  1.00  0.00     0.088 A 
ATOM     21  HN  UNL     1     -46.281 -53.864  17.793  1.00  0.00     0.164 HD
HETATM   22  C   UNL     1     -46.110 -53.708  14.467  1.00  0.00     0.027 A 
ENDBRANCH  13  16
ENDBRANCH  12  13
ENDBRANCH   1  12
TORSDOF 7
ENDMDL
