MODEL 1
REMARK VINA RESULT:      -6.8      0.000      0.000
REMARK  4 active torsions:
REMARK  status: ('A' for Active; 'I' for Inactive)
REMARK    1  A    between atoms: C_2  and  C_5 
REMARK    2  A    between atoms: C_10  and  N_11 
REMARK       I    between atoms: N_11  and  C_12 
REMARK       I    between atoms: C_12  and  N_14 
REMARK    3  A    between atoms: N_14  and  C_15 
REMARK    4  A    between atoms: C_15  and  C_16 
ROOT
HETATM    1  N   UNL     1     -42.618 -47.800  12.198  1.00  0.00    -0.304 N 
HETATM    2  C   UNL     1     -41.964 -48.930  12.594  1.00  0.00     0.320 C 
HETATM    3  O   UNL     1     -41.547 -49.027  13.745  1.00  0.00    -0.247 OA
HETATM    4  N   UNL     1     -41.722 -49.871  11.629  1.00  0.00    -0.340 N 
HETATM    5  H   UNL     1     -42.405 -47.014  12.811  1.00  0.00     0.171 HD
HETATM    6  H   UNL     1     -41.745 -49.544  10.675  1.00  0.00     0.164 HD
ENDROOT
BRANCH   1   7
HETATM    7  C   UNL     1     -43.161 -47.478  10.980  1.00  0.00     0.105 A 
HETATM    8  C   UNL     1     -42.295 -46.666  10.053  1.00  0.00     0.272 A 
HETATM    9  N   UNL     1     -42.811 -46.440   8.799  1.00  0.00    -0.331 N 
HETATM   10  O   UNL     1     -41.180 -46.279  10.389  1.00  0.00    -0.266 OA
HETATM   11  C   UNL     1     -44.054 -46.860   8.392  1.00  0.00     0.107 A 
HETATM   12  H   UNL     1     -42.204 -45.936   8.164  1.00  0.00     0.168 HD
HETATM   13  C   UNL     1     -44.868 -47.535   9.227  1.00  0.00     0.065 A 
HETATM   14  C   UNL     1     -44.389 -47.833  10.568  1.00  0.00     0.052 A 
BRANCH  13  15
HETATM   15  C   UNL     1     -46.226 -48.019   8.806  1.00  0.00     0.418 C 
HETATM   16  F   UNL     1     -47.152 -47.028   8.763  1.00  0.00    -0.166 F 
HETATM   17  F   UNL     1     -46.699 -48.962   9.660  1.00  0.00    -0.166 F 
HETATM   18  F   UNL     1     -46.196 -48.584   7.573  1.00  0.00    -0.166 F 
ENDBRANCH  13  15
ENDBRANCH   1   7
BRANCH   4  19
HETATM   19  C   UNL     1     -40.733 -50.910  11.869  1.00  0.00     0.158 C 
BRANCH  19  20
HETATM   20  C   UNL     1     -41.346 -52.317  11.784  1.00  0.00     0.163 C 
HETATM   21  C   UNL     1     -42.699 -52.365  12.503  1.00  0.00     0.201 C 
HETATM   22  O   UNL     1     -42.531 -52.263  13.923  1.00  0.00    -0.386 OA
HETATM   23  C   UNL     1     -41.736 -53.359  14.390  1.00  0.00     0.193 C 
HETATM   24  C   UNL     1     -40.361 -53.349  13.721  1.00  0.00     0.194 C 
HETATM   25  O   UNL     1     -40.455 -53.338  12.288  1.00  0.00    -0.380 OA
ENDBRANCH  19  20
ENDBRANCH   4  19
TORSDOF 4
ENDMDL
MODEL 2
REMARK VINA RESULT:      -6.8      2.641      5.973
REMARK  4 active torsions:
REMARK  status: ('A' for Active; 'I' for Inactive)
REMARK    1  A    between atoms: C_2  and  C_5 
REMARK    2  A    between atoms: C_10  and  N_11 
REMARK       I    between atoms: N_11  and  C_12 
REMARK       I    between atoms: C_12  and  N_14 
REMARK    3  A    between atoms: N_14  and  C_15 
REMARK    4  A    between atoms: C_15  and  C_16 
ROOT
HETATM    1  N   UNL     1     -41.724 -50.234  13.133  1.00  0.00    -0.304 N 
HETATM    2  C   UNL     1     -41.210 -49.284  12.298  1.00  0.00     0.320 C 
HETATM    3  O   UNL     1     -40.294 -48.561  12.681  1.00  0.00    -0.247 OA
HETATM    4  N   UNL     1     -41.830 -49.129  11.087  1.00  0.00    -0.340 N 
HETATM    5  H   UNL     1     -41.512 -50.025  14.107  1.00  0.00     0.171 HD
HETATM    6  H   UNL     1     -42.776 -49.474  11.026  1.00  0.00     0.164 HD
ENDROOT
BRANCH   1   7
HETATM    7  C   UNL     1     -42.733 -51.139  12.921  1.00  0.00     0.105 A 
HETATM    8  C   UNL     1     -42.343 -52.432  12.253  1.00  0.00     0.272 A 
HETATM    9  N   UNL     1     -43.342 -53.370  12.142  1.00  0.00    -0.331 N 
HETATM   10  O   UNL     1     -41.194 -52.643  11.881  1.00  0.00    -0.266 OA
HETATM   11  C   UNL     1     -44.638 -53.166  12.549  1.00  0.00     0.107 A 
HETATM   12  H   UNL     1     -43.063 -54.256  11.736  1.00  0.00     0.168 HD
HETATM   13  C   UNL     1     -45.020 -51.994  13.094  1.00  0.00     0.065 A 
HETATM   14  C   UNL     1     -44.017 -50.954  13.266  1.00  0.00     0.052 A 
BRANCH  13  15
HETATM   15  C   UNL     1     -46.425 -51.746  13.562  1.00  0.00     0.418 C 
HETATM   16  F   UNL     1     -46.489 -50.903  14.622  1.00  0.00    -0.166 F 
HETATM   17  F   UNL     1     -47.029 -52.900  13.940  1.00  0.00    -0.166 F 
HETATM   18  F   UNL     1     -47.190 -51.204  12.581  1.00  0.00    -0.166 F 
ENDBRANCH  13  15
ENDBRANCH   1   7
BRANCH   4  19
HETATM   19  C   UNL     1     -41.592 -47.925  10.307  1.00  0.00     0.158 C 
BRANCH  19  20
HETATM   20  C   UNL     1     -42.551 -46.789  10.696  1.00  0.00     0.163 C 
HETATM   21  C   UNL     1     -43.933 -47.346  11.062  1.00  0.00     0.201 C 
HETATM   22  O   UNL     1     -44.610 -47.843   9.900  1.00  0.00    -0.386 OA
HETATM   23  C   UNL     1     -44.790 -46.779   8.959  1.00  0.00     0.193 C 
HETATM   24  C   UNL     1     -43.439 -46.198   8.540  1.00  0.00     0.194 C 
HETATM   25  O   UNL     1     -42.656 -45.778   9.668  1.00  0.00    -0.380 OA
ENDBRANCH  19  20
ENDBRANCH   4  19
TORSDOF 4
ENDMDL
MODEL 3
REMARK VINA RESULT:      -6.6      2.683      6.187
REMARK  4 active torsions:
REMARK  status: ('A' for Active; 'I' for Inactive)
REMARK    1  A    between atoms: C_2  and  C_5 
REMARK    2  A    between atoms: C_10  and  N_11 
REMARK       I    between atoms: N_11  and  C_12 
REMARK       I    between atoms: C_12  and  N_14 
REMARK    3  A    between atoms: N_14  and  C_15 
REMARK    4  A    between atoms: C_15  and  C_16 
ROOT
HETATM    1  N   UNL     1     -41.678 -50.506  13.180  1.00  0.00    -0.304 N 
HETATM    2  C   UNL     1     -41.228 -49.526  12.344  1.00  0.00     0.320 C 
HETATM    3  O   UNL     1     -40.286 -48.814  12.683  1.00  0.00    -0.247 OA
HETATM    4  N   UNL     1     -41.938 -49.328  11.190  1.00  0.00    -0.340 N 
HETATM    5  H   UNL     1     -41.392 -50.332  14.142  1.00  0.00     0.171 HD
HETATM    6  H   UNL     1     -42.886 -49.673  11.188  1.00  0.00     0.164 HD
ENDROOT
BRANCH   1   7
HETATM    7  C   UNL     1     -42.699 -51.406  13.013  1.00  0.00     0.105 A 
HETATM    8  C   UNL     1     -42.318 -52.758  12.469  1.00  0.00     0.272 A 
HETATM    9  N   UNL     1     -43.334 -53.682  12.404  1.00  0.00    -0.331 N 
HETATM   10  O   UNL     1     -41.163 -53.023  12.153  1.00  0.00    -0.266 OA
HETATM   11  C   UNL     1     -44.637 -53.419  12.750  1.00  0.00     0.107 A 
HETATM   12  H   UNL     1     -43.063 -54.605  12.084  1.00  0.00     0.168 HD
HETATM   13  C   UNL     1     -45.009 -52.198  13.182  1.00  0.00     0.065 A 
HETATM   14  C   UNL     1     -43.989 -51.167  13.298  1.00  0.00     0.052 A 
BRANCH  13  15
HETATM   15  C   UNL     1     -46.423 -51.883  13.580  1.00  0.00     0.418 C 
HETATM   16  F   UNL     1     -47.109 -52.974  14.003  1.00  0.00    -0.166 F 
HETATM   17  F   UNL     1     -47.121 -51.357  12.543  1.00  0.00    -0.166 F 
HETATM   18  F   UNL     1     -46.468 -50.975  14.587  1.00  0.00    -0.166 F 
ENDBRANCH  13  15
ENDBRANCH   1   7
BRANCH   4  19
HETATM   19  C   UNL     1     -41.761 -48.096  10.439  1.00  0.00     0.158 C 
BRANCH  19  20
HETATM   20  C   UNL     1     -42.982 -47.170  10.556  1.00  0.00     0.163 C 
HETATM   21  C   UNL     1     -42.887 -46.016   9.550  1.00  0.00     0.201 C 
HETATM   22  O   UNL     1     -41.853 -45.095   9.921  1.00  0.00    -0.386 OA
HETATM   23  C   UNL     1     -42.143 -44.544  11.210  1.00  0.00     0.193 C 
HETATM   24  C   UNL     1     -42.228 -45.651  12.262  1.00  0.00     0.194 C 
HETATM   25  O   UNL     1     -43.171 -46.672  11.900  1.00  0.00    -0.380 OA
ENDBRANCH  19  20
ENDBRANCH   4  19
TORSDOF 4
ENDMDL
MODEL 4
REMARK VINA RESULT:      -6.5      2.475      3.085
REMARK  4 active torsions:
REMARK  status: ('A' for Active; 'I' for Inactive)
REMARK    1  A    between atoms: C_2  and  C_5 
REMARK    2  A    between atoms: C_10  and  N_11 
REMARK       I    between atoms: N_11  and  C_12 
REMARK       I    between atoms: C_12  and  N_14 
REMARK    3  A    between atoms: N_14  and  C_15 
REMARK    4  A    between atoms: C_15  and  C_16 
ROOT
HETATM    1  N   UNL     1     -43.036 -48.887  13.298  1.00  0.00    -0.304 N 
HETATM    2  C   UNL     1     -43.451 -50.116  13.721  1.00  0.00     0.320 C 
HETATM    3  O   UNL     1     -43.487 -50.372  14.922  1.00  0.00    -0.247 OA
HETATM    4  N   UNL     1     -43.715 -51.044  12.750  1.00  0.00    -0.340 N 
HETATM    5  H   UNL     1     -42.485 -48.415  14.013  1.00  0.00     0.171 HD
HETATM    6  H   UNL     1     -43.292 -50.877  11.850  1.00  0.00     0.164 HD
ENDROOT
BRANCH   1   7
HETATM    7  C   UNL     1     -42.917 -48.388  12.025  1.00  0.00     0.105 A 
HETATM    8  C   UNL     1     -41.524 -48.333  11.455  1.00  0.00     0.272 A 
HETATM    9  N   UNL     1     -41.432 -47.929  10.144  1.00  0.00    -0.331 N 
HETATM   10  O   UNL     1     -40.546 -48.677  12.111  1.00  0.00    -0.266 OA
HETATM   11  C   UNL     1     -42.506 -47.538   9.383  1.00  0.00     0.107 A 
HETATM   12  H   UNL     1     -40.498 -47.941   9.750  1.00  0.00     0.168 HD
HETATM   13  C   UNL     1     -43.753 -47.523   9.894  1.00  0.00     0.065 A 
HETATM   14  C   UNL     1     -43.939 -47.956  11.270  1.00  0.00     0.052 A 
BRANCH  13  15
HETATM   15  C   UNL     1     -44.949 -47.115   9.082  1.00  0.00     0.418 C 
HETATM   16  F   UNL     1     -45.187 -47.946   8.037  1.00  0.00    -0.166 F 
HETATM   17  F   UNL     1     -44.792 -45.870   8.567  1.00  0.00    -0.166 F 
HETATM   18  F   UNL     1     -46.078 -47.092   9.833  1.00  0.00    -0.166 F 
ENDBRANCH  13  15
ENDBRANCH   1   7
BRANCH   4  19
HETATM   19  C   UNL     1     -43.801 -52.452  13.105  1.00  0.00     0.158 C 
BRANCH  19  20
HETATM   20  C   UNL     1     -45.110 -53.090  12.612  1.00  0.00     0.163 C 
HETATM   21  C   UNL     1     -46.310 -52.542  13.393  1.00  0.00     0.201 C 
HETATM   22  O   UNL     1     -46.305 -53.020  14.745  1.00  0.00    -0.386 OA
HETATM   23  C   UNL     1     -46.385 -54.449  14.746  1.00  0.00     0.193 C 
HETATM   24  C   UNL     1     -45.197 -55.054  13.997  1.00  0.00     0.194 C 
HETATM   25  O   UNL     1     -45.074 -54.534  12.665  1.00  0.00    -0.380 OA
ENDBRANCH  19  20
ENDBRANCH   4  19
TORSDOF 4
ENDMDL
MODEL 5
REMARK VINA RESULT:      -6.3      4.700      6.076
REMARK  4 active torsions:
REMARK  status: ('A' for Active; 'I' for Inactive)
REMARK    1  A    between atoms: C_2  and  C_5 
REMARK    2  A    between atoms: C_10  and  N_11 
REMARK       I    between atoms: N_11  and  C_12 
REMARK       I    between atoms: C_12  and  N_14 
REMARK    3  A    between atoms: N_14  and  C_15 
REMARK    4  A    between atoms: C_15  and  C_16 
ROOT
HETATM    1  N   UNL     1     -44.258 -50.783  12.800  1.00  0.00    -0.304 N 
HETATM    2  C   UNL     1     -42.898 -50.709  12.892  1.00  0.00     0.320 C 
HETATM    3  O   UNL     1     -42.270 -49.985  12.125  1.00  0.00    -0.247 OA
HETATM    4  N   UNL     1     -42.297 -51.544  13.795  1.00  0.00    -0.340 N 
HETATM    5  H   UNL     1     -44.585 -50.476  11.885  1.00  0.00     0.171 HD
HETATM    6  H   UNL     1     -42.833 -52.349  14.080  1.00  0.00     0.164 HD
ENDROOT
BRANCH   1   7
HETATM    7  C   UNL     1     -45.152 -51.514  13.541  1.00  0.00     0.105 A 
HETATM    8  C   UNL     1     -45.469 -52.897  13.034  1.00  0.00     0.272 A 
HETATM    9  N   UNL     1     -46.284 -53.655  13.841  1.00  0.00    -0.331 N 
HETATM   10  O   UNL     1     -44.984 -53.327  11.992  1.00  0.00    -0.266 OA
HETATM   11  C   UNL     1     -46.842 -53.203  15.012  1.00  0.00     0.107 A 
HETATM   12  H   UNL     1     -46.454 -54.601  13.520  1.00  0.00     0.168 HD
HETATM   13  C   UNL     1     -46.619 -51.949  15.451  1.00  0.00     0.065 A 
HETATM   14  C   UNL     1     -45.750 -51.087  14.665  1.00  0.00     0.052 A 
BRANCH  13  15
HETATM   15  C   UNL     1     -47.203 -51.432  16.734  1.00  0.00     0.418 C 
HETATM   16  F   UNL     1     -46.536 -50.357  17.224  1.00  0.00    -0.166 F 
HETATM   17  F   UNL     1     -47.184 -52.382  17.702  1.00  0.00    -0.166 F 
HETATM   18  F   UNL     1     -48.497 -51.054  16.578  1.00  0.00    -0.166 F 
ENDBRANCH  13  15
ENDBRANCH   1   7
BRANCH   4  19
HETATM   19  C   UNL     1     -40.867 -51.794  13.701  1.00  0.00     0.158 C 
BRANCH  19  20
HETATM   20  C   UNL     1     -40.564 -53.223  13.223  1.00  0.00     0.163 C 
HETATM   21  C   UNL     1     -41.636 -54.201  13.718  1.00  0.00     0.201 C 
HETATM   22  O   UNL     1     -41.537 -54.397  15.134  1.00  0.00    -0.386 OA
HETATM   23  C   UNL     1     -40.252 -54.942  15.453  1.00  0.00     0.193 C 
HETATM   24  C   UNL     1     -39.140 -53.994  15.001  1.00  0.00     0.194 C 
HETATM   25  O   UNL     1     -39.242 -53.665  13.607  1.00  0.00    -0.380 OA
ENDBRANCH  19  20
ENDBRANCH   4  19
TORSDOF 4
ENDMDL
MODEL 6
REMARK VINA RESULT:      -6.0      2.885      4.383
REMARK  4 active torsions:
REMARK  status: ('A' for Active; 'I' for Inactive)
REMARK    1  A    between atoms: C_2  and  C_5 
REMARK    2  A    between atoms: C_10  and  N_11 
REMARK       I    between atoms: N_11  and  C_12 
REMARK       I    between atoms: C_12  and  N_14 
REMARK    3  A    between atoms: N_14  and  C_15 
REMARK    4  A    between atoms: C_15  and  C_16 
ROOT
HETATM    1  N   UNL     1     -41.430 -51.071  14.189  1.00  0.00    -0.304 N 
HETATM    2  C   UNL     1     -42.156 -52.194  14.460  1.00  0.00     0.320 C 
HETATM    3  O   UNL     1     -42.052 -52.743  15.554  1.00  0.00    -0.247 OA
HETATM    4  N   UNL     1     -42.901 -52.708  13.433  1.00  0.00    -0.340 N 
HETATM    5  H   UNL     1     -40.627 -50.990  14.810  1.00  0.00     0.171 HD
HETATM    6  H   UNL     1     -42.624 -52.433  12.503  1.00  0.00     0.164 HD
ENDROOT
BRANCH   1   7
HETATM    7  C   UNL     1     -41.387 -50.303  13.053  1.00  0.00     0.105 A 
HETATM    8  C   UNL     1     -40.349 -50.679  12.029  1.00  0.00     0.272 A 
HETATM    9  N   UNL     1     -40.387 -49.967  10.853  1.00  0.00    -0.331 N 
HETATM   10  O   UNL     1     -39.557 -51.596  12.222  1.00  0.00    -0.266 OA
HETATM   11  C   UNL     1     -41.260 -48.937  10.605  1.00  0.00     0.107 A 
HETATM   12  H   UNL     1     -39.718 -50.257  10.148  1.00  0.00     0.168 HD
HETATM   13  C   UNL     1     -42.156 -48.546  11.532  1.00  0.00     0.065 A 
HETATM   14  C   UNL     1     -42.196 -49.261  12.799  1.00  0.00     0.052 A 
BRANCH  13  15
HETATM   15  C   UNL     1     -43.133 -47.432  11.286  1.00  0.00     0.418 C 
HETATM   16  F   UNL     1     -43.512 -46.799  12.424  1.00  0.00    -0.166 F 
HETATM   17  F   UNL     1     -44.265 -47.891  10.696  1.00  0.00    -0.166 F 
HETATM   18  F   UNL     1     -42.615 -46.486  10.462  1.00  0.00    -0.166 F 
ENDBRANCH  13  15
ENDBRANCH   1   7
BRANCH   4  19
HETATM   19  C   UNL     1     -43.399 -54.071  13.518  1.00  0.00     0.158 C 
BRANCH  19  20
HETATM   20  C   UNL     1     -44.816 -54.203  12.936  1.00  0.00     0.163 C 
HETATM   21  C   UNL     1     -45.431 -52.821  12.686  1.00  0.00     0.201 C 
HETATM   22  O   UNL     1     -45.741 -52.166  13.923  1.00  0.00    -0.386 OA
HETATM   23  C   UNL     1     -46.686 -52.952  14.657  1.00  0.00     0.193 C 
HETATM   24  C   UNL     1     -46.115 -54.339  14.955  1.00  0.00     0.194 C 
HETATM   25  O   UNL     1     -45.680 -55.013  13.765  1.00  0.00    -0.380 OA
ENDBRANCH  19  20
ENDBRANCH   4  19
TORSDOF 4
ENDMDL
MODEL 7
REMARK VINA RESULT:      -6.0      3.731      6.511
REMARK  4 active torsions:
REMARK  status: ('A' for Active; 'I' for Inactive)
REMARK    1  A    between atoms: C_2  and  C_5 
REMARK    2  A    between atoms: C_10  and  N_11 
REMARK       I    between atoms: N_11  and  C_12 
REMARK       I    between atoms: C_12  and  N_14 
REMARK    3  A    between atoms: N_14  and  C_15 
REMARK    4  A    between atoms: C_15  and  C_16 
ROOT
HETATM    1  N   UNL     1     -41.242 -51.809  11.529  1.00  0.00    -0.304 N 
HETATM    2  C   UNL     1     -40.806 -50.539  11.774  1.00  0.00     0.320 C 
HETATM    3  O   UNL     1     -40.333 -49.866  10.862  1.00  0.00    -0.247 OA
HETATM    4  N   UNL     1     -40.834 -50.120  13.077  1.00  0.00    -0.340 N 
HETATM    5  H   UNL     1     -40.827 -52.186  10.678  1.00  0.00     0.171 HD
HETATM    6  H   UNL     1     -40.861 -50.847  13.776  1.00  0.00     0.164 HD
ENDROOT
BRANCH   1   7
HETATM    7  C   UNL     1     -41.797 -52.730  12.382  1.00  0.00     0.105 A 
HETATM    8  C   UNL     1     -40.840 -53.489  13.263  1.00  0.00     0.272 A 
HETATM    9  N   UNL     1     -41.418 -54.331  14.183  1.00  0.00    -0.331 N 
HETATM   10  O   UNL     1     -39.627 -53.322  13.189  1.00  0.00    -0.266 OA
HETATM   11  C   UNL     1     -42.771 -54.540  14.292  1.00  0.00     0.107 A 
HETATM   12  H   UNL     1     -40.773 -54.802  14.806  1.00  0.00     0.168 HD
HETATM   13  C   UNL     1     -43.640 -53.915  13.472  1.00  0.00     0.065 A 
HETATM   14  C   UNL     1     -43.111 -52.990  12.481  1.00  0.00     0.052 A 
BRANCH  13  15
HETATM   15  C   UNL     1     -45.125 -54.112  13.576  1.00  0.00     0.418 C 
HETATM   16  F   UNL     1     -45.822 -53.358  12.689  1.00  0.00    -0.166 F 
HETATM   17  F   UNL     1     -45.580 -53.786  14.811  1.00  0.00    -0.166 F 
HETATM   18  F   UNL     1     -45.475 -55.404  13.355  1.00  0.00    -0.166 F 
ENDBRANCH  13  15
ENDBRANCH   1   7
BRANCH   4  19
HETATM   19  C   UNL     1     -40.064 -48.952  13.473  1.00  0.00     0.158 C 
BRANCH  19  20
HETATM   20  C   UNL     1     -40.880 -48.000  14.361  1.00  0.00     0.163 C 
HETATM   21  C   UNL     1     -42.351 -48.431  14.413  1.00  0.00     0.201 C 
HETATM   22  O   UNL     1     -42.998 -48.199  13.155  1.00  0.00    -0.386 OA
HETATM   23  C   UNL     1     -42.952 -46.802  12.844  1.00  0.00     0.193 C 
HETATM   24  C   UNL     1     -41.503 -46.319  12.757  1.00  0.00     0.194 C 
HETATM   25  O   UNL     1     -40.760 -46.619  13.948  1.00  0.00    -0.380 OA
ENDBRANCH  19  20
ENDBRANCH   4  19
TORSDOF 4
ENDMDL
MODEL 8
REMARK VINA RESULT:      -6.0      1.992      2.472
REMARK  4 active torsions:
REMARK  status: ('A' for Active; 'I' for Inactive)
REMARK    1  A    between atoms: C_2  and  C_5 
REMARK    2  A    between atoms: C_10  and  N_11 
REMARK       I    between atoms: N_11  and  C_12 
REMARK       I    between atoms: C_12  and  N_14 
REMARK    3  A    between atoms: N_14  and  C_15 
REMARK    4  A    between atoms: C_15  and  C_16 
ROOT
HETATM    1  N   UNL     1     -39.661 -48.003  11.181  1.00  0.00    -0.304 N 
HETATM    2  C   UNL     1     -39.557 -49.101  11.984  1.00  0.00     0.320 C 
HETATM    3  O   UNL     1     -38.515 -49.750  12.005  1.00  0.00    -0.247 OA
HETATM    4  N   UNL     1     -40.686 -49.477  12.662  1.00  0.00    -0.340 N 
HETATM    5  H   UNL     1     -38.971 -48.025  10.432  1.00  0.00     0.171 HD
HETATM    6  H   UNL     1     -41.560 -49.137  12.290  1.00  0.00     0.164 HD
ENDROOT
BRANCH   1   7
HETATM    7  C   UNL     1     -40.713 -47.141  11.000  1.00  0.00     0.105 A 
HETATM    8  C   UNL     1     -40.652 -45.842  11.760  1.00  0.00     0.272 A 
HETATM    9  N   UNL     1     -41.659 -44.945  11.489  1.00  0.00    -0.331 N 
HETATM   10  O   UNL     1     -39.732 -45.590  12.531  1.00  0.00    -0.266 OA
HETATM   11  C   UNL     1     -42.702 -45.196  10.631  1.00  0.00     0.107 A 
HETATM   12  H   UNL     1     -41.587 -44.054  11.965  1.00  0.00     0.168 HD
HETATM   13  C   UNL     1     -42.806 -46.376   9.988  1.00  0.00     0.065 A 
HETATM   14  C   UNL     1     -41.769 -47.373  10.204  1.00  0.00     0.052 A 
BRANCH  13  15
HETATM   15  C   UNL     1     -43.927 -46.674   9.034  1.00  0.00     0.418 C 
HETATM   16  F   UNL     1     -44.673 -47.742   9.411  1.00  0.00    -0.166 F 
HETATM   17  F   UNL     1     -43.456 -46.943   7.791  1.00  0.00    -0.166 F 
HETATM   18  F   UNL     1     -44.776 -45.623   8.915  1.00  0.00    -0.166 F 
ENDBRANCH  13  15
ENDBRANCH   1   7
BRANCH   4  19
HETATM   19  C   UNL     1     -40.771 -50.811  13.234  1.00  0.00     0.158 C 
BRANCH  19  20
HETATM   20  C   UNL     1     -41.295 -51.839  12.220  1.00  0.00     0.163 C 
HETATM   21  C   UNL     1     -42.745 -52.224  12.535  1.00  0.00     0.201 C 
HETATM   22  O   UNL     1     -42.820 -53.009  13.732  1.00  0.00    -0.386 OA
HETATM   23  C   UNL     1     -42.064 -54.213  13.562  1.00  0.00     0.193 C 
HETATM   24  C   UNL     1     -40.599 -53.891  13.266  1.00  0.00     0.194 C 
HETATM   25  O   UNL     1     -40.454 -53.013  12.139  1.00  0.00    -0.380 OA
ENDBRANCH  19  20
ENDBRANCH   4  19
TORSDOF 4
ENDMDL
MODEL 9
REMARK VINA RESULT:      -5.9      4.283      6.473
REMARK  4 active torsions:
REMARK  status: ('A' for Active; 'I' for Inactive)
REMARK    1  A    between atoms: C_2  and  C_5 
REMARK    2  A    between atoms: C_10  and  N_11 
REMARK       I    between atoms: N_11  and  C_12 
REMARK       I    between atoms: C_12  and  N_14 
REMARK    3  A    between atoms: N_14  and  C_15 
REMARK    4  A    between atoms: C_15  and  C_16 
ROOT
HETATM    1  N   UNL     1     -41.275 -51.797  11.503  1.00  0.00    -0.304 N 
HETATM    2  C   UNL     1     -40.752 -50.564  11.764  1.00  0.00     0.320 C 
HETATM    3  O   UNL     1     -40.307 -49.879  10.846  1.00  0.00    -0.247 OA
HETATM    4  N   UNL     1     -40.664 -50.199  13.080  1.00  0.00    -0.340 N 
HETATM    5  H   UNL     1     -40.944 -52.159  10.611  1.00  0.00     0.171 HD
HETATM    6  H   UNL     1     -40.681 -50.951  13.752  1.00  0.00     0.164 HD
ENDROOT
BRANCH   1   7
HETATM    7  C   UNL     1     -41.819 -52.721  12.359  1.00  0.00     0.105 A 
HETATM    8  C   UNL     1     -40.851 -53.490  13.219  1.00  0.00     0.272 A 
HETATM    9  N   UNL     1     -41.416 -54.336  14.143  1.00  0.00    -0.331 N 
HETATM   10  O   UNL     1     -39.638 -53.326  13.126  1.00  0.00    -0.266 OA
HETATM   11  C   UNL     1     -42.768 -54.541  14.272  1.00  0.00     0.107 A 
HETATM   12  H   UNL     1     -40.762 -54.814  14.752  1.00  0.00     0.168 HD
HETATM   13  C   UNL     1     -43.648 -53.908  13.472  1.00  0.00     0.065 A 
HETATM   14  C   UNL     1     -43.132 -52.978  12.479  1.00  0.00     0.052 A 
BRANCH  13  15
HETATM   15  C   UNL     1     -45.132 -54.101  13.598  1.00  0.00     0.418 C 
HETATM   16  F   UNL     1     -45.604 -53.779  14.828  1.00  0.00    -0.166 F 
HETATM   17  F   UNL     1     -45.482 -55.391  13.368  1.00  0.00    -0.166 F 
HETATM   18  F   UNL     1     -45.813 -53.341  12.704  1.00  0.00    -0.166 F 
ENDBRANCH  13  15
ENDBRANCH   1   7
BRANCH   4  19
HETATM   19  C   UNL     1     -39.803 -49.091  13.463  1.00  0.00     0.158 C 
BRANCH  19  20
HETATM   20  C   UNL     1     -38.346 -49.538  13.665  1.00  0.00     0.163 C 
HETATM   21  C   UNL     1     -38.228 -50.475  14.873  1.00  0.00     0.201 C 
HETATM   22  O   UNL     1     -38.431 -49.761  16.099  1.00  0.00    -0.386 OA
HETATM   23  C   UNL     1     -37.438 -48.737  16.227  1.00  0.00     0.193 C 
HETATM   24  C   UNL     1     -37.523 -47.757  15.056  1.00  0.00     0.194 C 
HETATM   25  O   UNL     1     -37.437 -48.420  13.786  1.00  0.00    -0.380 OA
ENDBRANCH  19  20
ENDBRANCH   4  19
TORSDOF 4
ENDMDL
