MODEL 1
REMARK VINA RESULT:      -6.2      0.000      0.000
REMARK  5 active torsions:
REMARK  status: ('A' for Active; 'I' for Inactive)
REMARK    1  A    between atoms: N_6  and  C_7 
REMARK    2  A    between atoms: C_7  and  C_8 
REMARK    3  A    between atoms: C_8  and  N_9 
REMARK       I    between atoms: N_9  and  C_10 
REMARK    4  A    between atoms: C_10  and  C_12 
REMARK    5  A    between atoms: C_12  and  N_13 
ROOT
HETATM    1  N   UNL     1     -42.501 -53.878  12.791  1.00  0.00    -0.358 N 
HETATM    2  C   UNL     1     -42.944 -54.252  14.042  1.00  0.00     0.235 C 
HETATM    3  O   UNL     1     -42.217 -54.301  15.030  1.00  0.00    -0.272 OA
HETATM    4  H   UNL     1     -43.179 -53.783  12.043  1.00  0.00     0.162 HD
ENDROOT
BRANCH   1   5
HETATM    5  C   UNL     1     -41.136 -53.435  12.559  1.00  0.00     0.152 C 
BRANCH   5   6
HETATM    6  C   UNL     1     -41.035 -51.953  12.134  1.00  0.00     0.292 C 
BRANCH   6   7
HETATM    7  N   UNL     1     -39.708 -51.344  12.363  1.00  0.00     0.090 N 
HETATM    8  C   UNL     1     -39.344 -51.320  13.787  1.00  0.00     0.272 C 
HETATM    9  C   UNL     1     -37.962 -50.704  14.010  1.00  0.00     0.031 C 
HETATM   10  C   UNL     1     -37.857 -49.316  13.386  1.00  0.00     0.007 C 
HETATM   11  C   UNL     1     -38.298 -49.325  11.920  1.00  0.00     0.010 C 
HETATM   12  C   UNL     1     -37.266 -50.010  11.018  1.00  0.00     0.011 C 
HETATM   13  C   UNL     1     -39.683 -49.983  11.794  1.00  0.00     0.276 C 
ENDBRANCH   6   7
ENDBRANCH   5   6
ENDBRANCH   1   5
BRANCH   2  14
HETATM   14  C   UNL     1     -44.402 -54.700  14.098  1.00  0.00     0.234 C 
BRANCH  14  15
HETATM   15  N   UNL     1     -45.298 -53.578  14.372  1.00  0.00    -0.316 N 
HETATM   16  C   UNL     1     -45.677 -53.315  15.680  1.00  0.00     0.095 A 
HETATM   17  C   UNL     1     -46.474 -52.282  15.977  1.00  0.00     0.017 A 
HETATM   18  C   UNL     1     -46.917 -51.393  14.934  1.00  0.00     0.007 A 
HETATM   19  C   UNL     1     -46.593 -51.633  13.656  1.00  0.00     0.074 A 
HETATM   20  C   UNL     1     -45.770 -52.823  13.302  1.00  0.00     0.247 A 
HETATM   21  O   UNL     1     -45.538 -53.067  12.120  1.00  0.00    -0.268 OA
ENDBRANCH  14  15
ENDBRANCH   2  14
TORSDOF 5
ENDMDL
MODEL 2
REMARK VINA RESULT:      -6.0      1.983      6.997
REMARK  5 active torsions:
REMARK  status: ('A' for Active; 'I' for Inactive)
REMARK    1  A    between atoms: N_6  and  C_7 
REMARK    2  A    between atoms: C_7  and  C_8 
REMARK    3  A    between atoms: C_8  and  N_9 
REMARK       I    between atoms: N_9  and  C_10 
REMARK    4  A    between atoms: C_10  and  C_12 
REMARK    5  A    between atoms: C_12  and  N_13 
ROOT
HETATM    1  N   UNL     1     -41.213 -53.599  14.469  1.00  0.00    -0.358 N 
HETATM    2  C   UNL     1     -40.309 -53.180  13.515  1.00  0.00     0.235 C 
HETATM    3  O   UNL     1     -40.365 -53.517  12.336  1.00  0.00    -0.272 OA
HETATM    4  H   UNL     1     -41.149 -53.212  15.404  1.00  0.00     0.162 HD
ENDROOT
BRANCH   1   5
HETATM    5  C   UNL     1     -42.360 -54.426  14.130  1.00  0.00     0.152 C 
BRANCH   5   6
HETATM    6  C   UNL     1     -43.548 -54.255  15.103  1.00  0.00     0.292 C 
BRANCH   6   7
HETATM    7  N   UNL     1     -44.672 -53.466  14.556  1.00  0.00     0.090 N 
HETATM    8  C   UNL     1     -44.739 -53.531  13.090  1.00  0.00     0.272 C 
HETATM    9  C   UNL     1     -45.915 -52.725  12.537  1.00  0.00     0.031 C 
HETATM   10  C   UNL     1     -45.889 -51.282  13.028  1.00  0.00     0.007 C 
HETATM   11  C   UNL     1     -45.753 -51.209  14.552  1.00  0.00     0.010 C 
HETATM   12  C   UNL     1     -47.049 -51.620  15.259  1.00  0.00     0.011 C 
HETATM   13  C   UNL     1     -44.562 -52.067  15.013  1.00  0.00     0.276 C 
ENDBRANCH   6   7
ENDBRANCH   5   6
ENDBRANCH   1   5
BRANCH   2  14
HETATM   14  C   UNL     1     -39.161 -52.329  14.051  1.00  0.00     0.234 C 
BRANCH  14  15
HETATM   15  N   UNL     1     -39.015 -51.085  13.296  1.00  0.00    -0.316 N 
HETATM   16  C   UNL     1     -40.015 -50.127  13.368  1.00  0.00     0.095 A 
HETATM   17  C   UNL     1     -39.909 -48.964  12.714  1.00  0.00     0.017 A 
HETATM   18  C   UNL     1     -38.720 -48.672  11.956  1.00  0.00     0.007 A 
HETATM   19  C   UNL     1     -37.746 -49.586  11.842  1.00  0.00     0.074 A 
HETATM   20  C   UNL     1     -37.886 -50.915  12.501  1.00  0.00     0.247 A 
HETATM   21  O   UNL     1     -37.017 -51.767  12.332  1.00  0.00    -0.268 OA
ENDBRANCH  14  15
ENDBRANCH   2  14
TORSDOF 5
ENDMDL
MODEL 3
REMARK VINA RESULT:      -5.7      1.185      2.050
REMARK  5 active torsions:
REMARK  status: ('A' for Active; 'I' for Inactive)
REMARK    1  A    between atoms: N_6  and  C_7 
REMARK    2  A    between atoms: C_7  and  C_8 
REMARK    3  A    between atoms: C_8  and  N_9 
REMARK       I    between atoms: N_9  and  C_10 
REMARK    4  A    between atoms: C_10  and  C_12 
REMARK    5  A    between atoms: C_12  and  N_13 
ROOT
HETATM    1  N   UNL     1     -42.568 -53.434  12.565  1.00  0.00    -0.358 N 
HETATM    2  C   UNL     1     -43.159 -54.271  13.489  1.00  0.00     0.235 C 
HETATM    3  O   UNL     1     -42.533 -54.857  14.367  1.00  0.00    -0.272 OA
HETATM    4  H   UNL     1     -43.162 -52.922  11.922  1.00  0.00     0.162 HD
ENDROOT
BRANCH   1   5
HETATM    5  C   UNL     1     -41.149 -53.120  12.608  1.00  0.00     0.152 C 
BRANCH   5   6
HETATM    6  C   UNL     1     -40.765 -52.170  13.763  1.00  0.00     0.292 C 
BRANCH   6   7
HETATM    7  N   UNL     1     -39.843 -51.081  13.374  1.00  0.00     0.090 N 
HETATM    8  C   UNL     1     -40.071 -50.623  11.996  1.00  0.00     0.272 C 
HETATM    9  C   UNL     1     -39.124 -49.486  11.611  1.00  0.00     0.031 C 
HETATM   10  C   UNL     1     -37.665 -49.869  11.835  1.00  0.00     0.007 C 
HETATM   11  C   UNL     1     -37.436 -50.409  13.250  1.00  0.00     0.010 C 
HETATM   12  C   UNL     1     -37.498 -49.296  14.301  1.00  0.00     0.011 C 
HETATM   13  C   UNL     1     -38.448 -51.527  13.553  1.00  0.00     0.276 C 
ENDBRANCH   6   7
ENDBRANCH   5   6
ENDBRANCH   1   5
BRANCH   2  14
HETATM   14  C   UNL     1     -44.654 -54.496  13.284  1.00  0.00     0.234 C 
BRANCH  14  15
HETATM   15  N   UNL     1     -45.448 -53.448  13.923  1.00  0.00    -0.316 N 
HETATM   16  C   UNL     1     -45.772 -52.309  13.203  1.00  0.00     0.095 A 
HETATM   17  C   UNL     1     -46.520 -51.337  13.741  1.00  0.00     0.017 A 
HETATM   18  C   UNL     1     -47.041 -51.487  15.075  1.00  0.00     0.007 A 
HETATM   19  C   UNL     1     -46.724 -52.562  15.810  1.00  0.00     0.074 A 
HETATM   20  C   UNL     1     -45.829 -53.614  15.251  1.00  0.00     0.247 A 
HETATM   21  O   UNL     1     -45.493 -54.560  15.960  1.00  0.00    -0.268 OA
ENDBRANCH  14  15
ENDBRANCH   2  14
TORSDOF 5
ENDMDL
MODEL 4
REMARK VINA RESULT:      -5.7      2.529      3.312
REMARK  5 active torsions:
REMARK  status: ('A' for Active; 'I' for Inactive)
REMARK    1  A    between atoms: N_6  and  C_7 
REMARK    2  A    between atoms: C_7  and  C_8 
REMARK    3  A    between atoms: C_8  and  N_9 
REMARK       I    between atoms: N_9  and  C_10 
REMARK    4  A    between atoms: C_10  and  C_12 
REMARK    5  A    between atoms: C_12  and  N_13 
ROOT
HETATM    1  N   UNL     1     -42.316 -52.215  11.755  1.00  0.00    -0.358 N 
HETATM    2  C   UNL     1     -42.789 -53.093  12.708  1.00  0.00     0.235 C 
HETATM    3  O   UNL     1     -42.125 -53.471  13.669  1.00  0.00    -0.272 OA
HETATM    4  H   UNL     1     -42.952 -51.887  11.037  1.00  0.00     0.162 HD
ENDROOT
BRANCH   1   5
HETATM    5  C   UNL     1     -41.001 -51.604  11.857  1.00  0.00     0.152 C 
BRANCH   5   6
HETATM    6  C   UNL     1     -40.990 -50.308  12.697  1.00  0.00     0.292 C 
BRANCH   6   7
HETATM    7  N   UNL     1     -41.359 -49.092  11.942  1.00  0.00     0.090 N 
HETATM    8  C   UNL     1     -40.270 -48.105  11.907  1.00  0.00     0.272 C 
HETATM    9  C   UNL     1     -40.658 -46.859  11.109  1.00  0.00     0.031 C 
HETATM   10  C   UNL     1     -41.952 -46.240  11.626  1.00  0.00     0.007 C 
HETATM   11  C   UNL     1     -43.072 -47.280  11.726  1.00  0.00     0.010 C 
HETATM   12  C   UNL     1     -43.600 -47.685  10.346  1.00  0.00     0.011 C 
HETATM   13  C   UNL     1     -42.581 -48.502  12.523  1.00  0.00     0.276 C 
ENDBRANCH   6   7
ENDBRANCH   5   6
ENDBRANCH   1   5
BRANCH   2  14
HETATM   14  C   UNL     1     -44.185 -53.646  12.433  1.00  0.00     0.234 C 
BRANCH  14  15
HETATM   15  N   UNL     1     -45.156 -53.166  13.415  1.00  0.00    -0.316 N 
HETATM   16  C   UNL     1     -45.543 -51.834  13.391  1.00  0.00     0.095 A 
HETATM   17  C   UNL     1     -46.450 -51.360  14.254  1.00  0.00     0.017 A 
HETATM   18  C   UNL     1     -47.075 -52.248  15.200  1.00  0.00     0.007 A 
HETATM   19  C   UNL     1     -46.704 -53.534  15.270  1.00  0.00     0.074 A 
HETATM   20  C   UNL     1     -45.641 -54.058  14.367  1.00  0.00     0.247 A 
HETATM   21  O   UNL     1     -45.264 -55.221  14.488  1.00  0.00    -0.268 OA
ENDBRANCH  14  15
ENDBRANCH   2  14
TORSDOF 5
ENDMDL
MODEL 5
REMARK VINA RESULT:      -5.7      2.945      3.431
REMARK  5 active torsions:
REMARK  status: ('A' for Active; 'I' for Inactive)
REMARK    1  A    between atoms: N_6  and  C_7 
REMARK    2  A    between atoms: C_7  and  C_8 
REMARK    3  A    between atoms: C_8  and  N_9 
REMARK       I    between atoms: N_9  and  C_10 
REMARK    4  A    between atoms: C_10  and  C_12 
REMARK    5  A    between atoms: C_12  and  N_13 
ROOT
HETATM    1  N   UNL     1     -42.313 -50.783  11.985  1.00  0.00    -0.358 N 
HETATM    2  C   UNL     1     -42.182 -52.093  12.394  1.00  0.00     0.235 C 
HETATM    3  O   UNL     1     -41.105 -52.609  12.678  1.00  0.00    -0.272 OA
HETATM    4  H   UNL     1     -43.245 -50.406  11.848  1.00  0.00     0.162 HD
ENDROOT
BRANCH   1   5
HETATM    5  C   UNL     1     -41.177 -49.877  11.929  1.00  0.00     0.152 C 
BRANCH   5   6
HETATM    6  C   UNL     1     -41.311 -48.790  10.839  1.00  0.00     0.292 C 
BRANCH   6   7
HETATM    7  N   UNL     1     -40.617 -47.524  11.155  1.00  0.00     0.090 N 
HETATM    8  C   UNL     1     -40.337 -47.384  12.591  1.00  0.00     0.272 C 
HETATM    9  C   UNL     1     -39.605 -46.079  12.903  1.00  0.00     0.031 C 
HETATM   10  C   UNL     1     -40.358 -44.868  12.363  1.00  0.00     0.007 C 
HETATM   11  C   UNL     1     -40.708 -45.038  10.883  1.00  0.00     0.010 C 
HETATM   12  C   UNL     1     -39.474 -44.902   9.985  1.00  0.00     0.011 C 
HETATM   13  C   UNL     1     -41.418 -46.385  10.665  1.00  0.00     0.276 C 
ENDBRANCH   6   7
ENDBRANCH   5   6
ENDBRANCH   1   5
BRANCH   2  14
HETATM   14  C   UNL     1     -43.476 -52.901  12.380  1.00  0.00     0.234 C 
BRANCH  14  15
HETATM   15  N   UNL     1     -44.454 -52.366  13.326  1.00  0.00    -0.316 N 
HETATM   16  C   UNL     1     -44.039 -52.002  14.598  1.00  0.00     0.095 A 
HETATM   17  C   UNL     1     -44.896 -51.483  15.485  1.00  0.00     0.017 A 
HETATM   18  C   UNL     1     -46.267 -51.251  15.110  1.00  0.00     0.007 A 
HETATM   19  C   UNL     1     -46.709 -51.616  13.898  1.00  0.00     0.074 A 
HETATM   20  C   UNL     1     -45.784 -52.266  12.927  1.00  0.00     0.247 A 
HETATM   21  O   UNL     1     -46.219 -52.656  11.847  1.00  0.00    -0.268 OA
ENDBRANCH  14  15
ENDBRANCH   2  14
TORSDOF 5
ENDMDL
MODEL 6
REMARK VINA RESULT:      -5.7      2.190      3.251
REMARK  5 active torsions:
REMARK  status: ('A' for Active; 'I' for Inactive)
REMARK    1  A    between atoms: N_6  and  C_7 
REMARK    2  A    between atoms: C_7  and  C_8 
REMARK    3  A    between atoms: C_8  and  N_9 
REMARK       I    between atoms: N_9  and  C_10 
REMARK    4  A    between atoms: C_10  and  C_12 
REMARK    5  A    between atoms: C_12  and  N_13 
ROOT
HETATM    1  N   UNL     1     -42.342 -54.123  12.892  1.00  0.00    -0.358 N 
HETATM    2  C   UNL     1     -43.064 -54.501  14.005  1.00  0.00     0.235 C 
HETATM    3  O   UNL     1     -42.560 -54.687  15.108  1.00  0.00    -0.272 OA
HETATM    4  H   UNL     1     -42.841 -53.909  12.037  1.00  0.00     0.162 HD
ENDROOT
BRANCH   1   5
HETATM    5  C   UNL     1     -40.917 -53.840  12.960  1.00  0.00     0.152 C 
BRANCH   5   6
HETATM    6  C   UNL     1     -40.582 -52.338  12.828  1.00  0.00     0.292 C 
BRANCH   6   7
HETATM    7  N   UNL     1     -41.640 -51.434  13.327  1.00  0.00     0.090 N 
HETATM    8  C   UNL     1     -42.026 -50.424  12.330  1.00  0.00     0.272 C 
HETATM    9  C   UNL     1     -43.132 -49.505  12.851  1.00  0.00     0.031 C 
HETATM   10  C   UNL     1     -42.750 -48.859  14.178  1.00  0.00     0.007 C 
HETATM   11  C   UNL     1     -42.285 -49.903  15.198  1.00  0.00     0.010 C 
HETATM   12  C   UNL     1     -43.453 -50.738  15.731  1.00  0.00     0.011 C 
HETATM   13  C   UNL     1     -41.192 -50.790  14.577  1.00  0.00     0.276 C 
ENDBRANCH   6   7
ENDBRANCH   5   6
ENDBRANCH   1   5
BRANCH   2  14
HETATM   14  C   UNL     1     -44.544 -54.767  13.747  1.00  0.00     0.234 C 
BRANCH  14  15
HETATM   15  N   UNL     1     -45.366 -53.603  14.076  1.00  0.00    -0.316 N 
HETATM   16  C   UNL     1     -45.483 -52.573  13.155  1.00  0.00     0.095 A 
HETATM   17  C   UNL     1     -46.246 -51.503  13.405  1.00  0.00     0.017 A 
HETATM   18  C   UNL     1     -47.000 -51.429  14.629  1.00  0.00     0.007 A 
HETATM   19  C   UNL     1     -46.890 -52.393  15.554  1.00  0.00     0.074 A 
HETATM   20  C   UNL     1     -45.983 -53.553  15.322  1.00  0.00     0.247 A 
HETATM   21  O   UNL     1     -45.841 -54.394  16.206  1.00  0.00    -0.268 OA
ENDBRANCH  14  15
ENDBRANCH   2  14
TORSDOF 5
ENDMDL
MODEL 7
REMARK VINA RESULT:      -5.5      1.918      6.954
REMARK  5 active torsions:
REMARK  status: ('A' for Active; 'I' for Inactive)
REMARK    1  A    between atoms: N_6  and  C_7 
REMARK    2  A    between atoms: C_7  and  C_8 
REMARK    3  A    between atoms: C_8  and  N_9 
REMARK       I    between atoms: N_9  and  C_10 
REMARK    4  A    between atoms: C_10  and  C_12 
REMARK    5  A    between atoms: C_12  and  N_13 
ROOT
HETATM    1  N   UNL     1     -41.404 -53.227  14.297  1.00  0.00    -0.358 N 
HETATM    2  C   UNL     1     -40.052 -53.298  14.032  1.00  0.00     0.235 C 
HETATM    3  O   UNL     1     -39.523 -54.246  13.459  1.00  0.00    -0.272 OA
HETATM    4  H   UNL     1     -41.777 -52.376  14.701  1.00  0.00     0.162 HD
ENDROOT
BRANCH   1   5
HETATM    5  C   UNL     1     -42.331 -54.252  13.844  1.00  0.00     0.152 C 
BRANCH   5   6
HETATM    6  C   UNL     1     -43.632 -54.313  14.674  1.00  0.00     0.292 C 
BRANCH   6   7
HETATM    7  N   UNL     1     -44.503 -53.128  14.526  1.00  0.00     0.090 N 
HETATM    8  C   UNL     1     -44.549 -52.313  15.749  1.00  0.00     0.272 C 
HETATM    9  C   UNL     1     -45.438 -51.081  15.578  1.00  0.00     0.031 C 
HETATM   10  C   UNL     1     -46.839 -51.459  15.109  1.00  0.00     0.007 C 
HETATM   11  C   UNL     1     -46.794 -52.362  13.873  1.00  0.00     0.010 C 
HETATM   12  C   UNL     1     -46.382 -51.588  12.617  1.00  0.00     0.011 C 
HETATM   13  C   UNL     1     -45.859 -53.556  14.132  1.00  0.00     0.276 C 
ENDBRANCH   6   7
ENDBRANCH   5   6
ENDBRANCH   1   5
BRANCH   2  14
HETATM   14  C   UNL     1     -39.229 -52.142  14.593  1.00  0.00     0.234 C 
BRANCH  14  15
HETATM   15  N   UNL     1     -38.912 -51.157  13.560  1.00  0.00    -0.316 N 
HETATM   16  C   UNL     1     -37.665 -51.188  12.953  1.00  0.00     0.095 A 
HETATM   17  C   UNL     1     -37.344 -50.322  11.984  1.00  0.00     0.017 A 
HETATM   18  C   UNL     1     -38.316 -49.366  11.523  1.00  0.00     0.007 A 
HETATM   19  C   UNL     1     -39.521 -49.289  12.106  1.00  0.00     0.074 A 
HETATM   20  C   UNL     1     -39.865 -50.195  13.238  1.00  0.00     0.247 A 
HETATM   21  O   UNL     1     -40.947 -50.068  13.806  1.00  0.00    -0.268 OA
ENDBRANCH  14  15
ENDBRANCH   2  14
TORSDOF 5
ENDMDL
MODEL 8
REMARK VINA RESULT:      -5.4      1.640      2.738
REMARK  5 active torsions:
REMARK  status: ('A' for Active; 'I' for Inactive)
REMARK    1  A    between atoms: N_6  and  C_7 
REMARK    2  A    between atoms: C_7  and  C_8 
REMARK    3  A    between atoms: C_8  and  N_9 
REMARK       I    between atoms: N_9  and  C_10 
REMARK    4  A    between atoms: C_10  and  C_12 
REMARK    5  A    between atoms: C_12  and  N_13 
ROOT
HETATM    1  N   UNL     1     -43.247 -54.411  13.979  1.00  0.00    -0.358 N 
HETATM    2  C   UNL     1     -44.393 -54.231  13.233  1.00  0.00     0.235 C 
HETATM    3  O   UNL     1     -44.396 -53.759  12.099  1.00  0.00    -0.272 OA
HETATM    4  H   UNL     1     -43.317 -54.882  14.874  1.00  0.00     0.162 HD
ENDROOT
BRANCH   1   5
HETATM    5  C   UNL     1     -41.927 -54.120  13.442  1.00  0.00     0.152 C 
BRANCH   5   6
HETATM    6  C   UNL     1     -41.124 -53.116  14.298  1.00  0.00     0.292 C 
BRANCH   6   7
HETATM    7  N   UNL     1     -41.033 -51.759  13.718  1.00  0.00     0.090 N 
HETATM    8  C   UNL     1     -42.179 -50.916  14.089  1.00  0.00     0.272 C 
HETATM    9  C   UNL     1     -42.066 -49.510  13.498  1.00  0.00     0.031 C 
HETATM   10  C   UNL     1     -41.872 -49.550  11.985  1.00  0.00     0.007 C 
HETATM   11  C   UNL     1     -40.720 -50.480  11.591  1.00  0.00     0.010 C 
HETATM   12  C   UNL     1     -39.356 -49.874  11.935  1.00  0.00     0.011 C 
HETATM   13  C   UNL     1     -40.909 -51.856  12.251  1.00  0.00     0.276 C 
ENDBRANCH   6   7
ENDBRANCH   5   6
ENDBRANCH   1   5
BRANCH   2  14
HETATM   14  C   UNL     1     -45.690 -54.575  13.959  1.00  0.00     0.234 C 
BRANCH  14  15
HETATM   15  N   UNL     1     -46.093 -53.509  14.875  1.00  0.00    -0.316 N 
HETATM   16  C   UNL     1     -46.688 -52.365  14.364  1.00  0.00     0.095 A 
HETATM   17  C   UNL     1     -47.097 -51.377  15.169  1.00  0.00     0.017 A 
HETATM   18  C   UNL     1     -46.963 -51.512  16.597  1.00  0.00     0.007 A 
HETATM   19  C   UNL     1     -46.367 -52.591  17.123  1.00  0.00     0.074 A 
HETATM   20  C   UNL     1     -45.838 -53.663  16.234  1.00  0.00     0.247 A 
HETATM   21  O   UNL     1     -45.235 -54.614  16.727  1.00  0.00    -0.268 OA
ENDBRANCH  14  15
ENDBRANCH   2  14
TORSDOF 5
ENDMDL
MODEL 9
REMARK VINA RESULT:      -5.3      2.636      7.289
REMARK  5 active torsions:
REMARK  status: ('A' for Active; 'I' for Inactive)
REMARK    1  A    between atoms: N_6  and  C_7 
REMARK    2  A    between atoms: C_7  and  C_8 
REMARK    3  A    between atoms: C_8  and  N_9 
REMARK       I    between atoms: N_9  and  C_10 
REMARK    4  A    between atoms: C_10  and  C_12 
REMARK    5  A    between atoms: C_12  and  N_13 
ROOT
HETATM    1  N   UNL     1     -40.476 -51.136  12.235  1.00  0.00    -0.358 N 
HETATM    2  C   UNL     1     -39.128 -51.105  12.524  1.00  0.00     0.235 C 
HETATM    3  O   UNL     1     -38.579 -51.903  13.278  1.00  0.00    -0.272 OA
HETATM    4  H   UNL     1     -40.840 -50.493  11.539  1.00  0.00     0.162 HD
ENDROOT
BRANCH   1   5
HETATM    5  C   UNL     1     -41.350 -52.178  12.750  1.00  0.00     0.152 C 
BRANCH   5   6
HETATM    6  C   UNL     1     -42.201 -51.724  13.957  1.00  0.00     0.292 C 
BRANCH   6   7
HETATM    7  N   UNL     1     -43.626 -52.108  13.874  1.00  0.00     0.090 N 
HETATM    8  C   UNL     1     -43.840 -53.271  13.001  1.00  0.00     0.272 C 
HETATM    9  C   UNL     1     -45.315 -53.670  12.937  1.00  0.00     0.031 C 
HETATM   10  C   UNL     1     -46.198 -52.496  12.525  1.00  0.00     0.007 C 
HETATM   11  C   UNL     1     -45.930 -51.261  13.390  1.00  0.00     0.010 C 
HETATM   12  C   UNL     1     -46.492 -51.426  14.806  1.00  0.00     0.011 C 
HETATM   13  C   UNL     1     -44.423 -50.955  13.413  1.00  0.00     0.276 C 
ENDBRANCH   6   7
ENDBRANCH   5   6
ENDBRANCH   1   5
BRANCH   2  14
HETATM   14  C   UNL     1     -38.368 -49.934  11.908  1.00  0.00     0.234 C 
BRANCH  14  15
HETATM   15  N   UNL     1     -38.517 -48.717  12.705  1.00  0.00    -0.316 N 
HETATM   16  C   UNL     1     -37.703 -48.526  13.811  1.00  0.00     0.095 A 
HETATM   17  C   UNL     1     -37.788 -47.415  14.552  1.00  0.00     0.017 A 
HETATM   18  C   UNL     1     -38.706 -46.370  14.177  1.00  0.00     0.007 A 
HETATM   19  C   UNL     1     -39.528 -46.533  13.130  1.00  0.00     0.074 A 
HETATM   20  C   UNL     1     -39.497 -47.798  12.344  1.00  0.00     0.247 A 
HETATM   21  O   UNL     1     -40.302 -47.960  11.429  1.00  0.00    -0.268 OA
ENDBRANCH  14  15
ENDBRANCH   2  14
TORSDOF 5
ENDMDL
