MODEL 1
REMARK VINA RESULT:      -7.3      0.000      0.000
REMARK  3 active torsions:
REMARK  status: ('A' for Active; 'I' for Inactive)
REMARK       I    between atoms: C_2  and  N_3 
REMARK       I    between atoms: C_2  and  N_13 
REMARK    1  A    between atoms: N_3  and  C_4 
REMARK    2  A    between atoms: N_13  and  C_14 
REMARK    3  A    between atoms: C_17  and  N_21 
ROOT
HETATM    1  O   UNL     1     -41.664 -51.004  13.058  1.00  0.00    -0.247 OA
HETATM    2  C   UNL     1     -41.161 -51.383  12.008  1.00  0.00     0.321 C 
HETATM    3  N   UNL     1     -40.984 -52.720  11.714  1.00  0.00    -0.336 N 
HETATM    4  N   UNL     1     -40.673 -50.571  11.012  1.00  0.00    -0.308 N 
HETATM    5  H   UNL     1     -40.938 -52.964  10.736  1.00  0.00     0.164 HD
HETATM    6  H   UNL     1     -40.042 -51.006  10.355  1.00  0.00     0.170 HD
ENDROOT
BRANCH   4   7
HETATM    7  C   UNL     1     -40.730 -49.158  11.010  1.00  0.00     0.051 A 
HETATM    8  C   UNL     1     -39.846 -48.347  11.704  1.00  0.00     0.035 A 
HETATM    9  C   UNL     1     -39.961 -46.956  11.623  1.00  0.00     0.051 A 
HETATM   10  C   UNL     1     -40.974 -46.367  10.871  1.00  0.00     0.103 A 
HETATM   11  N   UNL     1     -41.843 -47.151  10.194  1.00  0.00    -0.350 N 
HETATM   12  C   UNL     1     -41.711 -48.503  10.279  1.00  0.00     0.119 A 
ATOM     13  HN  UNL     1     -42.583 -46.737   9.629  1.00  0.00     0.166 HD
BRANCH  10  14
HETATM   14  N   UNL     1     -41.101 -44.998  10.783  1.00  0.00    -0.367 N 
HETATM   15  C   UNL     1     -42.318 -44.359  11.276  1.00  0.00     0.124 C 
HETATM   16  C   UNL     1     -41.897 -42.925  11.607  1.00  0.00     0.021 C 
HETATM   17  C   UNL     1     -40.389 -42.998  11.773  1.00  0.00     0.021 C 
HETATM   18  C   UNL     1     -39.970 -44.084  10.793  1.00  0.00     0.124 C 
ENDBRANCH  10  14
ENDBRANCH   4   7
BRANCH   3  19
HETATM   19  C   UNL     1     -41.419 -53.777  12.629  1.00  0.00     0.121 C 
HETATM   20  C   UNL     1     -40.447 -54.019  13.802  1.00  0.00     0.057 C 
HETATM   21  C   UNL     1     -41.286 -53.836  15.067  1.00  0.00     0.275 C 
HETATM   22  N   UNL     1     -42.628 -54.199  14.612  1.00  0.00     0.095 N 
HETATM   23  C   UNL     1     -43.701 -53.804  15.520  1.00  0.00     0.273 C 
HETATM   24  C   UNL     1     -42.767 -53.505  13.321  1.00  0.00     0.245 C 
HETATM   25  C   UNL     1     -45.048 -54.227  14.915  1.00  0.00     0.030 C 
HETATM   26  C   UNL     1     -45.235 -53.729  13.477  1.00  0.00     0.004 C 
HETATM   27  C   UNL     1     -44.007 -54.032  12.609  1.00  0.00     0.038 C 
ENDBRANCH   3  19
TORSDOF 3
ENDMDL
MODEL 2
REMARK VINA RESULT:      -7.0      1.499      1.919
REMARK  3 active torsions:
REMARK  status: ('A' for Active; 'I' for Inactive)
REMARK       I    between atoms: C_2  and  N_3 
REMARK       I    between atoms: C_2  and  N_13 
REMARK    1  A    between atoms: N_3  and  C_4 
REMARK    2  A    between atoms: N_13  and  C_14 
REMARK    3  A    between atoms: C_17  and  N_21 
ROOT
HETATM    1  O   UNL     1     -42.716 -50.505  13.166  1.00  0.00    -0.247 OA
HETATM    2  C   UNL     1     -42.206 -51.020  12.179  1.00  0.00     0.321 C 
HETATM    3  N   UNL     1     -42.390 -52.351  11.862  1.00  0.00    -0.336 N 
HETATM    4  N   UNL     1     -41.368 -50.393  11.288  1.00  0.00    -0.308 N 
HETATM    5  H   UNL     1     -42.283 -52.602  10.890  1.00  0.00     0.164 HD
HETATM    6  H   UNL     1     -40.808 -50.998  10.706  1.00  0.00     0.170 HD
ENDROOT
BRANCH   4   7
HETATM    7  C   UNL     1     -41.007 -49.026  11.331  1.00  0.00     0.051 A 
HETATM    8  C   UNL     1     -41.660 -48.032  10.620  1.00  0.00     0.035 A 
HETATM    9  C   UNL     1     -41.253 -46.700  10.744  1.00  0.00     0.051 A 
HETATM   10  C   UNL     1     -40.176 -46.357  11.557  1.00  0.00     0.103 A 
HETATM   11  N   UNL     1     -39.531 -47.321  12.251  1.00  0.00    -0.350 N 
HETATM   12  C   UNL     1     -39.946 -48.612  12.123  1.00  0.00     0.119 A 
ATOM     13  HN  UNL     1     -38.748 -47.087  12.860  1.00  0.00     0.166 HD
BRANCH  10  14
HETATM   14  N   UNL     1     -39.762 -45.050  11.688  1.00  0.00    -0.367 N 
HETATM   15  C   UNL     1     -40.495 -43.992  10.997  1.00  0.00     0.124 C 
HETATM   16  C   UNL     1     -40.210 -42.727  11.808  1.00  0.00     0.021 C 
HETATM   17  C   UNL     1     -39.775 -43.236  13.172  1.00  0.00     0.021 C 
HETATM   18  C   UNL     1     -39.061 -44.543  12.858  1.00  0.00     0.124 C 
ENDBRANCH  10  14
ENDBRANCH   4   7
BRANCH   3  19
HETATM   19  C   UNL     1     -43.238 -53.228  12.671  1.00  0.00     0.121 C 
HETATM   20  C   UNL     1     -42.473 -53.980  13.779  1.00  0.00     0.057 C 
HETATM   21  C   UNL     1     -43.180 -53.610  15.083  1.00  0.00     0.275 C 
HETATM   22  N   UNL     1     -44.544 -53.332  14.635  1.00  0.00     0.095 N 
HETATM   23  C   UNL     1     -45.371 -52.633  15.614  1.00  0.00     0.273 C 
HETATM   24  C   UNL     1     -44.363 -52.502  13.432  1.00  0.00     0.245 C 
HETATM   25  C   UNL     1     -46.762 -52.389  15.011  1.00  0.00     0.030 C 
HETATM   26  C   UNL     1     -46.704 -51.701  13.642  1.00  0.00     0.004 C 
HETATM   27  C   UNL     1     -45.698 -52.386  12.708  1.00  0.00     0.038 C 
ENDBRANCH   3  19
TORSDOF 3
ENDMDL
MODEL 3
REMARK VINA RESULT:      -6.7      2.491      8.718
REMARK  3 active torsions:
REMARK  status: ('A' for Active; 'I' for Inactive)
REMARK       I    between atoms: C_2  and  N_3 
REMARK       I    between atoms: C_2  and  N_13 
REMARK    1  A    between atoms: N_3  and  C_4 
REMARK    2  A    between atoms: N_13  and  C_14 
REMARK    3  A    between atoms: C_17  and  N_21 
ROOT
HETATM    1  O   UNL     1     -41.893 -49.793  13.294  1.00  0.00    -0.247 OA
HETATM    2  C   UNL     1     -41.364 -50.052  12.221  1.00  0.00     0.321 C 
HETATM    3  N   UNL     1     -41.396 -49.181  11.151  1.00  0.00    -0.336 N 
HETATM    4  N   UNL     1     -40.718 -51.225  11.907  1.00  0.00    -0.308 N 
HETATM    5  H   UNL     1     -40.653 -49.271  10.474  1.00  0.00     0.164 HD
HETATM    6  H   UNL     1     -40.590 -51.410  10.923  1.00  0.00     0.170 HD
ENDROOT
BRANCH   4   7
HETATM    7  C   UNL     1     -40.501 -52.300  12.799  1.00  0.00     0.051 A 
HETATM    8  C   UNL     1     -41.347 -53.394  12.911  1.00  0.00     0.035 A 
HETATM    9  C   UNL     1     -41.040 -54.427  13.802  1.00  0.00     0.051 A 
HETATM   10  C   UNL     1     -39.903 -54.363  14.603  1.00  0.00     0.103 A 
HETATM   11  N   UNL     1     -39.076 -53.299  14.502  1.00  0.00    -0.350 N 
HETATM   12  C   UNL     1     -39.387 -52.305  13.625  1.00  0.00     0.119 A 
ATOM     13  HN  UNL     1     -38.233 -53.241  15.073  1.00  0.00     0.166 HD
BRANCH  10  14
HETATM   14  N   UNL     1     -39.589 -55.372  15.487  1.00  0.00    -0.367 N 
HETATM   15  C   UNL     1     -38.203 -55.544  15.914  1.00  0.00     0.124 C 
HETATM   16  C   UNL     1     -38.297 -56.251  17.267  1.00  0.00     0.021 C 
HETATM   17  C   UNL     1     -39.710 -55.967  17.750  1.00  0.00     0.021 C 
HETATM   18  C   UNL     1     -40.524 -55.904  16.466  1.00  0.00     0.124 C 
ENDBRANCH  10  14
ENDBRANCH   4   7
BRANCH   3  19
HETATM   19  C   UNL     1     -42.038 -47.868  11.243  1.00  0.00     0.121 C 
HETATM   20  C   UNL     1     -41.050 -46.688  11.149  1.00  0.00     0.057 C 
HETATM   21  C   UNL     1     -41.546 -45.836   9.980  1.00  0.00     0.275 C 
HETATM   22  N   UNL     1     -42.981 -46.118   9.970  1.00  0.00     0.095 N 
HETATM   23  C   UNL     1     -43.670 -45.699   8.753  1.00  0.00     0.273 C 
HETATM   24  C   UNL     1     -43.059 -47.579  10.127  1.00  0.00     0.245 C 
HETATM   25  C   UNL     1     -45.156 -46.068   8.868  1.00  0.00     0.030 C 
HETATM   26  C   UNL     1     -45.375 -47.542   9.232  1.00  0.00     0.004 C 
HETATM   27  C   UNL     1     -44.503 -47.967  10.420  1.00  0.00     0.038 C 
ENDBRANCH   3  19
TORSDOF 3
ENDMDL
MODEL 4
REMARK VINA RESULT:      -6.5      2.053      8.648
REMARK  3 active torsions:
REMARK  status: ('A' for Active; 'I' for Inactive)
REMARK       I    between atoms: C_2  and  N_3 
REMARK       I    between atoms: C_2  and  N_13 
REMARK    1  A    between atoms: N_3  and  C_4 
REMARK    2  A    between atoms: N_13  and  C_14 
REMARK    3  A    between atoms: C_17  and  N_21 
ROOT
HETATM    1  O   UNL     1     -41.644 -49.383  12.580  1.00  0.00    -0.247 OA
HETATM    2  C   UNL     1     -41.129 -49.763  11.537  1.00  0.00     0.321 C 
HETATM    3  N   UNL     1     -41.168 -49.016  10.377  1.00  0.00    -0.336 N 
HETATM    4  N   UNL     1     -40.492 -50.967  11.349  1.00  0.00    -0.308 N 
HETATM    5  H   UNL     1     -40.433 -49.185   9.707  1.00  0.00     0.164 HD
HETATM    6  H   UNL     1     -40.376 -51.261  10.390  1.00  0.00     0.170 HD
ENDROOT
BRANCH   4   7
HETATM    7  C   UNL     1     -40.271 -51.939  12.352  1.00  0.00     0.051 A 
HETATM    8  C   UNL     1     -39.331 -51.807  13.362  1.00  0.00     0.035 A 
HETATM    9  C   UNL     1     -39.199 -52.807  14.330  1.00  0.00     0.051 A 
HETATM   10  C   UNL     1     -39.985 -53.955  14.281  1.00  0.00     0.103 A 
HETATM   11  N   UNL     1     -40.901 -54.093  13.296  1.00  0.00    -0.350 N 
HETATM   12  C   UNL     1     -41.020 -53.106  12.366  1.00  0.00     0.119 A 
ATOM     13  HN  UNL     1     -41.493 -54.922  13.251  1.00  0.00     0.166 HD
BRANCH  10  14
HETATM   14  N   UNL     1     -39.866 -54.950  15.226  1.00  0.00    -0.367 N 
HETATM   15  C   UNL     1     -38.537 -55.357  15.674  1.00  0.00     0.124 C 
HETATM   16  C   UNL     1     -38.760 -55.949  17.067  1.00  0.00     0.021 C 
HETATM   17  C   UNL     1     -40.090 -55.371  17.520  1.00  0.00     0.021 C 
HETATM   18  C   UNL     1     -40.882 -55.232  16.228  1.00  0.00     0.124 C 
ENDBRANCH  10  14
ENDBRANCH   4   7
BRANCH   3  19
HETATM   19  C   UNL     1     -41.803 -47.697  10.329  1.00  0.00     0.121 C 
HETATM   20  C   UNL     1     -43.271 -47.699  10.800  1.00  0.00     0.057 C 
HETATM   21  C   UNL     1     -43.334 -46.679  11.937  1.00  0.00     0.275 C 
HETATM   22  N   UNL     1     -42.254 -45.755  11.593  1.00  0.00     0.095 N 
HETATM   23  C   UNL     1     -41.859 -44.857  12.674  1.00  0.00     0.273 C 
HETATM   24  C   UNL     1     -41.134 -46.636  11.222  1.00  0.00     0.245 C 
HETATM   25  C   UNL     1     -40.712 -43.960  12.186  1.00  0.00     0.030 C 
HETATM   26  C   UNL     1     -39.549 -44.759  11.583  1.00  0.00     0.004 C 
HETATM   27  C   UNL     1     -40.043 -45.797  10.568  1.00  0.00     0.038 C 
ENDBRANCH   3  19
TORSDOF 3
ENDMDL
MODEL 5
REMARK VINA RESULT:      -6.3      3.674      5.086
REMARK  3 active torsions:
REMARK  status: ('A' for Active; 'I' for Inactive)
REMARK       I    between atoms: C_2  and  N_3 
REMARK       I    between atoms: C_2  and  N_13 
REMARK    1  A    between atoms: N_3  and  C_4 
REMARK    2  A    between atoms: N_13  and  C_14 
REMARK    3  A    between atoms: C_17  and  N_21 
ROOT
HETATM    1  O   UNL     1     -42.190 -52.179  14.302  1.00  0.00    -0.247 OA
HETATM    2  C   UNL     1     -42.126 -51.841  13.128  1.00  0.00     0.321 C 
HETATM    3  N   UNL     1     -43.068 -52.224  12.195  1.00  0.00    -0.336 N 
HETATM    4  N   UNL     1     -41.121 -51.091  12.562  1.00  0.00    -0.308 N 
HETATM    5  H   UNL     1     -43.174 -51.627  11.389  1.00  0.00     0.164 HD
HETATM    6  H   UNL     1     -41.050 -51.135  11.556  1.00  0.00     0.170 HD
ENDROOT
BRANCH   4   7
HETATM    7  C   UNL     1     -40.028 -50.532  13.262  1.00  0.00     0.051 A 
HETATM    8  C   UNL     1     -39.968 -49.209  13.673  1.00  0.00     0.035 A 
HETATM    9  C   UNL     1     -38.857 -48.748  14.386  1.00  0.00     0.051 A 
HETATM   10  C   UNL     1     -37.789 -49.595  14.668  1.00  0.00     0.103 A 
HETATM   11  N   UNL     1     -37.838 -50.885  14.267  1.00  0.00    -0.350 N 
HETATM   12  C   UNL     1     -38.930 -51.319  13.580  1.00  0.00     0.119 A 
ATOM     13  HN  UNL     1     -37.070 -51.523  14.475  1.00  0.00     0.166 HD
BRANCH  10  14
HETATM   14  N   UNL     1     -36.687 -49.155  15.368  1.00  0.00    -0.367 N 
HETATM   15  C   UNL     1     -36.666 -47.791  15.888  1.00  0.00     0.124 C 
HETATM   16  C   UNL     1     -35.689 -47.837  17.065  1.00  0.00     0.021 C 
HETATM   17  C   UNL     1     -35.627 -49.305  17.452  1.00  0.00     0.021 C 
HETATM   18  C   UNL     1     -35.815 -50.036  16.130  1.00  0.00     0.124 C 
ENDBRANCH  10  14
ENDBRANCH   4   7
BRANCH   3  19
HETATM   19  C   UNL     1     -44.231 -53.036  12.560  1.00  0.00     0.121 C 
HETATM   20  C   UNL     1     -43.876 -54.487  12.947  1.00  0.00     0.057 C 
HETATM   21  C   UNL     1     -44.442 -54.680  14.354  1.00  0.00     0.275 C 
HETATM   22  N   UNL     1     -45.565 -53.743  14.375  1.00  0.00     0.095 N 
HETATM   23  C   UNL     1     -46.096 -53.467  15.707  1.00  0.00     0.273 C 
HETATM   24  C   UNL     1     -45.015 -52.514  13.779  1.00  0.00     0.245 C 
HETATM   25  C   UNL     1     -47.250 -52.461  15.586  1.00  0.00     0.030 C 
HETATM   26  C   UNL     1     -46.860 -51.203  14.799  1.00  0.00     0.004 C 
HETATM   27  C   UNL     1     -46.161 -51.556  13.480  1.00  0.00     0.038 C 
ENDBRANCH   3  19
TORSDOF 3
ENDMDL
MODEL 6
REMARK VINA RESULT:      -6.3      1.796      2.625
REMARK  3 active torsions:
REMARK  status: ('A' for Active; 'I' for Inactive)
REMARK       I    between atoms: C_2  and  N_3 
REMARK       I    between atoms: C_2  and  N_13 
REMARK    1  A    between atoms: N_3  and  C_4 
REMARK    2  A    between atoms: N_13  and  C_14 
REMARK    3  A    between atoms: C_17  and  N_21 
ROOT
HETATM    1  O   UNL     1     -43.455 -49.374  13.994  1.00  0.00    -0.247 OA
HETATM    2  C   UNL     1     -43.362 -49.921  12.903  1.00  0.00     0.321 C 
HETATM    3  N   UNL     1     -43.666 -51.254  12.716  1.00  0.00    -0.336 N 
HETATM    4  N   UNL     1     -42.915 -49.330  11.744  1.00  0.00    -0.308 N 
HETATM    5  H   UNL     1     -43.937 -51.528  11.783  1.00  0.00     0.164 HD
HETATM    6  H   UNL     1     -42.623 -49.960  11.010  1.00  0.00     0.170 HD
ENDROOT
BRANCH   4   7
HETATM    7  C   UNL     1     -42.551 -47.971  11.609  1.00  0.00     0.051 A 
HETATM    8  C   UNL     1     -41.400 -47.422  12.154  1.00  0.00     0.035 A 
HETATM    9  C   UNL     1     -41.104 -46.071  11.946  1.00  0.00     0.051 A 
HETATM   10  C   UNL     1     -41.967 -45.255  11.220  1.00  0.00     0.103 A 
HETATM   11  N   UNL     1     -43.093 -45.782  10.689  1.00  0.00    -0.350 N 
HETATM   12  C   UNL     1     -43.362 -47.101  10.895  1.00  0.00     0.119 A 
ATOM     13  HN  UNL     1     -43.730 -45.203  10.144  1.00  0.00     0.166 HD
BRANCH  10  14
HETATM   14  N   UNL     1     -41.690 -43.922  11.009  1.00  0.00    -0.367 N 
HETATM   15  C   UNL     1     -42.756 -42.936  11.164  1.00  0.00     0.124 C 
HETATM   16  C   UNL     1     -42.031 -41.627  11.481  1.00  0.00     0.021 C 
HETATM   17  C   UNL     1     -40.668 -42.058  11.994  1.00  0.00     0.021 C 
HETATM   18  C   UNL     1     -40.376 -43.333  11.215  1.00  0.00     0.124 C 
ENDBRANCH  10  14
ENDBRANCH   4   7
BRANCH   3  19
HETATM   19  C   UNL     1     -44.156 -52.096  13.809  1.00  0.00     0.121 C 
HETATM   20  C   UNL     1     -45.339 -53.001  13.412  1.00  0.00     0.057 C 
HETATM   21  C   UNL     1     -44.886 -54.425  13.734  1.00  0.00     0.275 C 
HETATM   22  N   UNL     1     -43.935 -54.215  14.825  1.00  0.00     0.095 N 
HETATM   23  C   UNL     1     -43.091 -55.369  15.121  1.00  0.00     0.273 C 
HETATM   24  C   UNL     1     -43.114 -53.082  14.369  1.00  0.00     0.245 C 
HETATM   25  C   UNL     1     -42.134 -55.007  16.266  1.00  0.00     0.030 C 
HETATM   26  C   UNL     1     -41.351 -53.715  16.000  1.00  0.00     0.004 C 
HETATM   27  C   UNL     1     -42.275 -52.580  15.538  1.00  0.00     0.038 C 
ENDBRANCH   3  19
TORSDOF 3
ENDMDL
MODEL 7
REMARK VINA RESULT:      -6.0      6.362      9.714
REMARK  3 active torsions:
REMARK  status: ('A' for Active; 'I' for Inactive)
REMARK       I    between atoms: C_2  and  N_3 
REMARK       I    between atoms: C_2  and  N_13 
REMARK    1  A    between atoms: N_3  and  C_4 
REMARK    2  A    between atoms: N_13  and  C_14 
REMARK    3  A    between atoms: C_17  and  N_21 
ROOT
HETATM    1  O   UNL     1     -39.751 -58.415  16.946  1.00  0.00    -0.247 OA
HETATM    2  C   UNL     1     -39.288 -57.481  17.588  1.00  0.00     0.321 C 
HETATM    3  N   UNL     1     -38.337 -57.660  18.572  1.00  0.00    -0.336 N 
HETATM    4  N   UNL     1     -39.658 -56.162  17.468  1.00  0.00    -0.308 N 
HETATM    5  H   UNL     1     -37.742 -56.870  18.774  1.00  0.00     0.164 HD
HETATM    6  H   UNL     1     -39.411 -55.561  18.241  1.00  0.00     0.170 HD
ENDROOT
BRANCH   4   7
HETATM    7  C   UNL     1     -40.591 -55.658  16.533  1.00  0.00     0.051 A 
HETATM    8  C   UNL     1     -41.954 -55.906  16.591  1.00  0.00     0.035 A 
HETATM    9  C   UNL     1     -42.809 -55.344  15.638  1.00  0.00     0.051 A 
HETATM   10  C   UNL     1     -42.307 -54.554  14.608  1.00  0.00     0.103 A 
HETATM   11  N   UNL     1     -40.978 -54.311  14.542  1.00  0.00    -0.350 N 
HETATM   12  C   UNL     1     -40.162 -54.861  15.482  1.00  0.00     0.119 A 
ATOM     13  HN  UNL     1     -40.594 -53.725  13.801  1.00  0.00     0.166 HD
BRANCH  10  14
HETATM   14  N   UNL     1     -43.136 -53.995  13.660  1.00  0.00    -0.367 N 
HETATM   15  C   UNL     1     -44.538 -54.400  13.606  1.00  0.00     0.124 C 
HETATM   16  C   UNL     1     -45.258 -53.221  12.950  1.00  0.00     0.021 C 
HETATM   17  C   UNL     1     -44.324 -52.041  13.152  1.00  0.00     0.021 C 
HETATM   18  C   UNL     1     -42.937 -52.665  13.104  1.00  0.00     0.124 C 
ENDBRANCH  10  14
ENDBRANCH   4   7
BRANCH   3  19
HETATM   19  C   UNL     1     -37.793 -58.982  18.889  1.00  0.00     0.121 C 
HETATM   20  C   UNL     1     -36.280 -58.973  19.189  1.00  0.00     0.057 C 
HETATM   21  C   UNL     1     -36.140 -59.587  20.582  1.00  0.00     0.275 C 
HETATM   22  N   UNL     1     -37.307 -60.467  20.659  1.00  0.00     0.095 N 
HETATM   23  C   UNL     1     -37.619 -60.939  22.004  1.00  0.00     0.273 C 
HETATM   24  C   UNL     1     -38.409 -59.643  20.136  1.00  0.00     0.245 C 
HETATM   25  C   UNL     1     -38.868 -61.831  21.943  1.00  0.00     0.030 C 
HETATM   26  C   UNL     1     -40.046 -61.154  21.232  1.00  0.00     0.004 C 
HETATM   27  C   UNL     1     -39.620 -60.536  19.894  1.00  0.00     0.038 C 
ENDBRANCH   3  19
TORSDOF 3
ENDMDL
MODEL 8
REMARK VINA RESULT:      -6.0      5.416     11.433
REMARK  3 active torsions:
REMARK  status: ('A' for Active; 'I' for Inactive)
REMARK       I    between atoms: C_2  and  N_3 
REMARK       I    between atoms: C_2  and  N_13 
REMARK    1  A    between atoms: N_3  and  C_4 
REMARK    2  A    between atoms: N_13  and  C_14 
REMARK    3  A    between atoms: C_17  and  N_21 
ROOT
HETATM    1  O   UNL     1     -38.772 -55.497  14.396  1.00  0.00    -0.247 OA
HETATM    2  C   UNL     1     -39.360 -54.766  15.182  1.00  0.00     0.321 C 
HETATM    3  N   UNL     1     -39.876 -53.542  14.809  1.00  0.00    -0.336 N 
HETATM    4  N   UNL     1     -39.554 -55.017  16.520  1.00  0.00    -0.308 N 
HETATM    5  H   UNL     1     -40.645 -53.190  15.360  1.00  0.00     0.164 HD
HETATM    6  H   UNL     1     -39.792 -54.218  17.090  1.00  0.00     0.170 HD
ENDROOT
BRANCH   4   7
HETATM    7  C   UNL     1     -39.161 -56.196  17.194  1.00  0.00     0.051 A 
HETATM    8  C   UNL     1     -39.963 -57.320  17.318  1.00  0.00     0.035 A 
HETATM    9  C   UNL     1     -39.481 -58.454  17.979  1.00  0.00     0.051 A 
HETATM   10  C   UNL     1     -38.208 -58.463  18.544  1.00  0.00     0.103 A 
HETATM   11  N   UNL     1     -37.422 -57.369  18.431  1.00  0.00    -0.350 N 
HETATM   12  C   UNL     1     -37.905 -56.277  17.778  1.00  0.00     0.119 A 
ATOM     13  HN  UNL     1     -36.483 -57.362  18.829  1.00  0.00     0.166 HD
BRANCH  10  14
HETATM   14  N   UNL     1     -37.720 -59.572  19.200  1.00  0.00    -0.367 N 
HETATM   15  C   UNL     1     -36.279 -59.802  19.243  1.00  0.00     0.124 C 
HETATM   16  C   UNL     1     -36.060 -60.663  20.488  1.00  0.00     0.021 C 
HETATM   17  C   UNL     1     -37.296 -60.429  21.338  1.00  0.00     0.021 C 
HETATM   18  C   UNL     1     -38.401 -60.209  20.316  1.00  0.00     0.124 C 
ENDBRANCH  10  14
ENDBRANCH   4   7
BRANCH   3  19
HETATM   19  C   UNL     1     -39.784 -53.052  13.432  1.00  0.00     0.121 C 
HETATM   20  C   UNL     1     -41.095 -53.195  12.634  1.00  0.00     0.057 C 
HETATM   21  C   UNL     1     -41.431 -51.785  12.149  1.00  0.00     0.275 C 
HETATM   22  N   UNL     1     -40.112 -51.159  12.059  1.00  0.00     0.095 N 
HETATM   23  C   UNL     1     -40.140 -49.705  11.936  1.00  0.00     0.273 C 
HETATM   24  C   UNL     1     -39.444 -51.555  13.311  1.00  0.00     0.245 C 
HETATM   25  C   UNL     1     -38.698 -49.181  11.871  1.00  0.00     0.030 C 
HETATM   26  C   UNL     1     -37.829 -49.690  13.028  1.00  0.00     0.004 C 
HETATM   27  C   UNL     1     -37.964 -51.207  13.211  1.00  0.00     0.038 C 
ENDBRANCH   3  19
TORSDOF 3
ENDMDL
MODEL 9
REMARK VINA RESULT:      -6.0      1.731      2.042
REMARK  3 active torsions:
REMARK  status: ('A' for Active; 'I' for Inactive)
REMARK       I    between atoms: C_2  and  N_3 
REMARK       I    between atoms: C_2  and  N_13 
REMARK    1  A    between atoms: N_3  and  C_4 
REMARK    2  A    between atoms: N_13  and  C_14 
REMARK    3  A    between atoms: C_17  and  N_21 
ROOT
HETATM    1  O   UNL     1     -42.076 -50.112  12.052  1.00  0.00    -0.247 OA
HETATM    2  C   UNL     1     -41.692 -49.987  13.207  1.00  0.00     0.321 C 
HETATM    3  N   UNL     1     -41.499 -51.068  14.044  1.00  0.00    -0.336 N 
HETATM    4  N   UNL     1     -41.442 -48.795  13.846  1.00  0.00    -0.308 N 
HETATM    5  H   UNL     1     -40.844 -50.941  14.801  1.00  0.00     0.164 HD
HETATM    6  H   UNL     1     -41.414 -48.830  14.854  1.00  0.00     0.170 HD
ENDROOT
BRANCH   4   7
HETATM    7  C   UNL     1     -41.528 -47.516  13.249  1.00  0.00     0.051 A 
HETATM    8  C   UNL     1     -42.640 -46.693  13.339  1.00  0.00     0.035 A 
HETATM    9  C   UNL     1     -42.626 -45.430  12.739  1.00  0.00     0.051 A 
HETATM   10  C   UNL     1     -41.515 -44.993  12.023  1.00  0.00     0.103 A 
HETATM   11  N   UNL     1     -40.428 -45.791  11.927  1.00  0.00    -0.350 N 
HETATM   12  C   UNL     1     -40.457 -47.015  12.523  1.00  0.00     0.119 A 
ATOM     13  HN  UNL     1     -39.601 -45.482  11.417  1.00  0.00     0.166 HD
BRANCH  10  14
HETATM   14  N   UNL     1     -41.487 -43.752  11.425  1.00  0.00    -0.367 N 
HETATM   15  C   UNL     1     -42.744 -43.060  11.152  1.00  0.00     0.124 C 
HETATM   16  C   UNL     1     -42.369 -41.578  11.103  1.00  0.00     0.021 C 
HETATM   17  C   UNL     1     -41.052 -41.491  11.856  1.00  0.00     0.021 C 
HETATM   18  C   UNL     1     -40.377 -42.821  11.558  1.00  0.00     0.124 C 
ENDBRANCH  10  14
ENDBRANCH   4   7
BRANCH   3  19
HETATM   19  C   UNL     1     -41.710 -52.443  13.589  1.00  0.00     0.121 C 
HETATM   20  C   UNL     1     -40.754 -53.464  14.239  1.00  0.00     0.057 C 
HETATM   21  C   UNL     1     -41.659 -54.508  14.894  1.00  0.00     0.275 C 
HETATM   22  N   UNL     1     -42.861 -54.449  14.063  1.00  0.00     0.095 N 
HETATM   23  C   UNL     1     -44.030 -55.102  14.645  1.00  0.00     0.273 C 
HETATM   24  C   UNL     1     -43.109 -53.008  13.895  1.00  0.00     0.245 C 
HETATM   25  C   UNL     1     -45.217 -54.952  13.683  1.00  0.00     0.030 C 
HETATM   26  C   UNL     1     -45.461 -53.496  13.266  1.00  0.00     0.004 C 
HETATM   27  C   UNL     1     -44.165 -52.813  12.814  1.00  0.00     0.038 C 
ENDBRANCH   3  19
TORSDOF 3
ENDMDL
