MODEL 1
REMARK VINA RESULT:      -6.5      0.000      0.000
REMARK  5 active torsions:
REMARK  status: ('A' for Active; 'I' for Inactive)
REMARK    1  A    between atoms: C_2  and  C_5 
REMARK    2  A    between atoms: C_8  and  C_9 
REMARK    3  A    between atoms: C_9  and  C_10 
REMARK    4  A    between atoms: C_10  and  N_11 
REMARK       I    between atoms: N_11  and  C_12 
REMARK    5  A    between atoms: C_12  and  C_14 
ROOT
HETATM    1  C   UNL     1     -40.400 -49.774  11.448  1.00  0.00     0.084 C 
ENDROOT
BRANCH   1   2
HETATM    2  C   UNL     1     -41.323 -48.621  11.173  1.00  0.00     0.052 A 
HETATM    3  S   UNL     1     -41.259 -47.203  12.142  1.00  0.00    -0.087 SA
HETATM    4  C   UNL     1     -42.482 -46.497  11.175  1.00  0.00     0.077 A 
HETATM    5  C   UNL     1     -42.884 -47.372  10.179  1.00  0.00     0.024 A 
HETATM    6  N   UNL     1     -42.209 -48.591  10.197  1.00  0.00    -0.356 N 
ATOM      7  HN  UNL     1     -42.379 -49.356   9.545  1.00  0.00     0.166 HD
BRANCH   5   8
HETATM    8  C   UNL     1     -43.957 -47.111   9.126  1.00  0.00    -0.008 C 
HETATM    9  C   UNL     1     -43.580 -47.785   7.791  1.00  0.00     0.021 C 
HETATM   10  C   UNL     1     -44.112 -45.596   8.889  1.00  0.00     0.021 C 
HETATM   11  C   UNL     1     -45.327 -47.669   9.566  1.00  0.00     0.021 C 
ENDBRANCH   5   8
ENDBRANCH   1   2
BRANCH   1  12
HETATM   12  C   UNL     1     -40.614 -50.309  12.863  1.00  0.00     0.129 C 
BRANCH  12  13
HETATM   13  N   UNL     1     -41.553 -51.420  12.960  1.00  0.00    -0.360 N 
HETATM   14  C   UNL     1     -41.081 -52.720  12.895  1.00  0.00     0.222 C 
HETATM   15  O   UNL     1     -39.882 -52.978  12.804  1.00  0.00    -0.273 OA
HETATM   16  H   UNL     1     -42.549 -51.248  12.883  1.00  0.00     0.162 HD
BRANCH  14  17
HETATM   17  C   UNL     1     -42.123 -53.831  12.991  1.00  0.00     0.081 C 
HETATM   18  C   UNL     1     -43.506 -53.344  12.533  1.00  0.00     0.018 C 
HETATM   19  C   UNL     1     -44.723 -54.082  13.095  1.00  0.00     0.027 C 
HETATM   20  C   UNL     1     -44.500 -54.861  14.348  1.00  0.00    -0.031 C 
HETATM   21  C   UNL     1     -43.305 -55.041  14.917  1.00  0.00    -0.030 C 
HETATM   22  C   UNL     1     -42.032 -54.480  14.379  1.00  0.00     0.041 C 
ENDBRANCH  14  17
ENDBRANCH  12  13
ENDBRANCH   1  12
TORSDOF 5
ENDMDL
MODEL 2
REMARK VINA RESULT:      -6.4      2.404      2.610
REMARK  5 active torsions:
REMARK  status: ('A' for Active; 'I' for Inactive)
REMARK    1  A    between atoms: C_2  and  C_5 
REMARK    2  A    between atoms: C_8  and  C_9 
REMARK    3  A    between atoms: C_9  and  C_10 
REMARK    4  A    between atoms: C_10  and  N_11 
REMARK       I    between atoms: N_11  and  C_12 
REMARK    5  A    between atoms: C_12  and  C_14 
ROOT
HETATM    1  C   UNL     1     -40.392 -49.805  11.584  1.00  0.00     0.084 C 
ENDROOT
BRANCH   1   2
HETATM    2  C   UNL     1     -41.119 -48.593  11.071  1.00  0.00     0.052 A 
HETATM    3  S   UNL     1     -40.568 -47.015  11.467  1.00  0.00    -0.087 SA
HETATM    4  C   UNL     1     -41.824 -46.347  10.514  1.00  0.00     0.077 A 
HETATM    5  C   UNL     1     -42.602 -47.350   9.958  1.00  0.00     0.024 A 
HETATM    6  N   UNL     1     -42.183 -48.636  10.294  1.00  0.00    -0.356 N 
ATOM      7  HN  UNL     1     -42.639 -49.493   9.982  1.00  0.00     0.166 HD
BRANCH   5   8
HETATM    8  C   UNL     1     -43.818 -47.155   9.058  1.00  0.00    -0.008 C 
HETATM    9  C   UNL     1     -43.611 -47.870   7.706  1.00  0.00     0.021 C 
HETATM   10  C   UNL     1     -44.049 -45.654   8.793  1.00  0.00     0.021 C 
HETATM   11  C   UNL     1     -45.096 -47.729   9.704  1.00  0.00     0.021 C 
ENDBRANCH   5   8
ENDBRANCH   1   2
BRANCH   1  12
HETATM   12  C   UNL     1     -40.593 -49.955  13.092  1.00  0.00     0.129 C 
BRANCH  12  13
HETATM   13  N   UNL     1     -41.728 -50.784  13.476  1.00  0.00    -0.360 N 
HETATM   14  C   UNL     1     -42.888 -50.183  13.934  1.00  0.00     0.222 C 
HETATM   15  O   UNL     1     -43.016 -48.961  13.985  1.00  0.00    -0.273 OA
HETATM   16  H   UNL     1     -41.608 -51.784  13.590  1.00  0.00     0.162 HD
BRANCH  14  17
HETATM   17  C   UNL     1     -44.031 -51.115  14.330  1.00  0.00     0.081 C 
HETATM   18  C   UNL     1     -45.072 -51.232  13.207  1.00  0.00     0.018 C 
HETATM   19  C   UNL     1     -46.496 -51.609  13.619  1.00  0.00     0.027 C 
HETATM   20  C   UNL     1     -46.853 -51.375  15.050  1.00  0.00    -0.031 C 
HETATM   21  C   UNL     1     -45.985 -50.981  15.984  1.00  0.00    -0.030 C 
HETATM   22  C   UNL     1     -44.540 -50.714  15.721  1.00  0.00     0.041 C 
ENDBRANCH  14  17
ENDBRANCH  12  13
ENDBRANCH   1  12
TORSDOF 5
ENDMDL
MODEL 3
REMARK VINA RESULT:      -6.4      2.698      6.716
REMARK  5 active torsions:
REMARK  status: ('A' for Active; 'I' for Inactive)
REMARK    1  A    between atoms: C_2  and  C_5 
REMARK    2  A    between atoms: C_8  and  C_9 
REMARK    3  A    between atoms: C_9  and  C_10 
REMARK    4  A    between atoms: C_10  and  N_11 
REMARK       I    between atoms: N_11  and  C_12 
REMARK    5  A    between atoms: C_12  and  C_14 
ROOT
HETATM    1  C   UNL     1     -42.127 -48.840  12.946  1.00  0.00     0.084 C 
ENDROOT
BRANCH   1   2
HETATM    2  C   UNL     1     -42.808 -50.180  12.904  1.00  0.00     0.052 A 
HETATM    3  S   UNL     1     -41.901 -51.608  12.603  1.00  0.00    -0.087 SA
HETATM    4  C   UNL     1     -43.328 -52.539  12.774  1.00  0.00     0.077 A 
HETATM    5  C   UNL     1     -44.416 -51.723  13.036  1.00  0.00     0.024 A 
HETATM    6  N   UNL     1     -44.098 -50.367  13.102  1.00  0.00    -0.356 N 
ATOM      7  HN  UNL     1     -44.772 -49.623  13.279  1.00  0.00     0.166 HD
BRANCH   5   8
HETATM    8  C   UNL     1     -45.858 -52.177  13.241  1.00  0.00    -0.008 C 
HETATM    9  C   UNL     1     -46.683 -51.959  11.955  1.00  0.00     0.021 C 
HETATM   10  C   UNL     1     -46.509 -51.378  14.388  1.00  0.00     0.021 C 
HETATM   11  C   UNL     1     -45.932 -53.676  13.600  1.00  0.00     0.021 C 
ENDBRANCH   5   8
ENDBRANCH   1   2
BRANCH   1  12
HETATM   12  C   UNL     1     -41.813 -48.351  11.533  1.00  0.00     0.129 C 
BRANCH  12  13
HETATM   13  N   UNL     1     -42.953 -48.335  10.626  1.00  0.00    -0.360 N 
HETATM   14  C   UNL     1     -43.143 -47.250   9.787  1.00  0.00     0.222 C 
HETATM   15  O   UNL     1     -42.352 -46.309   9.744  1.00  0.00    -0.273 OA
HETATM   16  H   UNL     1     -43.700 -49.012  10.739  1.00  0.00     0.162 HD
BRANCH  14  17
HETATM   17  C   UNL     1     -44.365 -47.297   8.873  1.00  0.00     0.081 C 
HETATM   18  C   UNL     1     -45.633 -47.675   9.652  1.00  0.00     0.018 C 
HETATM   19  C   UNL     1     -46.767 -48.326   8.858  1.00  0.00     0.027 C 
HETATM   20  C   UNL     1     -46.386 -48.949   7.556  1.00  0.00    -0.031 C 
HETATM   21  C   UNL     1     -45.170 -48.863   7.010  1.00  0.00    -0.030 C 
HETATM   22  C   UNL     1     -44.026 -48.136   7.633  1.00  0.00     0.041 C 
ENDBRANCH  14  17
ENDBRANCH  12  13
ENDBRANCH   1  12
TORSDOF 5
ENDMDL
MODEL 4
REMARK VINA RESULT:      -6.1      3.538      4.967
REMARK  5 active torsions:
REMARK  status: ('A' for Active; 'I' for Inactive)
REMARK    1  A    between atoms: C_2  and  C_5 
REMARK    2  A    between atoms: C_8  and  C_9 
REMARK    3  A    between atoms: C_9  and  C_10 
REMARK    4  A    between atoms: C_10  and  N_11 
REMARK       I    between atoms: N_11  and  C_12 
REMARK    5  A    between atoms: C_12  and  C_14 
ROOT
HETATM    1  C   UNL     1     -40.349 -54.030  14.105  1.00  0.00     0.084 C 
ENDROOT
BRANCH   1   2
HETATM    2  C   UNL     1     -39.719 -52.665  14.107  1.00  0.00     0.052 A 
HETATM    3  S   UNL     1     -38.919 -52.077  15.510  1.00  0.00    -0.087 SA
HETATM    4  C   UNL     1     -38.516 -50.642  14.669  1.00  0.00     0.077 A 
HETATM    5  C   UNL     1     -39.017 -50.675  13.378  1.00  0.00     0.024 A 
HETATM    6  N   UNL     1     -39.711 -51.845  13.075  1.00  0.00    -0.356 N 
ATOM      7  HN  UNL     1     -40.152 -52.040  12.177  1.00  0.00     0.166 HD
BRANCH   5   8
HETATM    8  C   UNL     1     -38.875 -49.579  12.325  1.00  0.00    -0.008 C 
HETATM    9  C   UNL     1     -38.809 -48.191  12.994  1.00  0.00     0.021 C 
HETATM   10  C   UNL     1     -40.079 -49.608  11.362  1.00  0.00     0.021 C 
HETATM   11  C   UNL     1     -37.590 -49.763  11.491  1.00  0.00     0.021 C 
ENDBRANCH   5   8
ENDBRANCH   1   2
BRANCH   1  12
HETATM   12  C   UNL     1     -41.143 -54.254  12.819  1.00  0.00     0.129 C 
BRANCH  12  13
HETATM   13  N   UNL     1     -42.588 -54.145  12.968  1.00  0.00    -0.360 N 
HETATM   14  C   UNL     1     -43.219 -52.950  12.665  1.00  0.00     0.222 C 
HETATM   15  O   UNL     1     -42.604 -51.980  12.225  1.00  0.00    -0.273 OA
HETATM   16  H   UNL     1     -43.101 -54.866  13.464  1.00  0.00     0.162 HD
BRANCH  14  17
HETATM   17  C   UNL     1     -44.732 -52.908  12.856  1.00  0.00     0.081 C 
HETATM   18  C   UNL     1     -45.197 -51.526  13.339  1.00  0.00     0.018 C 
HETATM   19  C   UNL     1     -46.512 -51.470  14.119  1.00  0.00     0.027 C 
HETATM   20  C   UNL     1     -46.969 -52.751  14.733  1.00  0.00    -0.031 C 
HETATM   21  C   UNL     1     -46.373 -53.930  14.540  1.00  0.00    -0.030 C 
HETATM   22  C   UNL     1     -45.163 -54.124  13.688  1.00  0.00     0.041 C 
ENDBRANCH  14  17
ENDBRANCH  12  13
ENDBRANCH   1  12
TORSDOF 5
ENDMDL
MODEL 5
REMARK VINA RESULT:      -6.0      1.804      2.768
REMARK  5 active torsions:
REMARK  status: ('A' for Active; 'I' for Inactive)
REMARK    1  A    between atoms: C_2  and  C_5 
REMARK    2  A    between atoms: C_8  and  C_9 
REMARK    3  A    between atoms: C_9  and  C_10 
REMARK    4  A    between atoms: C_10  and  N_11 
REMARK       I    between atoms: N_11  and  C_12 
REMARK    5  A    between atoms: C_12  and  C_14 
ROOT
HETATM    1  C   UNL     1     -43.226 -49.365  13.550  1.00  0.00     0.084 C 
ENDROOT
BRANCH   1   2
HETATM    2  C   UNL     1     -42.896 -48.734  12.226  1.00  0.00     0.052 A 
HETATM    3  S   UNL     1     -41.259 -48.538  11.739  1.00  0.00    -0.087 SA
HETATM    4  C   UNL     1     -41.790 -47.867  10.256  1.00  0.00     0.077 A 
HETATM    5  C   UNL     1     -43.174 -47.813  10.211  1.00  0.00     0.024 A 
HETATM    6  N   UNL     1     -43.792 -48.313  11.356  1.00  0.00    -0.356 N 
ATOM      7  HN  UNL     1     -44.801 -48.346  11.501  1.00  0.00     0.166 HD
BRANCH   5   8
HETATM    8  C   UNL     1     -44.020 -47.272   9.063  1.00  0.00    -0.008 C 
HETATM    9  C   UNL     1     -43.912 -45.735   8.988  1.00  0.00     0.021 C 
HETATM   10  C   UNL     1     -45.500 -47.655   9.267  1.00  0.00     0.021 C 
HETATM   11  C   UNL     1     -43.562 -47.845   7.706  1.00  0.00     0.021 C 
ENDBRANCH   5   8
ENDBRANCH   1   2
BRANCH   1  12
HETATM   12  C   UNL     1     -43.810 -50.762  13.350  1.00  0.00     0.129 C 
BRANCH  12  13
HETATM   13  N   UNL     1     -42.931 -51.854  13.747  1.00  0.00    -0.360 N 
HETATM   14  C   UNL     1     -43.062 -53.092  13.141  1.00  0.00     0.222 C 
HETATM   15  O   UNL     1     -43.870 -53.296  12.236  1.00  0.00    -0.273 OA
HETATM   16  H   UNL     1     -42.363 -51.768  14.583  1.00  0.00     0.162 HD
BRANCH  14  17
HETATM   17  C   UNL     1     -42.115 -54.190  13.616  1.00  0.00     0.081 C 
HETATM   18  C   UNL     1     -42.219 -54.402  15.134  1.00  0.00     0.018 C 
HETATM   19  C   UNL     1     -40.995 -54.992  15.838  1.00  0.00     0.027 C 
HETATM   20  C   UNL     1     -39.696 -54.873  15.112  1.00  0.00    -0.031 C 
HETATM   21  C   UNL     1     -39.572 -54.403  13.868  1.00  0.00    -0.030 C 
HETATM   22  C   UNL     1     -40.717 -53.926  13.039  1.00  0.00     0.041 C 
ENDBRANCH  14  17
ENDBRANCH  12  13
ENDBRANCH   1  12
TORSDOF 5
ENDMDL
MODEL 6
REMARK VINA RESULT:      -5.9      3.902      5.319
REMARK  5 active torsions:
REMARK  status: ('A' for Active; 'I' for Inactive)
REMARK    1  A    between atoms: C_2  and  C_5 
REMARK    2  A    between atoms: C_8  and  C_9 
REMARK    3  A    between atoms: C_9  and  C_10 
REMARK    4  A    between atoms: C_10  and  N_11 
REMARK       I    between atoms: N_11  and  C_12 
REMARK    5  A    between atoms: C_12  and  C_14 
ROOT
HETATM    1  C   UNL     1     -40.637 -54.231  14.013  1.00  0.00     0.084 C 
ENDROOT
BRANCH   1   2
HETATM    2  C   UNL     1     -40.388 -52.953  13.262  1.00  0.00     0.052 A 
HETATM    3  S   UNL     1     -41.471 -52.443  12.029  1.00  0.00    -0.087 SA
HETATM    4  C   UNL     1     -40.531 -51.031  11.800  1.00  0.00     0.077 A 
HETATM    5  C   UNL     1     -39.442 -51.024  12.656  1.00  0.00     0.024 A 
HETATM    6  N   UNL     1     -39.374 -52.141  13.487  1.00  0.00    -0.356 N 
ATOM      7  HN  UNL     1     -38.640 -52.308  14.174  1.00  0.00     0.166 HD
BRANCH   5   8
HETATM    8  C   UNL     1     -38.369 -49.942  12.746  1.00  0.00    -0.008 C 
HETATM    9  C   UNL     1     -37.498 -49.938  11.473  1.00  0.00     0.021 C 
HETATM   10  C   UNL     1     -37.461 -50.195  13.966  1.00  0.00     0.021 C 
HETATM   11  C   UNL     1     -38.994 -48.540  12.896  1.00  0.00     0.021 C 
ENDBRANCH   5   8
ENDBRANCH   1   2
BRANCH   1  12
HETATM   12  C   UNL     1     -41.538 -53.980  15.221  1.00  0.00     0.129 C 
BRANCH  12  13
HETATM   13  N   UNL     1     -42.869 -53.484  14.896  1.00  0.00    -0.360 N 
HETATM   14  C   UNL     1     -43.914 -54.379  14.744  1.00  0.00     0.222 C 
HETATM   15  O   UNL     1     -43.771 -55.588  14.920  1.00  0.00    -0.273 OA
HETATM   16  H   UNL     1     -42.992 -52.522  14.598  1.00  0.00     0.162 HD
BRANCH  14  17
HETATM   17  C   UNL     1     -45.276 -53.788  14.392  1.00  0.00     0.081 C 
HETATM   18  C   UNL     1     -45.268 -53.154  12.993  1.00  0.00     0.018 C 
HETATM   19  C   UNL     1     -46.291 -52.048  12.727  1.00  0.00     0.027 C 
HETATM   20  C   UNL     1     -46.863 -51.375  13.930  1.00  0.00    -0.031 C 
HETATM   21  C   UNL     1     -46.628 -51.759  15.187  1.00  0.00    -0.030 C 
HETATM   22  C   UNL     1     -45.753 -52.910  15.558  1.00  0.00     0.041 C 
ENDBRANCH  14  17
ENDBRANCH  12  13
ENDBRANCH   1  12
TORSDOF 5
ENDMDL
MODEL 7
REMARK VINA RESULT:      -5.9      3.829      5.544
REMARK  5 active torsions:
REMARK  status: ('A' for Active; 'I' for Inactive)
REMARK    1  A    between atoms: C_2  and  C_5 
REMARK    2  A    between atoms: C_8  and  C_9 
REMARK    3  A    between atoms: C_9  and  C_10 
REMARK    4  A    between atoms: C_10  and  N_11 
REMARK       I    between atoms: N_11  and  C_12 
REMARK    5  A    between atoms: C_12  and  C_14 
ROOT
HETATM    1  C   UNL     1     -41.496 -53.586  12.826  1.00  0.00     0.084 C 
ENDROOT
BRANCH   1   2
HETATM    2  C   UNL     1     -40.360 -52.656  13.148  1.00  0.00     0.052 A 
HETATM    3  S   UNL     1     -39.287 -53.008  14.444  1.00  0.00    -0.087 SA
HETATM    4  C   UNL     1     -38.391 -51.598  14.073  1.00  0.00     0.077 A 
HETATM    5  C   UNL     1     -38.955 -50.928  13.000  1.00  0.00     0.024 A 
HETATM    6  N   UNL     1     -40.091 -51.549  12.485  1.00  0.00    -0.356 N 
ATOM      7  HN  UNL     1     -40.639 -51.196  11.701  1.00  0.00     0.166 HD
BRANCH   5   8
HETATM    8  C   UNL     1     -38.452 -49.627  12.381  1.00  0.00    -0.008 C 
HETATM    9  C   UNL     1     -39.624 -48.823  11.783  1.00  0.00     0.021 C 
HETATM   10  C   UNL     1     -37.437 -49.930  11.260  1.00  0.00     0.021 C 
HETATM   11  C   UNL     1     -37.754 -48.736  13.430  1.00  0.00     0.021 C 
ENDBRANCH   5   8
ENDBRANCH   1   2
BRANCH   1  12
HETATM   12  C   UNL     1     -42.653 -52.821  12.185  1.00  0.00     0.129 C 
BRANCH  12  13
HETATM   13  N   UNL     1     -43.440 -52.017  13.112  1.00  0.00    -0.360 N 
HETATM   14  C   UNL     1     -44.815 -52.168  13.150  1.00  0.00     0.222 C 
HETATM   15  O   UNL     1     -45.402 -52.999  12.458  1.00  0.00    -0.273 OA
HETATM   16  H   UNL     1     -43.014 -51.226  13.583  1.00  0.00     0.162 HD
BRANCH  14  17
HETATM   17  C   UNL     1     -45.574 -51.285  14.136  1.00  0.00     0.081 C 
HETATM   18  C   UNL     1     -44.660 -50.801  15.272  1.00  0.00     0.018 C 
HETATM   19  C   UNL     1     -45.335 -50.434  16.596  1.00  0.00     0.027 C 
HETATM   20  C   UNL     1     -46.697 -51.001  16.822  1.00  0.00    -0.031 C 
HETATM   21  C   UNL     1     -47.384 -51.689  15.906  1.00  0.00    -0.030 C 
HETATM   22  C   UNL     1     -46.878 -51.990  14.535  1.00  0.00     0.041 C 
ENDBRANCH  14  17
ENDBRANCH  12  13
ENDBRANCH   1  12
TORSDOF 5
ENDMDL
MODEL 8
REMARK VINA RESULT:      -5.8      1.900      2.848
REMARK  5 active torsions:
REMARK  status: ('A' for Active; 'I' for Inactive)
REMARK    1  A    between atoms: C_2  and  C_5 
REMARK    2  A    between atoms: C_8  and  C_9 
REMARK    3  A    between atoms: C_9  and  C_10 
REMARK    4  A    between atoms: C_10  and  N_11 
REMARK       I    between atoms: N_11  and  C_12 
REMARK    5  A    between atoms: C_12  and  C_14 
ROOT
HETATM    1  C   UNL     1     -40.436 -51.721  12.710  1.00  0.00     0.084 C 
ENDROOT
BRANCH   1   2
HETATM    2  C   UNL     1     -40.308 -50.282  12.296  1.00  0.00     0.052 A 
HETATM    3  S   UNL     1     -38.780 -49.497  12.336  1.00  0.00    -0.087 SA
HETATM    4  C   UNL     1     -39.504 -48.074  11.719  1.00  0.00     0.077 A 
HETATM    5  C   UNL     1     -40.864 -48.261  11.528  1.00  0.00     0.024 A 
HETATM    6  N   UNL     1     -41.308 -49.537  11.870  1.00  0.00    -0.356 N 
ATOM      7  HN  UNL     1     -42.276 -49.850  11.801  1.00  0.00     0.166 HD
BRANCH   5   8
HETATM    8  C   UNL     1     -41.853 -47.225  11.002  1.00  0.00    -0.008 C 
HETATM    9  C   UNL     1     -42.613 -47.775   9.777  1.00  0.00     0.021 C 
HETATM   10  C   UNL     1     -41.107 -45.941  10.586  1.00  0.00     0.021 C 
HETATM   11  C   UNL     1     -42.896 -46.846  12.073  1.00  0.00     0.021 C 
ENDBRANCH   5   8
ENDBRANCH   1   2
BRANCH   1  12
HETATM   12  C   UNL     1     -41.256 -52.505  11.686  1.00  0.00     0.129 C 
BRANCH  12  13
HETATM   13  N   UNL     1     -42.697 -52.471  11.903  1.00  0.00    -0.360 N 
HETATM   14  C   UNL     1     -43.283 -53.400  12.744  1.00  0.00     0.222 C 
HETATM   15  O   UNL     1     -42.622 -54.235  13.360  1.00  0.00    -0.273 OA
HETATM   16  H   UNL     1     -43.285 -51.902  11.303  1.00  0.00     0.162 HD
BRANCH  14  17
HETATM   17  C   UNL     1     -44.797 -53.310  12.914  1.00  0.00     0.081 C 
HETATM   18  C   UNL     1     -45.239 -51.877  13.243  1.00  0.00     0.018 C 
HETATM   19  C   UNL     1     -46.560 -51.715  14.000  1.00  0.00     0.027 C 
HETATM   20  C   UNL     1     -47.047 -52.916  14.740  1.00  0.00    -0.031 C 
HETATM   21  C   UNL     1     -46.472 -54.120  14.678  1.00  0.00    -0.030 C 
HETATM   22  C   UNL     1     -45.259 -54.424  13.864  1.00  0.00     0.041 C 
ENDBRANCH  14  17
ENDBRANCH  12  13
ENDBRANCH   1  12
TORSDOF 5
ENDMDL
MODEL 9
REMARK VINA RESULT:      -5.7      2.913      4.395
REMARK  5 active torsions:
REMARK  status: ('A' for Active; 'I' for Inactive)
REMARK    1  A    between atoms: C_2  and  C_5 
REMARK    2  A    between atoms: C_8  and  C_9 
REMARK    3  A    between atoms: C_9  and  C_10 
REMARK    4  A    between atoms: C_10  and  N_11 
REMARK       I    between atoms: N_11  and  C_12 
REMARK    5  A    between atoms: C_12  and  C_14 
ROOT
HETATM    1  C   UNL     1     -41.818 -49.545  12.089  1.00  0.00     0.084 C 
ENDROOT
BRANCH   1   2
HETATM    2  C   UNL     1     -42.824 -50.057  13.082  1.00  0.00     0.052 A 
HETATM    3  S   UNL     1     -42.623 -49.752  14.761  1.00  0.00    -0.087 SA
HETATM    4  C   UNL     1     -44.096 -50.565  15.076  1.00  0.00     0.077 A 
HETATM    5  C   UNL     1     -44.655 -51.037  13.899  1.00  0.00     0.024 A 
HETATM    6  N   UNL     1     -43.906 -50.739  12.763  1.00  0.00    -0.356 N 
ATOM      7  HN  UNL     1     -44.160 -51.012  11.814  1.00  0.00     0.166 HD
BRANCH   5   8
HETATM    8  C   UNL     1     -45.959 -51.820  13.768  1.00  0.00    -0.008 C 
HETATM    9  C   UNL     1     -46.616 -51.551  12.399  1.00  0.00     0.021 C 
HETATM   10  C   UNL     1     -46.942 -51.403  14.880  1.00  0.00     0.021 C 
HETATM   11  C   UNL     1     -45.719 -53.339  13.886  1.00  0.00     0.021 C 
ENDBRANCH   5   8
ENDBRANCH   1   2
BRANCH   1  12
HETATM   12  C   UNL     1     -40.914 -50.678  11.605  1.00  0.00     0.129 C 
BRANCH  12  13
HETATM   13  N   UNL     1     -41.159 -51.968  12.239  1.00  0.00    -0.360 N 
HETATM   14  C   UNL     1     -40.167 -52.550  13.009  1.00  0.00     0.222 C 
HETATM   15  O   UNL     1     -39.091 -51.994  13.220  1.00  0.00    -0.273 OA
HETATM   16  H   UNL     1     -41.966 -52.519  11.968  1.00  0.00     0.162 HD
BRANCH  14  17
HETATM   17  C   UNL     1     -40.492 -53.906  13.631  1.00  0.00     0.081 C 
HETATM   18  C   UNL     1     -41.938 -53.953  14.146  1.00  0.00     0.018 C 
HETATM   19  C   UNL     1     -42.240 -54.944  15.272  1.00  0.00     0.027 C 
HETATM   20  C   UNL     1     -41.069 -55.417  16.068  1.00  0.00    -0.031 C 
HETATM   21  C   UNL     1     -39.799 -55.123  15.778  1.00  0.00    -0.030 C 
HETATM   22  C   UNL     1     -39.381 -54.277  14.623  1.00  0.00     0.041 C 
ENDBRANCH  14  17
ENDBRANCH  12  13
ENDBRANCH   1  12
TORSDOF 5
ENDMDL
