MODEL 1
REMARK VINA RESULT:      -6.0      0.000      0.000
REMARK  2 active torsions:
REMARK  status: ('A' for Active; 'I' for Inactive)
REMARK       I    between atoms: C_2  and  N_3 
REMARK       I    between atoms: C_2  and  N_9 
REMARK    1  A    between atoms: N_3  and  C_4 
REMARK    2  A    between atoms: N_9  and  C_10 
ROOT
HETATM    1  O   UNL     1     -39.793 -53.457  13.026  1.00  0.00    -0.247 OA
HETATM    2  C   UNL     1     -40.514 -52.540  12.637  1.00  0.00     0.322 C 
HETATM    3  N   UNL     1     -41.870 -52.609  12.615  1.00  0.00    -0.338 N 
HETATM    4  N   UNL     1     -39.941 -51.369  12.242  1.00  0.00    -0.294 N 
HETATM    5  H   UNL     1     -42.351 -51.875  12.107  1.00  0.00     0.164 HD
HETATM    6  H   UNL     1     -38.938 -51.376  12.342  1.00  0.00     0.172 HD
ENDROOT
BRANCH   4   7
HETATM    7  C   UNL     1     -40.553 -50.214  11.745  1.00  0.00     0.123 A 
HETATM    8  C   UNL     1     -41.094 -49.316  12.653  1.00  0.00     0.051 A 
HETATM    9  C   UNL     1     -41.693 -48.153  12.175  1.00  0.00     0.022 A 
HETATM   10  C   UNL     1     -41.719 -47.946  10.811  1.00  0.00     0.107 A 
HETATM   11  N   UNL     1     -41.190 -48.825   9.942  1.00  0.00    -0.310 N 
HETATM   12  N   UNL     1     -40.603 -49.966  10.419  1.00  0.00    -0.286 N 
ATOM     13  HN  UNL     1     -41.225 -48.644   8.939  1.00  0.00     0.186 HD
ATOM     14  HN  UNL     1     -40.200 -50.636   9.765  1.00  0.00     0.188 HD
ENDBRANCH   4   7
BRANCH   3  15
HETATM   15  C   UNL     1     -42.614 -53.787  12.991  1.00  0.00     0.086 C 
HETATM   16  C   UNL     1     -44.055 -53.781  12.474  1.00  0.00     0.025 C 
HETATM   17  C   UNL     1     -44.880 -54.519  13.533  1.00  0.00     0.002 C 
HETATM   18  C   UNL     1     -43.911 -54.889  14.651  1.00  0.00     0.002 C 
HETATM   19  C   UNL     1     -42.770 -53.899  14.502  1.00  0.00     0.025 C 
ENDBRANCH   3  15
TORSDOF 2
ENDMDL
MODEL 2
REMARK VINA RESULT:      -5.9      2.100      2.582
REMARK  2 active torsions:
REMARK  status: ('A' for Active; 'I' for Inactive)
REMARK       I    between atoms: C_2  and  N_3 
REMARK       I    between atoms: C_2  and  N_9 
REMARK    1  A    between atoms: N_3  and  C_4 
REMARK    2  A    between atoms: N_9  and  C_10 
ROOT
HETATM    1  O   UNL     1     -42.498 -54.399  13.573  1.00  0.00    -0.247 OA
HETATM    2  C   UNL     1     -42.253 -53.252  13.206  1.00  0.00     0.322 C 
HETATM    3  N   UNL     1     -43.156 -52.239  13.255  1.00  0.00    -0.338 N 
HETATM    4  N   UNL     1     -41.000 -52.951  12.764  1.00  0.00    -0.294 N 
HETATM    5  H   UNL     1     -42.908 -51.389  12.760  1.00  0.00     0.164 HD
HETATM    6  H   UNL     1     -40.373 -53.739  12.813  1.00  0.00     0.172 HD
ENDROOT
BRANCH   4   7
HETATM    7  C   UNL     1     -40.505 -51.736  12.280  1.00  0.00     0.123 A 
HETATM    8  C   UNL     1     -39.671 -50.994  13.103  1.00  0.00     0.051 A 
HETATM    9  C   UNL     1     -39.157 -49.789  12.631  1.00  0.00     0.022 A 
HETATM   10  C   UNL     1     -39.503 -49.387  11.358  1.00  0.00     0.107 A 
HETATM   11  N   UNL     1     -40.314 -50.117  10.570  1.00  0.00    -0.310 N 
HETATM   12  N   UNL     1     -40.815 -51.300  11.041  1.00  0.00    -0.286 N 
ATOM     13  HN  UNL     1     -40.552 -49.792   9.633  1.00  0.00     0.186 HD
ATOM     14  HN  UNL     1     -41.430 -51.858  10.449  1.00  0.00     0.188 HD
ENDBRANCH   4   7
BRANCH   3  15
HETATM   15  C   UNL     1     -44.522 -52.410  13.687  1.00  0.00     0.086 C 
HETATM   16  C   UNL     1     -45.507 -52.566  12.526  1.00  0.00     0.025 C 
HETATM   17  C   UNL     1     -46.815 -51.923  12.999  1.00  0.00     0.002 C 
HETATM   18  C   UNL     1     -46.541 -51.372  14.394  1.00  0.00     0.002 C 
HETATM   19  C   UNL     1     -45.035 -51.186  14.436  1.00  0.00     0.025 C 
ENDBRANCH   3  15
TORSDOF 2
ENDMDL
MODEL 3
REMARK VINA RESULT:      -5.8      2.759      4.050
REMARK  2 active torsions:
REMARK  status: ('A' for Active; 'I' for Inactive)
REMARK       I    between atoms: C_2  and  N_3 
REMARK       I    between atoms: C_2  and  N_9 
REMARK    1  A    between atoms: N_3  and  C_4 
REMARK    2  A    between atoms: N_9  and  C_10 
ROOT
HETATM    1  O   UNL     1     -40.034 -48.298  11.472  1.00  0.00    -0.247 OA
HETATM    2  C   UNL     1     -41.156 -48.526  11.022  1.00  0.00     0.322 C 
HETATM    3  N   UNL     1     -41.937 -49.554  11.442  1.00  0.00    -0.338 N 
HETATM    4  N   UNL     1     -41.676 -47.688  10.084  1.00  0.00    -0.294 N 
HETATM    5  H   UNL     1     -42.756 -49.758  10.879  1.00  0.00     0.164 HD
HETATM    6  H   UNL     1     -41.062 -46.918   9.868  1.00  0.00     0.172 HD
ENDROOT
BRANCH   4   7
HETATM    7  C   UNL     1     -42.906 -47.763   9.421  1.00  0.00     0.123 A 
HETATM    8  C   UNL     1     -44.056 -47.464  10.137  1.00  0.00     0.051 A 
HETATM    9  C   UNL     1     -45.286 -47.519   9.488  1.00  0.00     0.022 A 
HETATM   10  C   UNL     1     -45.305 -47.870   8.154  1.00  0.00     0.107 A 
HETATM   11  N   UNL     1     -44.182 -48.157   7.472  1.00  0.00    -0.310 N 
HETATM   12  N   UNL     1     -42.976 -48.101   8.116  1.00  0.00    -0.286 N 
ATOM     13  HN  UNL     1     -44.228 -48.414   6.486  1.00  0.00     0.186 HD
ATOM     14  HN  UNL     1     -42.121 -48.318   7.605  1.00  0.00     0.188 HD
ENDBRANCH   4   7
BRANCH   3  15
HETATM   15  C   UNL     1     -41.515 -50.529  12.419  1.00  0.00     0.086 C 
HETATM   16  C   UNL     1     -41.151 -51.883  11.802  1.00  0.00     0.025 C 
HETATM   17  C   UNL     1     -41.539 -52.934  12.847  1.00  0.00     0.002 C 
HETATM   18  C   UNL     1     -42.158 -52.171  14.013  1.00  0.00     0.002 C 
HETATM   19  C   UNL     1     -42.631 -50.865  13.400  1.00  0.00     0.025 C 
ENDBRANCH   3  15
TORSDOF 2
ENDMDL
MODEL 4
REMARK VINA RESULT:      -5.7      4.021      6.987
REMARK  2 active torsions:
REMARK  status: ('A' for Active; 'I' for Inactive)
REMARK       I    between atoms: C_2  and  N_3 
REMARK       I    between atoms: C_2  and  N_9 
REMARK    1  A    between atoms: N_3  and  C_4 
REMARK    2  A    between atoms: N_9  and  C_10 
ROOT
HETATM    1  O   UNL     1     -42.564 -48.028   9.697  1.00  0.00    -0.247 OA
HETATM    2  C   UNL     1     -41.511 -48.178  10.315  1.00  0.00     0.322 C 
HETATM    3  N   UNL     1     -40.732 -47.146  10.732  1.00  0.00    -0.338 N 
HETATM    4  N   UNL     1     -41.110 -49.437  10.645  1.00  0.00    -0.294 N 
HETATM    5  H   UNL     1     -39.805 -47.387  11.064  1.00  0.00     0.164 HD
HETATM    6  H   UNL     1     -41.769 -50.142  10.353  1.00  0.00     0.172 HD
ENDROOT
BRANCH   4   7
HETATM    7  C   UNL     1     -39.953 -49.845  11.315  1.00  0.00     0.123 A 
HETATM    8  C   UNL     1     -40.041 -50.113  12.673  1.00  0.00     0.051 A 
HETATM    9  C   UNL     1     -38.900 -50.535  13.351  1.00  0.00     0.022 A 
HETATM   10  C   UNL     1     -37.729 -50.669  12.637  1.00  0.00     0.107 A 
HETATM   11  N   UNL     1     -37.657 -50.406  11.320  1.00  0.00    -0.310 N 
HETATM   12  N   UNL     1     -38.782 -49.992  10.660  1.00  0.00    -0.286 N 
ATOM     13  HN  UNL     1     -36.776 -50.515  10.819  1.00  0.00     0.186 HD
ATOM     14  HN  UNL     1     -38.735 -49.790   9.661  1.00  0.00     0.188 HD
ENDBRANCH   4   7
BRANCH   3  15
HETATM   15  C   UNL     1     -41.022 -45.762  10.445  1.00  0.00     0.086 C 
HETATM   16  C   UNL     1     -39.785 -44.862  10.505  1.00  0.00     0.025 C 
HETATM   17  C   UNL     1     -40.283 -43.503  11.007  1.00  0.00     0.002 C 
HETATM   18  C   UNL     1     -41.777 -43.664  11.270  1.00  0.00     0.002 C 
HETATM   19  C   UNL     1     -41.963 -45.156  11.479  1.00  0.00     0.025 C 
ENDBRANCH   3  15
TORSDOF 2
ENDMDL
MODEL 5
REMARK VINA RESULT:      -5.7      2.884      4.068
REMARK  2 active torsions:
REMARK  status: ('A' for Active; 'I' for Inactive)
REMARK       I    between atoms: C_2  and  N_3 
REMARK       I    between atoms: C_2  and  N_9 
REMARK    1  A    between atoms: N_3  and  C_4 
REMARK    2  A    between atoms: N_9  and  C_10 
ROOT
HETATM    1  O   UNL     1     -45.328 -54.818  12.928  1.00  0.00    -0.247 OA
HETATM    2  C   UNL     1     -44.443 -53.991  13.137  1.00  0.00     0.322 C 
HETATM    3  N   UNL     1     -44.503 -53.061  14.125  1.00  0.00    -0.338 N 
HETATM    4  N   UNL     1     -43.315 -54.021  12.374  1.00  0.00    -0.294 N 
HETATM    5  H   UNL     1     -43.812 -52.319  14.089  1.00  0.00     0.164 HD
HETATM    6  H   UNL     1     -43.321 -54.774  11.704  1.00  0.00     0.172 HD
ENDROOT
BRANCH   4   7
HETATM    7  C   UNL     1     -42.202 -53.175  12.415  1.00  0.00     0.123 A 
HETATM    8  C   UNL     1     -41.372 -53.236  13.524  1.00  0.00     0.051 A 
HETATM    9  C   UNL     1     -40.251 -52.411  13.572  1.00  0.00     0.022 A 
HETATM   10  C   UNL     1     -40.016 -51.567  12.507  1.00  0.00     0.107 A 
HETATM   11  N   UNL     1     -40.829 -51.519  11.437  1.00  0.00    -0.310 N 
HETATM   12  N   UNL     1     -41.929 -52.332  11.397  1.00  0.00    -0.286 N 
ATOM     13  HN  UNL     1     -40.629 -50.884  10.664  1.00  0.00     0.186 HD
ATOM     14  HN  UNL     1     -42.550 -52.300  10.588  1.00  0.00     0.188 HD
ENDBRANCH   4   7
BRANCH   3  15
HETATM   15  C   UNL     1     -45.638 -52.901  15.001  1.00  0.00     0.086 C 
HETATM   16  C   UNL     1     -46.620 -51.827  14.526  1.00  0.00     0.025 C 
HETATM   17  C   UNL     1     -47.208 -51.208  15.799  1.00  0.00     0.002 C 
HETATM   18  C   UNL     1     -46.520 -51.901  16.970  1.00  0.00     0.002 C 
HETATM   19  C   UNL     1     -45.219 -52.423  16.386  1.00  0.00     0.025 C 
ENDBRANCH   3  15
TORSDOF 2
ENDMDL
MODEL 6
REMARK VINA RESULT:      -5.4      1.818      5.777
REMARK  2 active torsions:
REMARK  status: ('A' for Active; 'I' for Inactive)
REMARK       I    between atoms: C_2  and  N_3 
REMARK       I    between atoms: C_2  and  N_9 
REMARK    1  A    between atoms: N_3  and  C_4 
REMARK    2  A    between atoms: N_9  and  C_10 
ROOT
HETATM    1  O   UNL     1     -39.250 -49.704  11.059  1.00  0.00    -0.247 OA
HETATM    2  C   UNL     1     -40.375 -50.092  11.366  1.00  0.00     0.322 C 
HETATM    3  N   UNL     1     -41.504 -49.372  11.140  1.00  0.00    -0.338 N 
HETATM    4  N   UNL     1     -40.522 -51.326  11.923  1.00  0.00    -0.294 N 
HETATM    5  H   UNL     1     -42.348 -49.702  11.597  1.00  0.00     0.164 HD
HETATM    6  H   UNL     1     -39.647 -51.821  12.004  1.00  0.00     0.172 HD
ENDROOT
BRANCH   4   7
HETATM    7  C   UNL     1     -41.687 -51.959  12.369  1.00  0.00     0.123 A 
HETATM    8  C   UNL     1     -42.023 -51.846  13.710  1.00  0.00     0.051 A 
HETATM    9  C   UNL     1     -43.188 -52.457  14.165  1.00  0.00     0.022 A 
HETATM   10  C   UNL     1     -43.959 -53.151  13.256  1.00  0.00     0.107 A 
HETATM   11  N   UNL     1     -43.621 -53.252  11.958  1.00  0.00    -0.310 N 
HETATM   12  N   UNL     1     -42.475 -52.649  11.518  1.00  0.00    -0.286 N 
ATOM     13  HN  UNL     1     -44.212 -53.772  11.310  1.00  0.00     0.186 HD
ATOM     14  HN  UNL     1     -42.213 -52.722  10.535  1.00  0.00     0.188 HD
ENDBRANCH   4   7
BRANCH   3  15
HETATM   15  C   UNL     1     -41.504 -48.046  10.571  1.00  0.00     0.086 C 
HETATM   16  C   UNL     1     -41.482 -46.936  11.626  1.00  0.00     0.025 C 
HETATM   17  C   UNL     1     -42.281 -45.776  11.024  1.00  0.00     0.002 C 
HETATM   18  C   UNL     1     -42.782 -46.257   9.667  1.00  0.00     0.002 C 
HETATM   19  C   UNL     1     -42.776 -47.771   9.780  1.00  0.00     0.025 C 
ENDBRANCH   3  15
TORSDOF 2
ENDMDL
MODEL 7
REMARK VINA RESULT:      -5.2      2.902      6.250
REMARK  2 active torsions:
REMARK  status: ('A' for Active; 'I' for Inactive)
REMARK       I    between atoms: C_2  and  N_3 
REMARK       I    between atoms: C_2  and  N_9 
REMARK    1  A    between atoms: N_3  and  C_4 
REMARK    2  A    between atoms: N_9  and  C_10 
ROOT
HETATM    1  O   UNL     1     -42.326 -47.724  13.225  1.00  0.00    -0.247 OA
HETATM    2  C   UNL     1     -42.916 -48.705  12.778  1.00  0.00     0.322 C 
HETATM    3  N   UNL     1     -43.586 -48.704  11.596  1.00  0.00    -0.338 N 
HETATM    4  N   UNL     1     -42.871 -49.877  13.469  1.00  0.00    -0.294 N 
HETATM    5  H   UNL     1     -44.185 -49.503  11.417  1.00  0.00     0.164 HD
HETATM    6  H   UNL     1     -42.308 -49.813  14.303  1.00  0.00     0.172 HD
ENDROOT
BRANCH   4   7
HETATM    7  C   UNL     1     -43.479 -51.101  13.170  1.00  0.00     0.123 A 
HETATM    8  C   UNL     1     -44.689 -51.399  13.779  1.00  0.00     0.051 A 
HETATM    9  C   UNL     1     -45.314 -52.607  13.479  1.00  0.00     0.022 A 
HETATM   10  C   UNL     1     -44.697 -53.456  12.584  1.00  0.00     0.107 A 
HETATM   11  N   UNL     1     -43.524 -53.154  12.001  1.00  0.00    -0.310 N 
HETATM   12  N   UNL     1     -42.915 -51.966  12.300  1.00  0.00    -0.286 N 
ATOM     13  HN  UNL     1     -43.092 -53.803  11.343  1.00  0.00     0.186 HD
ATOM     14  HN  UNL     1     -42.025 -51.731  11.861  1.00  0.00     0.188 HD
ENDBRANCH   4   7
BRANCH   3  15
HETATM   15  C   UNL     1     -43.731 -47.535  10.763  1.00  0.00     0.086 C 
HETATM   16  C   UNL     1     -45.022 -47.537   9.939  1.00  0.00     0.025 C 
HETATM   17  C   UNL     1     -44.681 -46.819   8.629  1.00  0.00     0.002 C 
HETATM   18  C   UNL     1     -43.199 -46.466   8.707  1.00  0.00     0.002 C 
HETATM   19  C   UNL     1     -42.630 -47.450   9.713  1.00  0.00     0.025 C 
ENDBRANCH   3  15
TORSDOF 2
ENDMDL
MODEL 8
REMARK VINA RESULT:      -5.1      2.345      5.538
REMARK  2 active torsions:
REMARK  status: ('A' for Active; 'I' for Inactive)
REMARK       I    between atoms: C_2  and  N_3 
REMARK       I    between atoms: C_2  and  N_9 
REMARK    1  A    between atoms: N_3  and  C_4 
REMARK    2  A    between atoms: N_9  and  C_10 
ROOT
HETATM    1  O   UNL     1     -40.748 -52.563  12.022  1.00  0.00    -0.247 OA
HETATM    2  C   UNL     1     -41.842 -52.029  12.195  1.00  0.00     0.322 C 
HETATM    3  N   UNL     1     -42.076 -50.709  11.974  1.00  0.00    -0.338 N 
HETATM    4  N   UNL     1     -42.898 -52.793  12.588  1.00  0.00    -0.294 N 
HETATM    5  H   UNL     1     -42.954 -50.343  12.323  1.00  0.00     0.164 HD
HETATM    6  H   UNL     1     -42.658 -53.769  12.673  1.00  0.00     0.172 HD
ENDROOT
BRANCH   4   7
HETATM    7  C   UNL     1     -44.212 -52.404  12.866  1.00  0.00     0.123 A 
HETATM    8  C   UNL     1     -44.476 -51.819  14.095  1.00  0.00     0.051 A 
HETATM    9  C   UNL     1     -45.777 -51.411  14.381  1.00  0.00     0.022 A 
HETATM   10  C   UNL     1     -46.748 -51.610  13.422  1.00  0.00     0.107 A 
HETATM   11  N   UNL     1     -46.478 -52.179  12.234  1.00  0.00    -0.310 N 
HETATM   12  N   UNL     1     -45.197 -52.577  11.960  1.00  0.00    -0.286 N 
ATOM     13  HN  UNL     1     -47.218 -52.313  11.546  1.00  0.00     0.186 HD
ATOM     14  HN  UNL     1     -44.986 -53.009  11.061  1.00  0.00     0.188 HD
ENDBRANCH   4   7
BRANCH   3  15
HETATM   15  C   UNL     1     -41.053 -49.776  11.569  1.00  0.00     0.086 C 
HETATM   16  C   UNL     1     -40.149 -49.332  12.724  1.00  0.00     0.025 C 
HETATM   17  C   UNL     1     -39.755 -47.885  12.412  1.00  0.00     0.002 C 
HETATM   18  C   UNL     1     -40.474 -47.514  11.119  1.00  0.00     0.002 C 
HETATM   19  C   UNL     1     -41.650 -48.472  11.054  1.00  0.00     0.025 C 
ENDBRANCH   3  15
TORSDOF 2
ENDMDL
MODEL 9
REMARK VINA RESULT:      -5.1      2.909      5.940
REMARK  2 active torsions:
REMARK  status: ('A' for Active; 'I' for Inactive)
REMARK       I    between atoms: C_2  and  N_3 
REMARK       I    between atoms: C_2  and  N_9 
REMARK    1  A    between atoms: N_3  and  C_4 
REMARK    2  A    between atoms: N_9  and  C_10 
ROOT
HETATM    1  O   UNL     1     -39.399 -49.126  10.971  1.00  0.00    -0.247 OA
HETATM    2  C   UNL     1     -39.684 -50.070  11.705  1.00  0.00     0.322 C 
HETATM    3  N   UNL     1     -39.070 -50.307  12.893  1.00  0.00    -0.338 N 
HETATM    4  N   UNL     1     -40.695 -50.908  11.346  1.00  0.00    -0.294 N 
HETATM    5  H   UNL     1     -39.252 -51.208  13.323  1.00  0.00     0.164 HD
HETATM    6  H   UNL     1     -41.138 -50.631  10.483  1.00  0.00     0.172 HD
ENDROOT
BRANCH   4   7
HETATM    7  C   UNL     1     -41.171 -52.046  12.004  1.00  0.00     0.123 A 
HETATM    8  C   UNL     1     -42.138 -51.880  12.984  1.00  0.00     0.051 A 
HETATM    9  C   UNL     1     -42.634 -53.006  13.637  1.00  0.00     0.022 A 
HETATM   10  C   UNL     1     -42.138 -54.241  13.277  1.00  0.00     0.107 A 
HETATM   11  N   UNL     1     -41.199 -54.387  12.324  1.00  0.00    -0.310 N 
HETATM   12  N   UNL     1     -40.717 -53.277  11.687  1.00  0.00    -0.286 N 
ATOM     13  HN  UNL     1     -40.851 -55.314  12.080  1.00  0.00     0.186 HD
ATOM     14  HN  UNL     1     -40.005 -53.381  10.963  1.00  0.00     0.188 HD
ENDBRANCH   4   7
BRANCH   3  15
HETATM   15  C   UNL     1     -37.975 -49.514  13.397  1.00  0.00     0.086 C 
HETATM   16  C   UNL     1     -37.260 -50.159  14.588  1.00  0.00     0.025 C 
HETATM   17  C   UNL     1     -36.789 -48.999  15.470  1.00  0.00     0.002 C 
HETATM   18  C   UNL     1     -37.282 -47.722  14.798  1.00  0.00     0.002 C 
HETATM   19  C   UNL     1     -38.452 -48.174  13.943  1.00  0.00     0.025 C 
ENDBRANCH   3  15
TORSDOF 2
ENDMDL
