MODEL 1
REMARK VINA RESULT:      -6.4      0.000      0.000
REMARK  6 active torsions:
REMARK  status: ('A' for Active; 'I' for Inactive)
REMARK    1  A    between atoms: C_5  and  N_6 
REMARK       I    between atoms: N_6  and  C_7 
REMARK       I    between atoms: C_7  and  N_9 
REMARK    2  A    between atoms: N_9  and  C_10 
REMARK    3  A    between atoms: C_10  and  C_11 
REMARK    4  A    between atoms: C_11  and  C_12 
REMARK    5  A    between atoms: C_12  and  C_13 
REMARK    6  A    between atoms: C_13  and  O_14 
ROOT
HETATM    1  N   UNL     1     -40.519 -50.972  11.819  1.00  0.00    -0.289 N 
HETATM    2  C   UNL     1     -41.174 -52.162  11.940  1.00  0.00     0.322 C 
HETATM    3  O   UNL     1     -40.546 -53.216  12.019  1.00  0.00    -0.247 OA
HETATM    4  N   UNL     1     -42.534 -52.103  12.027  1.00  0.00    -0.342 N 
HETATM    5  H   UNL     1     -39.510 -50.996  11.871  1.00  0.00     0.172 HD
HETATM    6  H   UNL     1     -42.948 -51.191  11.840  1.00  0.00     0.164 HD
ENDROOT
BRANCH   1   7
HETATM    7  C   UNL     1     -41.143 -49.762  11.706  1.00  0.00     0.153 A 
HETATM    8  N   UNL     1     -41.619 -49.227  10.610  1.00  0.00    -0.339 N 
HETATM    9  C   UNL     1     -42.214 -48.018  10.897  1.00  0.00     0.020 A 
ATOM     10  HN  UNL     1     -41.559 -49.644   9.681  1.00  0.00     0.168 HD
HETATM   11  C   UNL     1     -42.773 -47.234   9.765  1.00  0.00     0.069 C 
HETATM   12  C   UNL     1     -42.230 -47.690  12.243  1.00  0.00     0.004 A 
HETATM   13  S   UNL     1     -41.361 -48.878  13.139  1.00  0.00    -0.057 SA
HETATM   14  C   UNL     1     -42.860 -46.522  12.911  1.00  0.00     0.058 C 
ENDBRANCH   1   7
BRANCH   4  15
HETATM   15  C   UNL     1     -43.394 -53.236  12.248  1.00  0.00     0.134 C 
BRANCH  15  16
HETATM   16  C   UNL     1     -44.490 -52.956  13.303  1.00  0.00    -0.022 C 
HETATM   17  C   UNL     1     -45.845 -52.617  12.632  1.00  0.00     0.011 C 
HETATM   18  C   UNL     1     -46.515 -51.547  13.497  1.00  0.00     0.001 C 
HETATM   19  C   UNL     1     -45.495 -51.120  14.543  1.00  0.00     0.001 C 
HETATM   20  C   UNL     1     -44.160 -51.647  14.042  1.00  0.00     0.011 C 
BRANCH  16  21
HETATM   21  C   UNL     1     -44.693 -54.154  14.278  1.00  0.00     0.037 C 
BRANCH  21  22
HETATM   22  C   UNL     1     -45.609 -55.268  13.777  1.00  0.00     0.165 C 
BRANCH  22  23
HETATM   23  O   UNL     1     -46.787 -55.310  14.578  1.00  0.00    -0.401 OA
HETATM   24  H   UNL     1     -47.354 -54.570  14.310  1.00  0.00     0.209 HD
ENDBRANCH  22  23
ENDBRANCH  21  22
ENDBRANCH  16  21
ENDBRANCH  15  16
ENDBRANCH   4  15
TORSDOF 6
ENDMDL
MODEL 2
REMARK VINA RESULT:      -6.0      1.307      1.744
REMARK  6 active torsions:
REMARK  status: ('A' for Active; 'I' for Inactive)
REMARK    1  A    between atoms: C_5  and  N_6 
REMARK       I    between atoms: N_6  and  C_7 
REMARK       I    between atoms: C_7  and  N_9 
REMARK    2  A    between atoms: N_9  and  C_10 
REMARK    3  A    between atoms: C_10  and  C_11 
REMARK    4  A    between atoms: C_11  and  C_12 
REMARK    5  A    between atoms: C_12  and  C_13 
REMARK    6  A    between atoms: C_13  and  O_14 
ROOT
HETATM    1  N   UNL     1     -40.603 -50.806  11.510  1.00  0.00    -0.289 N 
HETATM    2  C   UNL     1     -41.254 -51.967  11.809  1.00  0.00     0.322 C 
HETATM    3  O   UNL     1     -40.648 -53.037  11.827  1.00  0.00    -0.247 OA
HETATM    4  N   UNL     1     -42.574 -51.859  12.137  1.00  0.00    -0.342 N 
HETATM    5  H   UNL     1     -39.602 -50.861  11.380  1.00  0.00     0.172 HD
HETATM    6  H   UNL     1     -42.992 -50.943  11.982  1.00  0.00     0.164 HD
ENDROOT
BRANCH   1   7
HETATM    7  C   UNL     1     -41.207 -49.583  11.450  1.00  0.00     0.153 A 
HETATM    8  N   UNL     1     -41.753 -49.031  10.396  1.00  0.00    -0.339 N 
HETATM    9  C   UNL     1     -42.298 -47.811  10.732  1.00  0.00     0.020 A 
ATOM     10  HN  UNL     1     -41.772 -49.443   9.463  1.00  0.00     0.168 HD
HETATM   11  C   UNL     1     -42.923 -47.008   9.649  1.00  0.00     0.069 C 
HETATM   12  C   UNL     1     -42.205 -47.491  12.078  1.00  0.00     0.004 A 
HETATM   13  S   UNL     1     -41.297 -48.703  12.900  1.00  0.00    -0.057 SA
HETATM   14  C   UNL     1     -42.758 -46.314  12.797  1.00  0.00     0.058 C 
ENDBRANCH   1   7
BRANCH   4  15
HETATM   15  C   UNL     1     -43.406 -52.951  12.567  1.00  0.00     0.134 C 
BRANCH  15  16
HETATM   16  C   UNL     1     -44.534 -52.501  13.526  1.00  0.00    -0.022 C 
HETATM   17  C   UNL     1     -44.481 -50.974  13.781  1.00  0.00     0.011 C 
HETATM   18  C   UNL     1     -44.874 -50.751  15.243  1.00  0.00     0.001 C 
HETATM   19  C   UNL     1     -44.965 -52.125  15.891  1.00  0.00     0.001 C 
HETATM   20  C   UNL     1     -44.262 -53.071  14.930  1.00  0.00     0.011 C 
BRANCH  16  21
HETATM   21  C   UNL     1     -45.948 -52.877  12.995  1.00  0.00     0.037 C 
BRANCH  21  22
HETATM   22  C   UNL     1     -46.638 -51.819  12.137  1.00  0.00     0.165 C 
BRANCH  22  23
HETATM   23  O   UNL     1     -47.337 -52.454  11.071  1.00  0.00    -0.401 OA
HETATM   24  H   UNL     1     -46.795 -53.197  10.763  1.00  0.00     0.209 HD
ENDBRANCH  22  23
ENDBRANCH  21  22
ENDBRANCH  16  21
ENDBRANCH  15  16
ENDBRANCH   4  15
TORSDOF 6
ENDMDL
MODEL 3
REMARK VINA RESULT:      -5.9      2.625      6.008
REMARK  6 active torsions:
REMARK  status: ('A' for Active; 'I' for Inactive)
REMARK    1  A    between atoms: C_5  and  N_6 
REMARK       I    between atoms: N_6  and  C_7 
REMARK       I    between atoms: C_7  and  N_9 
REMARK    2  A    between atoms: N_9  and  C_10 
REMARK    3  A    between atoms: C_10  and  C_11 
REMARK    4  A    between atoms: C_11  and  C_12 
REMARK    5  A    between atoms: C_12  and  C_13 
REMARK    6  A    between atoms: C_13  and  O_14 
ROOT
HETATM    1  N   UNL     1     -42.206 -53.019  12.792  1.00  0.00    -0.289 N 
HETATM    2  C   UNL     1     -41.203 -52.250  12.278  1.00  0.00     0.322 C 
HETATM    3  O   UNL     1     -40.074 -52.714  12.127  1.00  0.00    -0.247 OA
HETATM    4  N   UNL     1     -41.540 -50.984  11.897  1.00  0.00    -0.342 N 
HETATM    5  H   UNL     1     -41.995 -53.992  12.968  1.00  0.00     0.172 HD
HETATM    6  H   UNL     1     -42.471 -50.675  12.170  1.00  0.00     0.164 HD
ENDROOT
BRANCH   1   7
HETATM    7  C   UNL     1     -43.478 -52.573  13.008  1.00  0.00     0.153 A 
HETATM    8  N   UNL     1     -44.462 -52.566  12.145  1.00  0.00    -0.339 N 
HETATM    9  C   UNL     1     -45.607 -52.080  12.739  1.00  0.00     0.020 A 
ATOM     10  HN  UNL     1     -44.393 -52.876  11.175  1.00  0.00     0.168 HD
HETATM   11  C   UNL     1     -46.825 -51.951  11.897  1.00  0.00     0.069 C 
HETATM   12  C   UNL     1     -45.474 -51.784  14.086  1.00  0.00     0.004 A 
HETATM   13  S   UNL     1     -43.835 -52.006  14.569  1.00  0.00    -0.057 SA
HETATM   14  C   UNL     1     -46.512 -51.332  15.049  1.00  0.00     0.058 C 
ENDBRANCH   1   7
BRANCH   4  15
HETATM   15  C   UNL     1     -40.648 -50.055  11.255  1.00  0.00     0.134 C 
BRANCH  15  16
HETATM   16  C   UNL     1     -39.949 -49.108  12.259  1.00  0.00    -0.022 C 
HETATM   17  C   UNL     1     -40.792 -48.926  13.545  1.00  0.00     0.011 C 
HETATM   18  C   UNL     1     -40.619 -47.473  13.992  1.00  0.00     0.001 C 
HETATM   19  C   UNL     1     -39.851 -46.759  12.888  1.00  0.00     0.001 C 
HETATM   20  C   UNL     1     -39.931 -47.681  11.681  1.00  0.00     0.011 C 
BRANCH  16  21
HETATM   21  C   UNL     1     -38.527 -49.607  12.651  1.00  0.00     0.037 C 
BRANCH  21  22
HETATM   22  C   UNL     1     -37.628 -50.027  11.490  1.00  0.00     0.165 C 
BRANCH  22  23
HETATM   23  O   UNL     1     -37.362 -51.424  11.578  1.00  0.00    -0.401 OA
HETATM   24  H   UNL     1     -38.113 -51.840  12.029  1.00  0.00     0.209 HD
ENDBRANCH  22  23
ENDBRANCH  21  22
ENDBRANCH  16  21
ENDBRANCH  15  16
ENDBRANCH   4  15
TORSDOF 6
ENDMDL
MODEL 4
REMARK VINA RESULT:      -5.7      2.344      5.838
REMARK  6 active torsions:
REMARK  status: ('A' for Active; 'I' for Inactive)
REMARK    1  A    between atoms: C_5  and  N_6 
REMARK       I    between atoms: N_6  and  C_7 
REMARK       I    between atoms: C_7  and  N_9 
REMARK    2  A    between atoms: N_9  and  C_10 
REMARK    3  A    between atoms: C_10  and  C_11 
REMARK    4  A    between atoms: C_11  and  C_12 
REMARK    5  A    between atoms: C_12  and  C_13 
REMARK    6  A    between atoms: C_13  and  O_14 
ROOT
HETATM    1  N   UNL     1     -42.673 -53.301  12.662  1.00  0.00    -0.289 N 
HETATM    2  C   UNL     1     -41.593 -52.584  12.238  1.00  0.00     0.322 C 
HETATM    3  O   UNL     1     -40.504 -53.131  12.076  1.00  0.00    -0.247 OA
HETATM    4  N   UNL     1     -41.809 -51.267  11.956  1.00  0.00    -0.342 N 
HETATM    5  H   UNL     1     -42.551 -54.299  12.762  1.00  0.00     0.172 HD
HETATM    6  H   UNL     1     -42.718 -50.901  12.231  1.00  0.00     0.164 HD
ENDROOT
BRANCH   1   7
HETATM    7  C   UNL     1     -43.909 -52.765  12.885  1.00  0.00     0.153 A 
HETATM    8  N   UNL     1     -44.865 -52.612  12.004  1.00  0.00    -0.339 N 
HETATM    9  C   UNL     1     -45.981 -52.074  12.609  1.00  0.00     0.020 A 
ATOM     10  HN  UNL     1     -44.796 -52.856  11.017  1.00  0.00     0.168 HD
HETATM   11  C   UNL     1     -47.160 -51.781  11.755  1.00  0.00     0.069 C 
HETATM   12  C   UNL     1     -45.859 -51.887  13.977  1.00  0.00     0.004 A 
HETATM   13  S   UNL     1     -44.258 -52.282  14.476  1.00  0.00    -0.057 SA
HETATM   14  C   UNL     1     -46.881 -51.419  14.949  1.00  0.00     0.058 C 
ENDBRANCH   1   7
BRANCH   4  15
HETATM   15  C   UNL     1     -40.822 -50.370  11.414  1.00  0.00     0.134 C 
BRANCH  15  16
HETATM   16  C   UNL     1     -40.699 -49.058  12.225  1.00  0.00    -0.022 C 
HETATM   17  C   UNL     1     -39.279 -48.450  12.102  1.00  0.00     0.011 C 
HETATM   18  C   UNL     1     -38.935 -47.840  13.462  1.00  0.00     0.001 C 
HETATM   19  C   UNL     1     -40.042 -48.250  14.424  1.00  0.00     0.001 C 
HETATM   20  C   UNL     1     -40.781 -49.381  13.727  1.00  0.00     0.011 C 
BRANCH  16  21
HETATM   21  C   UNL     1     -41.746 -47.992  11.788  1.00  0.00     0.037 C 
BRANCH  21  22
HETATM   22  C   UNL     1     -41.960 -47.850  10.283  1.00  0.00     0.165 C 
BRANCH  22  23
HETATM   23  O   UNL     1     -43.291 -48.240   9.954  1.00  0.00    -0.401 OA
HETATM   24  H   UNL     1     -43.857 -47.457  10.038  1.00  0.00     0.209 HD
ENDBRANCH  22  23
ENDBRANCH  21  22
ENDBRANCH  16  21
ENDBRANCH  15  16
ENDBRANCH   4  15
TORSDOF 6
ENDMDL
MODEL 5
REMARK VINA RESULT:      -5.7      4.811      7.324
REMARK  6 active torsions:
REMARK  status: ('A' for Active; 'I' for Inactive)
REMARK    1  A    between atoms: C_5  and  N_6 
REMARK       I    between atoms: N_6  and  C_7 
REMARK       I    between atoms: C_7  and  N_9 
REMARK    2  A    between atoms: N_9  and  C_10 
REMARK    3  A    between atoms: C_10  and  C_11 
REMARK    4  A    between atoms: C_11  and  C_12 
REMARK    5  A    between atoms: C_12  and  C_13 
REMARK    6  A    between atoms: C_13  and  O_14 
ROOT
HETATM    1  N   UNL     1     -41.686 -49.246  10.745  1.00  0.00    -0.289 N 
HETATM    2  C   UNL     1     -41.800 -47.973  10.270  1.00  0.00     0.322 C 
HETATM    3  O   UNL     1     -42.780 -47.638   9.608  1.00  0.00    -0.247 OA
HETATM    4  N   UNL     1     -40.810 -47.101  10.620  1.00  0.00    -0.342 N 
HETATM    5  H   UNL     1     -42.469 -49.866  10.589  1.00  0.00     0.172 HD
HETATM    6  H   UNL     1     -39.999 -47.516  11.076  1.00  0.00     0.164 HD
ENDROOT
BRANCH   1   7
HETATM    7  C   UNL     1     -40.621 -49.701  11.470  1.00  0.00     0.153 A 
HETATM    8  N   UNL     1     -39.428 -49.987  11.012  1.00  0.00    -0.339 N 
HETATM    9  C   UNL     1     -38.608 -50.377  12.048  1.00  0.00     0.020 A 
ATOM     10  HN  UNL     1     -39.147 -49.928  10.034  1.00  0.00     0.168 HD
HETATM   11  C   UNL     1     -37.219 -50.790  11.717  1.00  0.00     0.069 C 
HETATM   12  C   UNL     1     -39.196 -50.316  13.302  1.00  0.00     0.004 A 
HETATM   13  S   UNL     1     -40.855 -49.878  13.143  1.00  0.00    -0.057 SA
HETATM   14  C   UNL     1     -38.585 -50.573  14.632  1.00  0.00     0.058 C 
ENDBRANCH   1   7
BRANCH   4  15
HETATM   15  C   UNL     1     -40.796 -45.699  10.295  1.00  0.00     0.134 C 
BRANCH  15  16
HETATM   16  C   UNL     1     -40.973 -44.796  11.539  1.00  0.00    -0.022 C 
HETATM   17  C   UNL     1     -40.448 -43.364  11.275  1.00  0.00     0.011 C 
HETATM   18  C   UNL     1     -39.807 -42.876  12.577  1.00  0.00     0.001 C 
HETATM   19  C   UNL     1     -39.777 -44.064  13.527  1.00  0.00     0.001 C 
HETATM   20  C   UNL     1     -40.032 -45.283  12.656  1.00  0.00     0.011 C 
BRANCH  16  21
HETATM   21  C   UNL     1     -42.456 -44.715  12.006  1.00  0.00     0.037 C 
BRANCH  21  22
HETATM   22  C   UNL     1     -42.862 -45.698  13.102  1.00  0.00     0.165 C 
BRANCH  22  23
HETATM   23  O   UNL     1     -43.587 -45.007  14.115  1.00  0.00    -0.401 OA
HETATM   24  H   UNL     1     -44.489 -44.865  13.789  1.00  0.00     0.209 HD
ENDBRANCH  22  23
ENDBRANCH  21  22
ENDBRANCH  16  21
ENDBRANCH  15  16
ENDBRANCH   4  15
TORSDOF 6
ENDMDL
MODEL 6
REMARK VINA RESULT:      -5.4      2.967      6.064
REMARK  6 active torsions:
REMARK  status: ('A' for Active; 'I' for Inactive)
REMARK    1  A    between atoms: C_5  and  N_6 
REMARK       I    between atoms: N_6  and  C_7 
REMARK       I    between atoms: C_7  and  N_9 
REMARK    2  A    between atoms: N_9  and  C_10 
REMARK    3  A    between atoms: C_10  and  C_11 
REMARK    4  A    between atoms: C_11  and  C_12 
REMARK    5  A    between atoms: C_12  and  C_13 
REMARK    6  A    between atoms: C_13  and  O_14 
ROOT
HETATM    1  N   UNL     1     -40.419 -51.847  11.617  1.00  0.00    -0.289 N 
HETATM    2  C   UNL     1     -40.015 -50.575  11.894  1.00  0.00     0.322 C 
HETATM    3  O   UNL     1     -39.052 -50.083  11.308  1.00  0.00    -0.247 OA
HETATM    4  N   UNL     1     -40.765 -49.880  12.797  1.00  0.00    -0.342 N 
HETATM    5  H   UNL     1     -39.941 -52.328  10.867  1.00  0.00     0.172 HD
HETATM    6  H   UNL     1     -41.468 -50.423  13.295  1.00  0.00     0.164 HD
ENDROOT
BRANCH   1   7
HETATM    7  C   UNL     1     -41.463 -52.472  12.237  1.00  0.00     0.153 A 
HETATM    8  N   UNL     1     -42.723 -52.428  11.881  1.00  0.00    -0.339 N 
HETATM    9  C   UNL     1     -43.477 -53.215  12.724  1.00  0.00     0.020 A 
ATOM     10  HN  UNL     1     -43.091 -51.890  11.097  1.00  0.00     0.168 HD
HETATM   11  C   UNL     1     -44.947 -53.254  12.506  1.00  0.00     0.069 C 
HETATM   12  C   UNL     1     -42.744 -53.902  13.679  1.00  0.00     0.004 A 
HETATM   13  S   UNL     1     -41.088 -53.437  13.583  1.00  0.00    -0.057 SA
HETATM   14  C   UNL     1     -43.214 -54.897  14.678  1.00  0.00     0.058 C 
ENDBRANCH   1   7
BRANCH   4  15
HETATM   15  C   UNL     1     -40.555 -48.501  13.152  1.00  0.00     0.134 C 
BRANCH  15  16
HETATM   16  C   UNL     1     -41.598 -47.554  12.512  1.00  0.00    -0.022 C 
HETATM   17  C   UNL     1     -42.940 -48.283  12.256  1.00  0.00     0.011 C 
HETATM   18  C   UNL     1     -43.502 -47.736  10.942  1.00  0.00     0.001 C 
HETATM   19  C   UNL     1     -42.424 -46.849  10.335  1.00  0.00     0.001 C 
HETATM   20  C   UNL     1     -41.148 -47.197  11.084  1.00  0.00     0.011 C 
BRANCH  16  21
HETATM   21  C   UNL     1     -41.865 -46.292  13.383  1.00  0.00     0.037 C 
BRANCH  21  22
HETATM   22  C   UNL     1     -42.991 -46.419  14.407  1.00  0.00     0.165 C 
BRANCH  22  23
HETATM   23  O   UNL     1     -43.942 -45.378  14.199  1.00  0.00    -0.401 OA
HETATM   24  H   UNL     1     -44.582 -45.414  14.926  1.00  0.00     0.209 HD
ENDBRANCH  22  23
ENDBRANCH  21  22
ENDBRANCH  16  21
ENDBRANCH  15  16
ENDBRANCH   4  15
TORSDOF 6
ENDMDL
MODEL 7
REMARK VINA RESULT:      -5.3      4.663      7.527
REMARK  6 active torsions:
REMARK  status: ('A' for Active; 'I' for Inactive)
REMARK    1  A    between atoms: C_5  and  N_6 
REMARK       I    between atoms: N_6  and  C_7 
REMARK       I    between atoms: C_7  and  N_9 
REMARK    2  A    between atoms: N_9  and  C_10 
REMARK    3  A    between atoms: C_10  and  C_11 
REMARK    4  A    between atoms: C_11  and  C_12 
REMARK    5  A    between atoms: C_12  and  C_13 
REMARK    6  A    between atoms: C_13  and  O_14 
ROOT
HETATM    1  N   UNL     1     -42.233 -48.816  10.740  1.00  0.00    -0.289 N 
HETATM    2  C   UNL     1     -42.737 -47.634  11.196  1.00  0.00     0.322 C 
HETATM    3  O   UNL     1     -43.734 -47.136  10.675  1.00  0.00    -0.247 OA
HETATM    4  N   UNL     1     -42.116 -47.084  12.279  1.00  0.00    -0.342 N 
HETATM    5  H   UNL     1     -42.755 -49.288  10.014  1.00  0.00     0.172 HD
HETATM    6  H   UNL     1     -41.240 -47.525  12.555  1.00  0.00     0.164 HD
ENDROOT
BRANCH   1   7
HETATM    7  C   UNL     1     -41.121 -49.422  11.250  1.00  0.00     0.153 A 
HETATM    8  N   UNL     1     -39.875 -49.136  10.968  1.00  0.00    -0.339 N 
HETATM    9  C   UNL     1     -39.029 -49.933  11.709  1.00  0.00     0.020 A 
ATOM     10  HN  UNL     1     -39.574 -48.428  10.299  1.00  0.00     0.168 HD
HETATM   11  C   UNL     1     -37.567 -49.787  11.489  1.00  0.00     0.069 C 
HETATM   12  C   UNL     1     -39.671 -50.778  12.601  1.00  0.00     0.004 A 
HETATM   13  S   UNL     1     -41.377 -50.646  12.400  1.00  0.00    -0.057 SA
HETATM   14  C   UNL     1     -39.077 -51.696  13.608  1.00  0.00     0.058 C 
ENDBRANCH   1   7
BRANCH   4  15
HETATM   15  C   UNL     1     -42.551 -45.893  12.960  1.00  0.00     0.134 C 
BRANCH  15  16
HETATM   16  C   UNL     1     -41.669 -44.663  12.635  1.00  0.00    -0.022 C 
HETATM   17  C   UNL     1     -41.621 -43.674  13.825  1.00  0.00     0.011 C 
HETATM   18  C   UNL     1     -41.598 -42.263  13.232  1.00  0.00     0.001 C 
HETATM   19  C   UNL     1     -41.828 -42.409  11.735  1.00  0.00     0.001 C 
HETATM   20  C   UNL     1     -42.355 -43.822  11.544  1.00  0.00     0.011 C 
BRANCH  16  21
HETATM   21  C   UNL     1     -40.214 -45.064  12.249  1.00  0.00     0.037 C 
BRANCH  21  22
HETATM   22  C   UNL     1     -39.891 -45.033  10.757  1.00  0.00     0.165 C 
BRANCH  22  23
HETATM   23  O   UNL     1     -39.840 -46.365  10.255  1.00  0.00    -0.401 OA
HETATM   24  H   UNL     1     -40.657 -46.525   9.757  1.00  0.00     0.209 HD
ENDBRANCH  22  23
ENDBRANCH  21  22
ENDBRANCH  16  21
ENDBRANCH  15  16
ENDBRANCH   4  15
TORSDOF 6
ENDMDL
MODEL 8
REMARK VINA RESULT:      -5.2      2.348      3.057
REMARK  6 active torsions:
REMARK  status: ('A' for Active; 'I' for Inactive)
REMARK    1  A    between atoms: C_5  and  N_6 
REMARK       I    between atoms: N_6  and  C_7 
REMARK       I    between atoms: C_7  and  N_9 
REMARK    2  A    between atoms: N_9  and  C_10 
REMARK    3  A    between atoms: C_10  and  C_11 
REMARK    4  A    between atoms: C_11  and  C_12 
REMARK    5  A    between atoms: C_12  and  C_13 
REMARK    6  A    between atoms: C_13  and  O_14 
ROOT
HETATM    1  N   UNL     1     -40.649 -53.542  13.990  1.00  0.00    -0.289 N 
HETATM    2  C   UNL     1     -41.780 -53.677  14.739  1.00  0.00     0.322 C 
HETATM    3  O   UNL     1     -42.107 -54.775  15.186  1.00  0.00    -0.247 OA
HETATM    4  N   UNL     1     -42.475 -52.534  15.005  1.00  0.00    -0.342 N 
HETATM    5  H   UNL     1     -40.066 -54.362  13.885  1.00  0.00     0.172 HD
HETATM    6  H   UNL     1     -42.172 -51.706  14.495  1.00  0.00     0.164 HD
ENDROOT
BRANCH   1   7
HETATM    7  C   UNL     1     -40.229 -52.364  13.442  1.00  0.00     0.153 A 
HETATM    8  N   UNL     1     -40.773 -51.733  12.433  1.00  0.00    -0.339 N 
HETATM    9  C   UNL     1     -40.096 -50.556  12.193  1.00  0.00     0.020 A 
ATOM     10  HN  UNL     1     -41.579 -52.062  11.902  1.00  0.00     0.168 HD
HETATM   11  C   UNL     1     -40.540 -49.721  11.047  1.00  0.00     0.069 C 
HETATM   12  C   UNL     1     -39.072 -50.290  13.088  1.00  0.00     0.004 A 
HETATM   13  S   UNL     1     -38.887 -51.618  14.170  1.00  0.00    -0.057 SA
HETATM   14  C   UNL     1     -38.206 -49.086  13.182  1.00  0.00     0.058 C 
ENDBRANCH   1   7
BRANCH   4  15
HETATM   15  C   UNL     1     -43.638 -52.456  15.849  1.00  0.00     0.134 C 
BRANCH  15  16
HETATM   16  C   UNL     1     -44.960 -52.588  15.056  1.00  0.00    -0.022 C 
HETATM   17  C   UNL     1     -44.740 -52.328  13.545  1.00  0.00     0.011 C 
HETATM   18  C   UNL     1     -45.979 -51.589  13.033  1.00  0.00     0.001 C 
HETATM   19  C   UNL     1     -46.824 -51.246  14.252  1.00  0.00     0.001 C 
HETATM   20  C   UNL     1     -45.903 -51.436  15.447  1.00  0.00     0.011 C 
BRANCH  16  21
HETATM   21  C   UNL     1     -45.623 -53.985  15.238  1.00  0.00     0.037 C 
BRANCH  21  22
HETATM   22  C   UNL     1     -45.468 -54.951  14.065  1.00  0.00     0.165 C 
BRANCH  22  23
HETATM   23  O   UNL     1     -44.495 -55.940  14.390  1.00  0.00    -0.401 OA
HETATM   24  H   UNL     1     -44.930 -56.806  14.352  1.00  0.00     0.209 HD
ENDBRANCH  22  23
ENDBRANCH  21  22
ENDBRANCH  16  21
ENDBRANCH  15  16
ENDBRANCH   4  15
TORSDOF 6
ENDMDL
MODEL 9
REMARK VINA RESULT:      -5.2      1.910      2.245
REMARK  6 active torsions:
REMARK  status: ('A' for Active; 'I' for Inactive)
REMARK    1  A    between atoms: C_5  and  N_6 
REMARK       I    between atoms: N_6  and  C_7 
REMARK       I    between atoms: C_7  and  N_9 
REMARK    2  A    between atoms: N_9  and  C_10 
REMARK    3  A    between atoms: C_10  and  C_11 
REMARK    4  A    between atoms: C_11  and  C_12 
REMARK    5  A    between atoms: C_12  and  C_13 
REMARK    6  A    between atoms: C_13  and  O_14 
ROOT
HETATM    1  N   UNL     1     -40.174 -51.873  13.043  1.00  0.00    -0.289 N 
HETATM    2  C   UNL     1     -41.173 -52.761  12.772  1.00  0.00     0.322 C 
HETATM    3  O   UNL     1     -40.962 -53.972  12.816  1.00  0.00    -0.247 OA
HETATM    4  N   UNL     1     -42.405 -52.233  12.515  1.00  0.00    -0.342 N 
HETATM    5  H   UNL     1     -39.290 -52.256  13.347  1.00  0.00     0.172 HD
HETATM    6  H   UNL     1     -42.434 -51.222  12.398  1.00  0.00     0.164 HD
ENDROOT
BRANCH   1   7
HETATM    7  C   UNL     1     -40.322 -50.516  12.996  1.00  0.00     0.153 A 
HETATM    8  N   UNL     1     -40.640 -49.730  13.994  1.00  0.00    -0.339 N 
HETATM    9  C   UNL     1     -40.654 -48.417  13.572  1.00  0.00     0.020 A 
ATOM     10  HN  UNL     1     -40.845 -50.042  14.943  1.00  0.00     0.168 HD
HETATM   11  C   UNL     1     -41.043 -47.376  14.559  1.00  0.00     0.069 C 
HETATM   12  C   UNL     1     -40.277 -48.234  12.252  1.00  0.00     0.004 A 
HETATM   13  S   UNL     1     -40.025 -49.765  11.502  1.00  0.00    -0.057 SA
HETATM   14  C   UNL     1     -40.095 -46.964  11.502  1.00  0.00     0.058 C 
ENDBRANCH   1   7
BRANCH   4  15
HETATM   15  C   UNL     1     -43.600 -53.004  12.297  1.00  0.00     0.134 C 
BRANCH  15  16
HETATM   16  C   UNL     1     -44.624 -52.856  13.447  1.00  0.00    -0.022 C 
HETATM   17  C   UNL     1     -46.025 -52.471  12.909  1.00  0.00     0.011 C 
HETATM   18  C   UNL     1     -46.646 -51.509  13.925  1.00  0.00     0.001 C 
HETATM   19  C   UNL     1     -45.560 -51.177  14.939  1.00  0.00     0.001 C 
HETATM   20  C   UNL     1     -44.258 -51.626  14.297  1.00  0.00     0.011 C 
BRANCH  16  21
HETATM   21  C   UNL     1     -44.747 -54.152  14.301  1.00  0.00     0.037 C 
BRANCH  21  22
HETATM   22  C   UNL     1     -43.702 -54.323  15.400  1.00  0.00     0.165 C 
BRANCH  22  23
HETATM   23  O   UNL     1     -42.652 -55.165  14.930  1.00  0.00    -0.401 OA
HETATM   24  H   UNL     1     -42.128 -54.656  14.292  1.00  0.00     0.209 HD
ENDBRANCH  22  23
ENDBRANCH  21  22
ENDBRANCH  16  21
ENDBRANCH  15  16
ENDBRANCH   4  15
TORSDOF 6
ENDMDL
