MODEL 1
REMARK VINA RESULT:      -4.6      0.000      0.000
REMARK  3 active torsions:
REMARK  status: ('A' for Active; 'I' for Inactive)
REMARK    1  A    between atoms: N_2  and  C_8 
REMARK    2  A    between atoms: C_6  and  C_8 
REMARK    3  A    between atoms: C_6  and  O_11 
ROOT
HETATM    1  C   UNL     1     -42.079 -47.541  10.411  1.00  0.00     0.103 C 
HETATM    2  N   UNL     1     -40.218 -47.827  11.813  1.00  0.00     0.086 N 
HETATM    3  C   UNL     1     -42.601 -48.137  11.718  1.00  0.00     0.071 C 
HETATM    4  C   UNL     1     -40.828 -46.842  10.925  1.00  0.00     0.308 C 
HETATM    5  C   UNL     1     -41.334 -48.481  12.508  1.00  0.00     0.272 C 
HETATM    6  H   UNL     1     -39.524 -47.405  12.471  1.00  0.00     0.315 HD
ENDROOT
BRANCH   1   7
HETATM    7  C   UNL     1     -43.095 -46.573   9.744  1.00  0.00     0.185 C 
BRANCH   7   8
HETATM    8  N   UNL     1     -44.185 -47.265   9.056  1.00  0.00    -0.283 N 
HETATM    9  N   UNL     1     -44.068 -47.897   7.897  1.00  0.00    -0.021 NA
HETATM   10  N   UNL     1     -45.224 -48.459   7.572  1.00  0.00    -0.294 N 
HETATM   11  C   UNL     1     -46.101 -48.175   8.549  1.00  0.00     0.123 A 
ATOM     12  HN  UNL     1     -45.413 -49.008   6.733  1.00  0.00     0.183 HD
HETATM   13  C   UNL     1     -45.447 -47.416   9.493  1.00  0.00     0.126 A 
ENDBRANCH   7   8
ENDBRANCH   1   7
BRANCH   1  14
HETATM   14  O   UNL     1     -41.679 -48.570   9.535  1.00  0.00    -0.386 OA
HETATM   15  H   UNL     1     -40.721 -48.759   9.704  1.00  0.00     0.210 HD
ENDBRANCH   1  14
TORSDOF 3
ENDMDL
MODEL 2
REMARK VINA RESULT:      -4.6      5.420      6.891
REMARK  3 active torsions:
REMARK  status: ('A' for Active; 'I' for Inactive)
REMARK    1  A    between atoms: N_2  and  C_8 
REMARK    2  A    between atoms: C_6  and  C_8 
REMARK    3  A    between atoms: C_6  and  O_11 
ROOT
HETATM    1  C   UNL     1     -40.946 -52.645  12.666  1.00  0.00     0.103 C 
HETATM    2  N   UNL     1     -42.661 -54.239  12.834  1.00  0.00     0.086 N 
HETATM    3  C   UNL     1     -42.264 -51.884  12.541  1.00  0.00     0.071 C 
HETATM    4  C   UNL     1     -41.413 -53.844  13.479  1.00  0.00     0.308 C 
HETATM    5  C   UNL     1     -43.328 -52.984  12.459  1.00  0.00     0.272 C 
HETATM    6  H   UNL     1     -43.257 -54.847  13.440  1.00  0.00     0.315 HD
ENDROOT
BRANCH   1   7
HETATM    7  C   UNL     1     -39.839 -51.816  13.373  1.00  0.00     0.185 C 
BRANCH   7   8
HETATM    8  N   UNL     1     -39.027 -51.027  12.446  1.00  0.00    -0.283 N 
HETATM    9  N   UNL     1     -39.510 -50.265  11.477  1.00  0.00    -0.021 NA
HETATM   10  N   UNL     1     -38.517 -49.646  10.852  1.00  0.00    -0.294 N 
HETATM   11  C   UNL     1     -37.371 -50.028  11.438  1.00  0.00     0.123 A 
ATOM     12  HN  UNL     1     -38.608 -48.998  10.069  1.00  0.00     0.183 HD
HETATM   13  C   UNL     1     -37.688 -50.905  12.450  1.00  0.00     0.126 A 
ENDBRANCH   7   8
ENDBRANCH   1   7
BRANCH   1  14
HETATM   14  O   UNL     1     -40.530 -53.107  11.401  1.00  0.00    -0.386 OA
HETATM   15  H   UNL     1     -39.642 -52.709  11.208  1.00  0.00     0.210 HD
ENDBRANCH   1  14
TORSDOF 3
ENDMDL
MODEL 3
REMARK VINA RESULT:      -4.5      3.408      5.218
REMARK  3 active torsions:
REMARK  status: ('A' for Active; 'I' for Inactive)
REMARK    1  A    between atoms: N_2  and  C_8 
REMARK    2  A    between atoms: C_6  and  C_8 
REMARK    3  A    between atoms: C_6  and  O_11 
ROOT
HETATM    1  C   UNL     1     -42.297 -45.953  10.185  1.00  0.00     0.103 C 
HETATM    2  N   UNL     1     -42.510 -47.992   9.042  1.00  0.00     0.086 N 
HETATM    3  C   UNL     1     -43.575 -45.857   9.352  1.00  0.00     0.071 C 
HETATM    4  C   UNL     1     -42.219 -47.462  10.370  1.00  0.00     0.308 C 
HETATM    5  C   UNL     1     -43.556 -47.122   8.488  1.00  0.00     0.272 C 
HETATM    6  H   UNL     1     -42.790 -48.999   9.059  1.00  0.00     0.315 HD
ENDROOT
BRANCH   1   7
HETATM    7  C   UNL     1     -42.394 -45.173  11.525  1.00  0.00     0.185 C 
BRANCH   7   8
HETATM    8  N   UNL     1     -41.664 -43.905  11.509  1.00  0.00    -0.283 N 
HETATM    9  N   UNL     1     -41.902 -42.905  10.673  1.00  0.00    -0.021 NA
HETATM   10  N   UNL     1     -41.104 -41.884  10.953  1.00  0.00    -0.294 N 
HETATM   11  C   UNL     1     -40.335 -42.245  11.994  1.00  0.00     0.123 A 
ATOM     12  HN  UNL     1     -41.079 -40.987  10.467  1.00  0.00     0.183 HD
HETATM   13  C   UNL     1     -40.685 -43.527  12.349  1.00  0.00     0.126 A 
ENDBRANCH   7   8
ENDBRANCH   1   7
BRANCH   1  14
HETATM   14  O   UNL     1     -41.187 -45.546   9.419  1.00  0.00    -0.386 OA
HETATM   15  H   UNL     1     -40.445 -46.179   9.597  1.00  0.00     0.210 HD
ENDBRANCH   1  14
TORSDOF 3
ENDMDL
MODEL 4
REMARK VINA RESULT:      -4.4      3.273      5.289
REMARK  3 active torsions:
REMARK  status: ('A' for Active; 'I' for Inactive)
REMARK    1  A    between atoms: N_2  and  C_8 
REMARK    2  A    between atoms: C_6  and  C_8 
REMARK    3  A    between atoms: C_6  and  O_11 
ROOT
HETATM    1  C   UNL     1     -41.147 -49.316  11.426  1.00  0.00     0.103 C 
HETATM    2  N   UNL     1     -40.878 -47.240  10.365  1.00  0.00     0.086 N 
HETATM    3  C   UNL     1     -40.154 -48.518  12.270  1.00  0.00     0.071 C 
HETATM    4  C   UNL     1     -41.920 -48.173  10.782  1.00  0.00     0.308 C 
HETATM    5  C   UNL     1     -39.870 -47.267  11.433  1.00  0.00     0.272 C 
HETATM    6  H   UNL     1     -41.244 -46.279  10.179  1.00  0.00     0.315 HD
ENDROOT
BRANCH   1   7
HETATM    7  C   UNL     1     -42.040 -50.257  12.281  1.00  0.00     0.185 C 
BRANCH   7   8
HETATM    8  N   UNL     1     -41.449 -51.578  12.494  1.00  0.00    -0.283 N 
HETATM    9  N   UNL     1     -41.470 -52.568  11.614  1.00  0.00    -0.021 NA
HETATM   10  N   UNL     1     -40.804 -53.611  12.092  1.00  0.00    -0.294 N 
HETATM   11  C   UNL     1     -40.351 -53.276  13.311  1.00  0.00     0.123 A 
ATOM     12  HN  UNL     1     -40.663 -54.504  11.620  1.00  0.00     0.183 HD
HETATM   13  C   UNL     1     -40.758 -51.988  13.572  1.00  0.00     0.126 A 
ENDBRANCH   7   8
ENDBRANCH   1   7
BRANCH   1  14
HETATM   14  O   UNL     1     -40.467 -50.016  10.410  1.00  0.00    -0.386 OA
HETATM   15  H   UNL     1     -41.146 -50.382   9.786  1.00  0.00     0.210 HD
ENDBRANCH   1  14
TORSDOF 3
ENDMDL
MODEL 5
REMARK VINA RESULT:      -4.3      6.265      7.109
REMARK  3 active torsions:
REMARK  status: ('A' for Active; 'I' for Inactive)
REMARK    1  A    between atoms: N_2  and  C_8 
REMARK    2  A    between atoms: C_6  and  C_8 
REMARK    3  A    between atoms: C_6  and  O_11 
ROOT
HETATM    1  C   UNL     1     -42.640 -52.917  12.788  1.00  0.00     0.103 C 
HETATM    2  N   UNL     1     -42.261 -50.699  12.119  1.00  0.00     0.086 N 
HETATM    3  C   UNL     1     -41.170 -52.828  12.382  1.00  0.00     0.071 C 
HETATM    4  C   UNL     1     -42.889 -51.470  13.188  1.00  0.00     0.308 C 
HETATM    5  C   UNL     1     -41.032 -51.427  11.775  1.00  0.00     0.272 C 
HETATM    6  H   UNL     1     -42.080 -49.706  12.387  1.00  0.00     0.315 HD
ENDROOT
BRANCH   1   7
HETATM    7  C   UNL     1     -42.882 -53.925  13.945  1.00  0.00     0.185 C 
BRANCH   7   8
HETATM    8  N   UNL     1     -44.301 -54.169  14.211  1.00  0.00    -0.283 N 
HETATM    9  N   UNL     1     -45.118 -54.832  13.407  1.00  0.00    -0.021 NA
HETATM   10  N   UNL     1     -46.321 -54.920  13.960  1.00  0.00    -0.294 N 
HETATM   11  C   UNL     1     -46.266 -54.293  15.147  1.00  0.00     0.123 A 
ATOM     12  HN  UNL     1     -47.137 -55.380  13.558  1.00  0.00     0.183 HD
HETATM   13  C   UNL     1     -44.987 -53.814  15.311  1.00  0.00     0.126 A 
ENDBRANCH   7   8
ENDBRANCH   1   7
BRANCH   1  14
HETATM   14  O   UNL     1     -43.437 -53.206  11.663  1.00  0.00    -0.386 OA
HETATM   15  H   UNL     1     -43.199 -52.563  10.947  1.00  0.00     0.210 HD
ENDBRANCH   1  14
TORSDOF 3
ENDMDL
MODEL 6
REMARK VINA RESULT:      -4.2      5.367      5.968
REMARK  3 active torsions:
REMARK  status: ('A' for Active; 'I' for Inactive)
REMARK    1  A    between atoms: N_2  and  C_8 
REMARK    2  A    between atoms: C_6  and  C_8 
REMARK    3  A    between atoms: C_6  and  O_11 
ROOT
HETATM    1  C   UNL     1     -42.740 -52.328  12.757  1.00  0.00     0.103 C 
HETATM    2  N   UNL     1     -40.919 -53.317  11.655  1.00  0.00     0.086 N 
HETATM    3  C   UNL     1     -42.066 -53.253  13.768  1.00  0.00     0.071 C 
HETATM    4  C   UNL     1     -41.553 -52.018  11.856  1.00  0.00     0.308 C 
HETATM    5  C   UNL     1     -41.019 -54.011  12.946  1.00  0.00     0.272 C 
HETATM    6  H   UNL     1     -39.935 -53.240  11.313  1.00  0.00     0.315 HD
ENDROOT
BRANCH   1   7
HETATM    7  C   UNL     1     -43.357 -51.064  13.417  1.00  0.00     0.185 C 
BRANCH   7   8
HETATM    8  N   UNL     1     -44.786 -51.200  13.701  1.00  0.00    -0.283 N 
HETATM    9  N   UNL     1     -45.743 -51.197  12.785  1.00  0.00    -0.021 NA
HETATM   10  N   UNL     1     -46.921 -51.390  13.363  1.00  0.00    -0.294 N 
HETATM   11  C   UNL     1     -46.707 -51.517  14.683  1.00  0.00     0.123 A 
ATOM     12  HN  UNL     1     -47.825 -51.435  12.891  1.00  0.00     0.183 HD
HETATM   13  C   UNL     1     -45.355 -51.396  14.903  1.00  0.00     0.126 A 
ENDBRANCH   7   8
ENDBRANCH   1   7
BRANCH   1  14
HETATM   14  O   UNL     1     -43.691 -53.044  12.002  1.00  0.00    -0.386 OA
HETATM   15  H   UNL     1     -43.680 -53.985  12.312  1.00  0.00     0.210 HD
ENDBRANCH   1  14
TORSDOF 3
ENDMDL
MODEL 7
REMARK VINA RESULT:      -4.2      2.819      3.378
REMARK  3 active torsions:
REMARK  status: ('A' for Active; 'I' for Inactive)
REMARK    1  A    between atoms: N_2  and  C_8 
REMARK    2  A    between atoms: C_6  and  C_8 
REMARK    3  A    between atoms: C_6  and  O_11 
ROOT
HETATM    1  C   UNL     1     -41.340 -44.831  11.078  1.00  0.00     0.103 C 
HETATM    2  N   UNL     1     -40.466 -42.662  11.281  1.00  0.00     0.086 N 
HETATM    3  C   UNL     1     -40.396 -44.850  12.279  1.00  0.00     0.071 C 
HETATM    4  C   UNL     1     -41.732 -43.360  11.077  1.00  0.00     0.308 C 
HETATM    5  C   UNL     1     -39.713 -43.479  12.242  1.00  0.00     0.272 C 
HETATM    6  H   UNL     1     -40.594 -41.676  11.602  1.00  0.00     0.315 HD
ENDROOT
BRANCH   1   7
HETATM    7  C   UNL     1     -42.550 -45.790  11.251  1.00  0.00     0.185 C 
BRANCH   7   8
HETATM    8  N   UNL     1     -42.830 -46.588  10.056  1.00  0.00    -0.283 N 
HETATM    9  N   UNL     1     -42.275 -47.759   9.782  1.00  0.00    -0.021 NA
HETATM   10  N   UNL     1     -42.778 -48.244   8.654  1.00  0.00    -0.294 N 
HETATM   11  C   UNL     1     -43.674 -47.354   8.197  1.00  0.00     0.123 A 
ATOM     12  HN  UNL     1     -42.529 -49.130   8.215  1.00  0.00     0.183 HD
HETATM   13  C   UNL     1     -43.711 -46.301   9.083  1.00  0.00     0.126 A 
ENDBRANCH   7   8
ENDBRANCH   1   7
BRANCH   1  14
HETATM   14  O   UNL     1     -40.624 -45.097   9.894  1.00  0.00    -0.386 OA
HETATM   15  H   UNL     1     -39.711 -45.388  10.148  1.00  0.00     0.210 HD
ENDBRANCH   1  14
TORSDOF 3
ENDMDL
MODEL 8
REMARK VINA RESULT:      -4.2      4.885      5.724
REMARK  3 active torsions:
REMARK  status: ('A' for Active; 'I' for Inactive)
REMARK    1  A    between atoms: N_2  and  C_8 
REMARK    2  A    between atoms: C_6  and  C_8 
REMARK    3  A    between atoms: C_6  and  O_11 
ROOT
HETATM    1  C   UNL     1     -40.327 -51.582  12.548  1.00  0.00     0.103 C 
HETATM    2  N   UNL     1     -39.472 -50.096  10.944  1.00  0.00     0.086 N 
HETATM    3  C   UNL     1     -38.982 -51.090  13.080  1.00  0.00     0.071 C 
HETATM    4  C   UNL     1     -40.705 -50.402  11.663  1.00  0.00     0.308 C 
HETATM    5  C   UNL     1     -38.387 -50.288  11.917  1.00  0.00     0.272 C 
HETATM    6  H   UNL     1     -39.473 -49.139  10.525  1.00  0.00     0.315 HD
ENDROOT
BRANCH   1   7
HETATM    7  C   UNL     1     -41.356 -51.856  13.679  1.00  0.00     0.185 C 
BRANCH   7   8
HETATM    8  N   UNL     1     -42.580 -52.500  13.201  1.00  0.00    -0.283 N 
HETATM    9  N   UNL     1     -42.661 -53.752  12.776  1.00  0.00    -0.021 NA
HETATM   10  N   UNL     1     -43.917 -54.042  12.463  1.00  0.00    -0.294 N 
HETATM   11  C   UNL     1     -44.654 -52.943  12.692  1.00  0.00     0.123 A 
ATOM     12  HN  UNL     1     -44.259 -54.936  12.112  1.00  0.00     0.183 HD
HETATM   13  C   UNL     1     -43.811 -51.962  13.160  1.00  0.00     0.126 A 
ENDBRANCH   7   8
ENDBRANCH   1   7
BRANCH   1  14
HETATM   14  O   UNL     1     -40.139 -52.709  11.722  1.00  0.00    -0.386 OA
HETATM   15  H   UNL     1     -40.735 -53.430  12.051  1.00  0.00     0.210 HD
ENDBRANCH   1  14
TORSDOF 3
ENDMDL
MODEL 9
REMARK VINA RESULT:      -4.2      5.994      7.506
REMARK  3 active torsions:
REMARK  status: ('A' for Active; 'I' for Inactive)
REMARK    1  A    between atoms: N_2  and  C_8 
REMARK    2  A    between atoms: C_6  and  C_8 
REMARK    3  A    between atoms: C_6  and  O_11 
ROOT
HETATM    1  C   UNL     1     -44.893 -52.645  13.497  1.00  0.00     0.103 C 
HETATM    2  N   UNL     1     -46.318 -54.382  14.177  1.00  0.00     0.086 N 
HETATM    3  C   UNL     1     -46.080 -51.988  14.199  1.00  0.00     0.071 C 
HETATM    4  C   UNL     1     -44.908 -54.006  14.178  1.00  0.00     0.308 C 
HETATM    5  C   UNL     1     -47.059 -53.141  14.442  1.00  0.00     0.272 C 
HETATM    6  H   UNL     1     -46.538 -55.137  14.864  1.00  0.00     0.315 HD
ENDROOT
BRANCH   1   7
HETATM    7  C   UNL     1     -43.565 -51.866  13.707  1.00  0.00     0.185 C 
BRANCH   7   8
HETATM    8  N   UNL     1     -42.400 -52.551  13.147  1.00  0.00    -0.283 N 
HETATM    9  N   UNL     1     -42.067 -52.554  11.865  1.00  0.00    -0.021 NA
HETATM   10  N   UNL     1     -40.933 -53.221  11.695  1.00  0.00    -0.294 N 
HETATM   11  C   UNL     1     -40.537 -53.658  12.902  1.00  0.00     0.123 A 
ATOM     12  HN  UNL     1     -40.451 -53.375  10.810  1.00  0.00     0.183 HD
HETATM   13  C   UNL     1     -41.464 -53.237  13.827  1.00  0.00     0.126 A 
ENDBRANCH   7   8
ENDBRANCH   1   7
BRANCH   1  14
HETATM   14  O   UNL     1     -45.182 -52.833  12.130  1.00  0.00    -0.386 OA
HETATM   15  H   UNL     1     -44.695 -52.138  11.617  1.00  0.00     0.210 HD
ENDBRANCH   1  14
TORSDOF 3
ENDMDL
