MODEL 1
REMARK VINA RESULT:      -6.1      0.000      0.000
REMARK  4 active torsions:
REMARK  status: ('A' for Active; 'I' for Inactive)
REMARK    1  A    between atoms: N_5  and  C_6 
REMARK    2  A    between atoms: C_6  and  C_7 
REMARK    3  A    between atoms: C_7  and  N_8 
REMARK       I    between atoms: N_8  and  C_9 
REMARK       I    between atoms: C_9  and  N_11 
REMARK    4  A    between atoms: N_11  and  C_12 
ROOT
HETATM    1  N   UNL     1     -40.628 -49.305  10.593  1.00  0.00    -0.341 N 
HETATM    2  C   UNL     1     -41.815 -48.601  10.741  1.00  0.00     0.322 C 
HETATM    3  O   UNL     1     -42.302 -48.380  11.842  1.00  0.00    -0.247 OA
HETATM    4  N   UNL     1     -42.347 -48.249   9.530  1.00  0.00    -0.288 N 
HETATM    5  H   UNL     1     -40.024 -48.938   9.874  1.00  0.00     0.164 HD
HETATM    6  H   UNL     1     -42.081 -48.775   8.714  1.00  0.00     0.172 HD
ENDROOT
BRANCH   1   7
HETATM    7  C   UNL     1     -39.987 -49.743  11.824  1.00  0.00     0.154 C 
BRANCH   7   8
HETATM    8  C   UNL     1     -40.144 -51.245  12.099  1.00  0.00     0.292 C 
BRANCH   8   9
HETATM    9  N   UNL     1     -40.755 -51.542  13.407  1.00  0.00     0.090 N 
HETATM   10  C   UNL     1     -40.250 -52.765  14.049  1.00  0.00     0.273 C 
HETATM   11  C   UNL     1     -40.691 -54.049  13.342  1.00  0.00     0.034 C 
HETATM   12  C   UNL     1     -42.219 -54.133  13.202  1.00  0.00    -0.015 C 
HETATM   13  C   UNL     1     -42.880 -54.484  14.537  1.00  0.00     0.010 C 
HETATM   14  C   UNL     1     -42.775 -52.822  12.625  1.00  0.00     0.034 C 
HETATM   15  C   UNL     1     -42.223 -51.578  13.333  1.00  0.00     0.273 C 
ENDBRANCH   8   9
ENDBRANCH   7   8
ENDBRANCH   1   7
BRANCH   4  16
HETATM   16  C   UNL     1     -43.535 -47.569   9.486  1.00  0.00     0.168 A 
HETATM   17  N   UNL     1     -44.714 -47.902   9.954  1.00  0.00    -0.279 N 
HETATM   18  N   UNL     1     -45.681 -46.970   9.632  1.00  0.00    -0.303 N 
ATOM     19  HN  UNL     1     -44.895 -48.750  10.492  1.00  0.00     0.189 HD
HETATM   20  C   UNL     1     -45.176 -45.973   8.939  1.00  0.00     0.160 A 
ATOM     21  HN  UNL     1     -46.662 -47.045   9.898  1.00  0.00     0.186 HD
HETATM   22  S   UNL     1     -43.480 -46.062   8.684  1.00  0.00    -0.046 SA
ENDBRANCH   4  16
TORSDOF 4
ENDMDL
MODEL 2
REMARK VINA RESULT:      -6.0      4.214      5.825
REMARK  4 active torsions:
REMARK  status: ('A' for Active; 'I' for Inactive)
REMARK    1  A    between atoms: N_5  and  C_6 
REMARK    2  A    between atoms: C_6  and  C_7 
REMARK    3  A    between atoms: C_7  and  N_8 
REMARK       I    between atoms: N_8  and  C_9 
REMARK       I    between atoms: C_9  and  N_11 
REMARK    4  A    between atoms: N_11  and  C_12 
ROOT
HETATM    1  N   UNL     1     -41.219 -53.216  14.379  1.00  0.00    -0.341 N 
HETATM    2  C   UNL     1     -40.566 -52.704  13.266  1.00  0.00     0.322 C 
HETATM    3  O   UNL     1     -40.604 -53.267  12.179  1.00  0.00    -0.247 OA
HETATM    4  N   UNL     1     -39.878 -51.560  13.566  1.00  0.00    -0.288 N 
HETATM    5  H   UNL     1     -41.655 -52.513  14.955  1.00  0.00     0.164 HD
HETATM    6  H   UNL     1     -39.615 -51.391  14.522  1.00  0.00     0.172 HD
ENDROOT
BRANCH   1   7
HETATM    7  C   UNL     1     -41.968 -54.446  14.171  1.00  0.00     0.154 C 
BRANCH   7   8
HETATM    8  C   UNL     1     -43.436 -54.354  14.608  1.00  0.00     0.292 C 
BRANCH   8   9
HETATM    9  N   UNL     1     -44.386 -54.353  13.481  1.00  0.00     0.090 N 
HETATM   10  C   UNL     1     -44.117 -53.326  12.462  1.00  0.00     0.273 C 
HETATM   11  C   UNL     1     -44.401 -51.901  12.945  1.00  0.00     0.034 C 
HETATM   12  C   UNL     1     -45.836 -51.746  13.468  1.00  0.00    -0.015 C 
HETATM   13  C   UNL     1     -46.843 -51.697  12.317  1.00  0.00     0.010 C 
HETATM   14  C   UNL     1     -46.169 -52.872  14.460  1.00  0.00     0.034 C 
HETATM   15  C   UNL     1     -45.780 -54.260  13.937  1.00  0.00     0.273 C 
ENDBRANCH   8   9
ENDBRANCH   7   8
ENDBRANCH   1   7
BRANCH   4  16
HETATM   16  C   UNL     1     -39.154 -50.931  12.588  1.00  0.00     0.168 A 
HETATM   17  N   UNL     1     -39.550 -50.404  11.455  1.00  0.00    -0.279 N 
HETATM   18  N   UNL     1     -38.490 -49.933  10.704  1.00  0.00    -0.303 N 
ATOM     19  HN  UNL     1     -40.526 -50.348  11.162  1.00  0.00     0.189 HD
HETATM   20  C   UNL     1     -37.343 -50.126  11.318  1.00  0.00     0.160 A 
ATOM     21  HN  UNL     1     -38.585 -49.491   9.790  1.00  0.00     0.186 HD
HETATM   22  S   UNL     1     -37.474 -50.833  12.878  1.00  0.00    -0.046 SA
ENDBRANCH   4  16
TORSDOF 4
ENDMDL
MODEL 3
REMARK VINA RESULT:      -6.0      3.026      4.413
REMARK  4 active torsions:
REMARK  status: ('A' for Active; 'I' for Inactive)
REMARK    1  A    between atoms: N_5  and  C_6 
REMARK    2  A    between atoms: C_6  and  C_7 
REMARK    3  A    between atoms: C_7  and  N_8 
REMARK       I    between atoms: N_8  and  C_9 
REMARK       I    between atoms: C_9  and  N_11 
REMARK    4  A    between atoms: N_11  and  C_12 
ROOT
HETATM    1  N   UNL     1     -41.443 -52.610  11.934  1.00  0.00    -0.341 N 
HETATM    2  C   UNL     1     -41.428 -51.228  12.056  1.00  0.00     0.322 C 
HETATM    3  O   UNL     1     -41.977 -50.656  12.989  1.00  0.00    -0.247 OA
HETATM    4  N   UNL     1     -40.776 -50.636  11.009  1.00  0.00    -0.288 N 
HETATM    5  H   UNL     1     -40.572 -53.001  11.608  1.00  0.00     0.164 HD
HETATM    6  H   UNL     1     -40.689 -51.144  10.145  1.00  0.00     0.172 HD
ENDROOT
BRANCH   1   7
HETATM    7  C   UNL     1     -42.130 -53.338  12.990  1.00  0.00     0.154 C 
BRANCH   7   8
HETATM    8  C   UNL     1     -43.647 -53.446  12.777  1.00  0.00     0.292 C 
BRANCH   8   9
HETATM    9  N   UNL     1     -44.403 -53.633  14.028  1.00  0.00     0.090 N 
HETATM   10  C   UNL     1     -45.848 -53.832  13.839  1.00  0.00     0.273 C 
HETATM   11  C   UNL     1     -46.579 -52.572  13.367  1.00  0.00     0.034 C 
HETATM   12  C   UNL     1     -46.340 -51.382  14.308  1.00  0.00    -0.015 C 
HETATM   13  C   UNL     1     -47.148 -51.525  15.600  1.00  0.00     0.010 C 
HETATM   14  C   UNL     1     -44.839 -51.221  14.598  1.00  0.00     0.034 C 
HETATM   15  C   UNL     1     -44.163 -52.543  14.984  1.00  0.00     0.273 C 
ENDBRANCH   8   9
ENDBRANCH   7   8
ENDBRANCH   1   7
BRANCH   4  16
HETATM   16  C   UNL     1     -40.686 -49.270  10.955  1.00  0.00     0.168 A 
HETATM   17  N   UNL     1     -41.346 -48.412  10.214  1.00  0.00    -0.279 N 
HETATM   18  N   UNL     1     -40.902 -47.118  10.401  1.00  0.00    -0.303 N 
ATOM     19  HN  UNL     1     -42.099 -48.670   9.576  1.00  0.00     0.189 HD
HETATM   20  C   UNL     1     -39.926 -47.067  11.282  1.00  0.00     0.160 A 
ATOM     21  HN  UNL     1     -41.281 -46.305   9.917  1.00  0.00     0.186 HD
HETATM   22  S   UNL     1     -39.524 -48.576  11.995  1.00  0.00    -0.046 SA
ENDBRANCH   4  16
TORSDOF 4
ENDMDL
MODEL 4
REMARK VINA RESULT:      -5.9      3.371      5.202
REMARK  4 active torsions:
REMARK  status: ('A' for Active; 'I' for Inactive)
REMARK    1  A    between atoms: N_5  and  C_6 
REMARK    2  A    between atoms: C_6  and  C_7 
REMARK    3  A    between atoms: C_7  and  N_8 
REMARK       I    between atoms: N_8  and  C_9 
REMARK       I    between atoms: C_9  and  N_11 
REMARK    4  A    between atoms: N_11  and  C_12 
ROOT
HETATM    1  N   UNL     1     -42.791 -52.663  12.080  1.00  0.00    -0.341 N 
HETATM    2  C   UNL     1     -41.642 -51.906  12.261  1.00  0.00     0.322 C 
HETATM    3  O   UNL     1     -40.822 -52.175  13.130  1.00  0.00    -0.247 OA
HETATM    4  N   UNL     1     -41.592 -50.848  11.395  1.00  0.00    -0.288 N 
HETATM    5  H   UNL     1     -43.038 -52.803  11.112  1.00  0.00     0.164 HD
HETATM    6  H   UNL     1     -42.451 -50.513  10.992  1.00  0.00     0.172 HD
ENDROOT
BRANCH   1   7
HETATM    7  C   UNL     1     -42.950 -53.806  12.966  1.00  0.00     0.154 C 
BRANCH   7   8
HETATM    8  C   UNL     1     -44.403 -54.055  13.393  1.00  0.00     0.292 C 
BRANCH   8   9
HETATM    9  N   UNL     1     -44.667 -53.719  14.804  1.00  0.00     0.090 N 
HETATM   10  C   UNL     1     -46.030 -54.036  15.258  1.00  0.00     0.273 C 
HETATM   11  C   UNL     1     -47.100 -53.126  14.648  1.00  0.00     0.034 C 
HETATM   12  C   UNL     1     -46.804 -51.640  14.898  1.00  0.00    -0.015 C 
HETATM   13  C   UNL     1     -47.111 -51.250  16.346  1.00  0.00     0.010 C 
HETATM   14  C   UNL     1     -45.350 -51.314  14.523  1.00  0.00     0.034 C 
HETATM   15  C   UNL     1     -44.346 -52.317  15.104  1.00  0.00     0.273 C 
ENDBRANCH   8   9
ENDBRANCH   7   8
ENDBRANCH   1   7
BRANCH   4  16
HETATM   16  C   UNL     1     -40.535 -49.978  11.451  1.00  0.00     0.168 A 
HETATM   17  N   UNL     1     -39.312 -50.110  10.996  1.00  0.00    -0.279 N 
HETATM   18  N   UNL     1     -38.518 -49.029  11.327  1.00  0.00    -0.303 N 
ATOM     19  HN  UNL     1     -38.986 -50.915  10.461  1.00  0.00     0.189 HD
HETATM   20  C   UNL     1     -39.190 -48.131  12.014  1.00  0.00     0.160 A 
ATOM     21  HN  UNL     1     -37.535 -48.939  11.071  1.00  0.00     0.186 HD
HETATM   22  S   UNL     1     -40.849 -48.503  12.251  1.00  0.00    -0.046 SA
ENDBRANCH   4  16
TORSDOF 4
ENDMDL
MODEL 5
REMARK VINA RESULT:      -5.9      2.920      4.032
REMARK  4 active torsions:
REMARK  status: ('A' for Active; 'I' for Inactive)
REMARK    1  A    between atoms: N_5  and  C_6 
REMARK    2  A    between atoms: C_6  and  C_7 
REMARK    3  A    between atoms: C_7  and  N_8 
REMARK       I    between atoms: N_8  and  C_9 
REMARK       I    between atoms: C_9  and  N_11 
REMARK    4  A    between atoms: N_11  and  C_12 
ROOT
HETATM    1  N   UNL     1     -40.966 -52.752  11.797  1.00  0.00    -0.341 N 
HETATM    2  C   UNL     1     -40.609 -51.433  12.037  1.00  0.00     0.322 C 
HETATM    3  O   UNL     1     -40.194 -51.064  13.129  1.00  0.00    -0.247 OA
HETATM    4  N   UNL     1     -40.820 -50.645  10.939  1.00  0.00    -0.288 N 
HETATM    5  H   UNL     1     -40.694 -53.089  10.886  1.00  0.00     0.164 HD
HETATM    6  H   UNL     1     -41.481 -50.951  10.245  1.00  0.00     0.172 HD
ENDROOT
BRANCH   1   7
HETATM    7  C   UNL     1     -40.796 -53.673  12.911  1.00  0.00     0.154 C 
BRANCH   7   8
HETATM    8  C   UNL     1     -42.120 -54.198  13.483  1.00  0.00     0.292 C 
BRANCH   8   9
HETATM    9  N   UNL     1     -43.256 -53.284  13.270  1.00  0.00     0.090 N 
HETATM   10  C   UNL     1     -43.669 -52.539  14.468  1.00  0.00     0.273 C 
HETATM   11  C   UNL     1     -44.336 -53.418  15.531  1.00  0.00     0.034 C 
HETATM   12  C   UNL     1     -45.535 -54.193  14.966  1.00  0.00    -0.015 C 
HETATM   13  C   UNL     1     -46.747 -53.278  14.774  1.00  0.00     0.010 C 
HETATM   14  C   UNL     1     -45.148 -54.897  13.656  1.00  0.00     0.034 C 
HETATM   15  C   UNL     1     -44.412 -53.973  12.678  1.00  0.00     0.273 C 
ENDBRANCH   8   9
ENDBRANCH   7   8
ENDBRANCH   1   7
BRANCH   4  16
HETATM   16  C   UNL     1     -40.545 -49.305  11.005  1.00  0.00     0.168 A 
HETATM   17  N   UNL     1     -39.430 -48.689  11.319  1.00  0.00    -0.279 N 
HETATM   18  N   UNL     1     -39.587 -47.317  11.347  1.00  0.00    -0.303 N 
ATOM     19  HN  UNL     1     -38.551 -49.167  11.518  1.00  0.00     0.189 HD
HETATM   20  C   UNL     1     -40.818 -46.967  11.046  1.00  0.00     0.160 A 
ATOM     21  HN  UNL     1     -38.842 -46.659  11.572  1.00  0.00     0.186 HD
HETATM   22  S   UNL     1     -41.857 -48.274  10.643  1.00  0.00    -0.046 SA
ENDBRANCH   4  16
TORSDOF 4
ENDMDL
MODEL 6
REMARK VINA RESULT:      -5.6      3.564      6.350
REMARK  4 active torsions:
REMARK  status: ('A' for Active; 'I' for Inactive)
REMARK    1  A    between atoms: N_5  and  C_6 
REMARK    2  A    between atoms: C_6  and  C_7 
REMARK    3  A    between atoms: C_7  and  N_8 
REMARK       I    between atoms: N_8  and  C_9 
REMARK       I    between atoms: C_9  and  N_11 
REMARK    4  A    between atoms: N_11  and  C_12 
ROOT
HETATM    1  N   UNL     1     -41.141 -51.843  11.568  1.00  0.00    -0.341 N 
HETATM    2  C   UNL     1     -42.302 -51.959  12.320  1.00  0.00     0.322 C 
HETATM    3  O   UNL     1     -42.507 -51.260  13.304  1.00  0.00    -0.247 OA
HETATM    4  N   UNL     1     -43.116 -52.950  11.842  1.00  0.00    -0.288 N 
HETATM    5  H   UNL     1     -41.289 -51.926  10.574  1.00  0.00     0.164 HD
HETATM    6  H   UNL     1     -42.709 -53.682  11.284  1.00  0.00     0.172 HD
ENDROOT
BRANCH   1   7
HETATM    7  C   UNL     1     -40.196 -50.827  12.005  1.00  0.00     0.154 C 
BRANCH   7   8
HETATM    8  C   UNL     1     -40.344 -49.490  11.266  1.00  0.00     0.292 C 
BRANCH   8   9
HETATM    9  N   UNL     1     -41.104 -48.480  12.025  1.00  0.00     0.090 N 
HETATM   10  C   UNL     1     -42.435 -48.182  11.474  1.00  0.00     0.273 C 
HETATM   11  C   UNL     1     -42.387 -47.419  10.148  1.00  0.00     0.034 C 
HETATM   12  C   UNL     1     -41.571 -46.122  10.259  1.00  0.00    -0.015 C 
HETATM   13  C   UNL     1     -42.353 -45.038  11.005  1.00  0.00     0.010 C 
HETATM   14  C   UNL     1     -40.215 -46.399  10.926  1.00  0.00     0.034 C 
HETATM   15  C   UNL     1     -40.340 -47.237  12.204  1.00  0.00     0.273 C 
ENDBRANCH   8   9
ENDBRANCH   7   8
ENDBRANCH   1   7
BRANCH   4  16
HETATM   16  C   UNL     1     -44.298 -53.221  12.480  1.00  0.00     0.168 A 
HETATM   17  N   UNL     1     -45.481 -52.676  12.326  1.00  0.00    -0.279 N 
HETATM   18  N   UNL     1     -46.402 -53.178  13.224  1.00  0.00    -0.303 N 
ATOM     19  HN  UNL     1     -45.695 -51.967  11.625  1.00  0.00     0.189 HD
HETATM   20  C   UNL     1     -45.863 -54.085  14.010  1.00  0.00     0.160 A 
ATOM     21  HN  UNL     1     -47.377 -52.884  13.272  1.00  0.00     0.186 HD
HETATM   22  S   UNL     1     -44.218 -54.440  13.672  1.00  0.00    -0.046 SA
ENDBRANCH   4  16
TORSDOF 4
ENDMDL
MODEL 7
REMARK VINA RESULT:      -5.3      4.173      6.074
REMARK  4 active torsions:
REMARK  status: ('A' for Active; 'I' for Inactive)
REMARK    1  A    between atoms: N_5  and  C_6 
REMARK    2  A    between atoms: C_6  and  C_7 
REMARK    3  A    between atoms: C_7  and  N_8 
REMARK       I    between atoms: N_8  and  C_9 
REMARK       I    between atoms: C_9  and  N_11 
REMARK    4  A    between atoms: N_11  and  C_12 
ROOT
HETATM    1  N   UNL     1     -42.279 -52.570  11.547  1.00  0.00    -0.341 N 
HETATM    2  C   UNL     1     -43.117 -52.825  12.624  1.00  0.00     0.322 C 
HETATM    3  O   UNL     1     -42.702 -52.837  13.776  1.00  0.00    -0.247 OA
HETATM    4  N   UNL     1     -44.397 -53.086  12.217  1.00  0.00    -0.288 N 
HETATM    5  H   UNL     1     -42.699 -51.997  10.831  1.00  0.00     0.164 HD
HETATM    6  H   UNL     1     -44.549 -53.405  11.275  1.00  0.00     0.172 HD
ENDROOT
BRANCH   1   7
HETATM    7  C   UNL     1     -40.887 -52.297  11.870  1.00  0.00     0.154 C 
BRANCH   7   8
HETATM    8  C   UNL     1     -40.558 -50.801  11.961  1.00  0.00     0.292 C 
BRANCH   8   9
HETATM    9  N   UNL     1     -40.279 -50.343  13.334  1.00  0.00     0.090 N 
HETATM   10  C   UNL     1     -40.252 -48.881  13.492  1.00  0.00     0.273 C 
HETATM   11  C   UNL     1     -39.041 -48.220  12.826  1.00  0.00     0.034 C 
HETATM   12  C   UNL     1     -37.716 -48.817  13.320  1.00  0.00    -0.015 C 
HETATM   13  C   UNL     1     -37.376 -48.324  14.729  1.00  0.00     0.010 C 
HETATM   14  C   UNL     1     -37.764 -50.352  13.257  1.00  0.00     0.034 C 
HETATM   15  C   UNL     1     -39.044 -50.933  13.870  1.00  0.00     0.273 C 
ENDBRANCH   8   9
ENDBRANCH   7   8
ENDBRANCH   1   7
BRANCH   4  16
HETATM   16  C   UNL     1     -45.355 -53.384  13.150  1.00  0.00     0.168 A 
HETATM   17  N   UNL     1     -45.799 -54.548  13.559  1.00  0.00    -0.279 N 
HETATM   18  N   UNL     1     -46.835 -54.419  14.463  1.00  0.00    -0.303 N 
ATOM     19  HN  UNL     1     -45.424 -55.444  13.245  1.00  0.00     0.189 HD
HETATM   20  C   UNL     1     -47.116 -53.155  14.695  1.00  0.00     0.160 A 
ATOM     21  HN  UNL     1     -47.320 -55.204  14.896  1.00  0.00     0.186 HD
HETATM   22  S   UNL     1     -46.100 -52.034  13.883  1.00  0.00    -0.046 SA
ENDBRANCH   4  16
TORSDOF 4
ENDMDL
MODEL 8
REMARK VINA RESULT:      -5.3      3.012      3.716
REMARK  4 active torsions:
REMARK  status: ('A' for Active; 'I' for Inactive)
REMARK    1  A    between atoms: N_5  and  C_6 
REMARK    2  A    between atoms: C_6  and  C_7 
REMARK    3  A    between atoms: C_7  and  N_8 
REMARK       I    between atoms: N_8  and  C_9 
REMARK       I    between atoms: C_9  and  N_11 
REMARK    4  A    between atoms: N_11  and  C_12 
ROOT
HETATM    1  N   UNL     1     -42.877 -48.198  13.685  1.00  0.00    -0.341 N 
HETATM    2  C   UNL     1     -42.863 -48.581  12.351  1.00  0.00     0.322 C 
HETATM    3  O   UNL     1     -42.494 -49.695  12.003  1.00  0.00    -0.247 OA
HETATM    4  N   UNL     1     -43.264 -47.562  11.530  1.00  0.00    -0.288 N 
HETATM    5  H   UNL     1     -43.677 -47.640  13.941  1.00  0.00     0.164 HD
HETATM    6  H   UNL     1     -43.192 -46.616  11.863  1.00  0.00     0.172 HD
ENDROOT
BRANCH   1   7
HETATM    7  C   UNL     1     -42.449 -49.205  14.644  1.00  0.00     0.154 C 
BRANCH   7   8
HETATM    8  C   UNL     1     -43.557 -49.643  15.612  1.00  0.00     0.292 C 
BRANCH   8   9
HETATM    9  N   UNL     1     -43.804 -51.096  15.604  1.00  0.00     0.090 N 
HETATM   10  C   UNL     1     -44.100 -51.653  14.275  1.00  0.00     0.273 C 
HETATM   11  C   UNL     1     -45.467 -51.230  13.730  1.00  0.00     0.034 C 
HETATM   12  C   UNL     1     -46.606 -51.575  14.701  1.00  0.00    -0.015 C 
HETATM   13  C   UNL     1     -46.916 -53.073  14.682  1.00  0.00     0.010 C 
HETATM   14  C   UNL     1     -46.267 -51.087  16.118  1.00  0.00     0.034 C 
HETATM   15  C   UNL     1     -44.851 -51.481  16.560  1.00  0.00     0.273 C 
ENDBRANCH   8   9
ENDBRANCH   7   8
ENDBRANCH   1   7
BRANCH   4  16
HETATM   16  C   UNL     1     -43.287 -47.758  10.174  1.00  0.00     0.168 A 
HETATM   17  N   UNL     1     -42.344 -48.185   9.369  1.00  0.00    -0.279 N 
HETATM   18  N   UNL     1     -42.744 -48.166   8.047  1.00  0.00    -0.303 N 
ATOM     19  HN  UNL     1     -41.425 -48.496   9.682  1.00  0.00     0.189 HD
HETATM   20  C   UNL     1     -43.978 -47.726   7.924  1.00  0.00     0.160 A 
ATOM     21  HN  UNL     1     -42.158 -48.455   7.265  1.00  0.00     0.186 HD
HETATM   22  S   UNL     1     -44.763 -47.368   9.409  1.00  0.00    -0.046 SA
ENDBRANCH   4  16
TORSDOF 4
ENDMDL
MODEL 9
REMARK VINA RESULT:      -5.3      2.492      4.003
REMARK  4 active torsions:
REMARK  status: ('A' for Active; 'I' for Inactive)
REMARK    1  A    between atoms: N_5  and  C_6 
REMARK    2  A    between atoms: C_6  and  C_7 
REMARK    3  A    between atoms: C_7  and  N_8 
REMARK       I    between atoms: N_8  and  C_9 
REMARK       I    between atoms: C_9  and  N_11 
REMARK    4  A    between atoms: N_11  and  C_12 
ROOT
HETATM    1  N   UNL     1     -40.738 -50.144  10.992  1.00  0.00    -0.341 N 
HETATM    2  C   UNL     1     -41.657 -49.105  11.010  1.00  0.00     0.322 C 
HETATM    3  O   UNL     1     -42.411 -48.925  11.957  1.00  0.00    -0.247 OA
HETATM    4  N   UNL     1     -41.621 -48.380   9.850  1.00  0.00    -0.288 N 
HETATM    5  H   UNL     1     -39.846 -49.893  10.592  1.00  0.00     0.164 HD
HETATM    6  H   UNL     1     -41.248 -48.811   9.021  1.00  0.00     0.172 HD
ENDROOT
BRANCH   1   7
HETATM    7  C   UNL     1     -40.707 -50.991  12.175  1.00  0.00     0.154 C 
BRANCH   7   8
HETATM    8  C   UNL     1     -39.399 -50.890  12.971  1.00  0.00     0.292 C 
BRANCH   8   9
HETATM    9  N   UNL     1     -39.559 -50.243  14.286  1.00  0.00     0.090 N 
HETATM   10  C   UNL     1     -39.768 -48.788  14.225  1.00  0.00     0.273 C 
HETATM   11  C   UNL     1     -38.522 -48.013  13.787  1.00  0.00     0.034 C 
HETATM   12  C   UNL     1     -37.309 -48.323  14.677  1.00  0.00    -0.015 C 
HETATM   13  C   UNL     1     -37.426 -47.628  16.035  1.00  0.00     0.010 C 
HETATM   14  C   UNL     1     -37.136 -49.842  14.834  1.00  0.00     0.034 C 
HETATM   15  C   UNL     1     -38.445 -50.557  15.192  1.00  0.00     0.273 C 
ENDBRANCH   8   9
ENDBRANCH   7   8
ENDBRANCH   1   7
BRANCH   4  16
HETATM   16  C   UNL     1     -42.482 -47.327   9.684  1.00  0.00     0.168 A 
HETATM   17  N   UNL     1     -42.629 -46.239  10.402  1.00  0.00    -0.279 N 
HETATM   18  N   UNL     1     -43.671 -45.455   9.945  1.00  0.00    -0.303 N 
ATOM     19  HN  UNL     1     -42.044 -46.000  11.202  1.00  0.00     0.189 HD
HETATM   20  C   UNL     1     -44.254 -45.993   8.896  1.00  0.00     0.160 A 
ATOM     21  HN  UNL     1     -43.951 -44.570  10.367  1.00  0.00     0.186 HD
HETATM   22  S   UNL     1     -43.540 -47.456   8.350  1.00  0.00    -0.046 SA
ENDBRANCH   4  16
TORSDOF 4
ENDMDL
