MODEL 1
REMARK VINA RESULT:      -5.7      0.000      0.000
REMARK  7 active torsions:
REMARK  status: ('A' for Active; 'I' for Inactive)
REMARK    1  A    between atoms: C_2  and  C_3 
REMARK    2  A    between atoms: C_3  and  N_4 
REMARK    3  A    between atoms: N_7  and  C_8 
REMARK    4  A    between atoms: C_8  and  C_9 
REMARK    5  A    between atoms: C_9  and  O_10 
REMARK    6  A    between atoms: C_9  and  C_11 
REMARK    7  A    between atoms: C_11  and  N_12 
ROOT
HETATM    1  N   UNL     1     -41.004 -49.351  11.754  1.00  0.00    -0.297 N 
HETATM    2  C   UNL     1     -41.884 -50.122  12.537  1.00  0.00     0.330 A 
HETATM    3  O   UNL     1     -43.106 -50.087  12.535  1.00  0.00    -0.246 OA
HETATM    4  N   UNL     1     -41.082 -50.998  13.308  1.00  0.00    -0.295 N 
HETATM    5  C   UNL     1     -39.742 -50.817  12.930  1.00  0.00     0.066 A 
HETATM    6  C   UNL     1     -38.606 -51.488  13.335  1.00  0.00     0.032 A 
HETATM    7  C   UNL     1     -37.396 -51.122  12.737  1.00  0.00     0.002 A 
HETATM    8  C   UNL     1     -37.348 -50.107  11.763  1.00  0.00     0.002 A 
HETATM    9  C   UNL     1     -38.508 -49.436  11.366  1.00  0.00     0.032 A 
HETATM   10  C   UNL     1     -39.695 -49.808  11.965  1.00  0.00     0.066 A 
ENDROOT
BRANCH   4  11
HETATM   11  C   UNL     1     -41.599 -52.132  14.055  1.00  0.00     0.167 C 
BRANCH  11  12
HETATM   12  C   UNL     1     -42.222 -53.187  13.121  1.00  0.00     0.164 C 
BRANCH  12  13
HETATM   13  O   UNL     1     -41.166 -53.986  12.558  1.00  0.00    -0.392 OA
HETATM   14  H   UNL     1     -41.588 -54.593  11.921  1.00  0.00     0.210 HD
ENDBRANCH  12  13
BRANCH  12  15
HETATM   15  C   UNL     1     -43.228 -54.129  13.836  1.00  0.00     0.305 C 
BRANCH  15  16
HETATM   16  N   UNL     1     -44.469 -54.309  13.038  1.00  0.00     0.095 N 
HETATM   17  C   UNL     1     -45.108 -53.022  12.660  1.00  0.00     0.298 C 
HETATM   18  C   UNL     1     -45.768 -52.292  13.841  1.00  0.00     0.198 C 
HETATM   19  O   UNL     1     -46.770 -53.115  14.449  1.00  0.00    -0.388 OA
HETATM   20  C   UNL     1     -46.215 -54.359  14.892  1.00  0.00     0.198 C 
HETATM   21  C   UNL     1     -45.495 -55.107  13.753  1.00  0.00     0.298 C 
ENDBRANCH  15  16
ENDBRANCH  12  15
ENDBRANCH  11  12
ENDBRANCH   4  11
BRANCH   1  22
HETATM   22  C   UNL     1     -41.407 -48.382  10.760  1.00  0.00     0.134 C 
BRANCH  22  23
HETATM   23  C   UNL     1     -41.397 -46.952  11.308  1.00  0.00     0.016 C 
HETATM   24  C   UNL     1     -40.148 -46.197  10.879  1.00  0.00     0.006 C 
ENDBRANCH  22  23
ENDBRANCH   1  22
TORSDOF 7
ENDMDL
MODEL 2
REMARK VINA RESULT:      -5.7      2.335      6.682
REMARK  7 active torsions:
REMARK  status: ('A' for Active; 'I' for Inactive)
REMARK    1  A    between atoms: C_2  and  C_3 
REMARK    2  A    between atoms: C_3  and  N_4 
REMARK    3  A    between atoms: N_7  and  C_8 
REMARK    4  A    between atoms: C_8  and  C_9 
REMARK    5  A    between atoms: C_9  and  O_10 
REMARK    6  A    between atoms: C_9  and  C_11 
REMARK    7  A    between atoms: C_11  and  N_12 
ROOT
HETATM    1  N   UNL     1     -43.667 -51.352  13.129  1.00  0.00    -0.297 N 
HETATM    2  C   UNL     1     -42.974 -50.147  12.898  1.00  0.00     0.330 A 
HETATM    3  O   UNL     1     -43.438 -49.017  12.874  1.00  0.00    -0.246 OA
HETATM    4  N   UNL     1     -41.608 -50.485  12.747  1.00  0.00    -0.295 N 
HETATM    5  C   UNL     1     -41.468 -51.864  12.968  1.00  0.00     0.066 A 
HETATM    6  C   UNL     1     -40.332 -52.647  13.010  1.00  0.00     0.032 A 
HETATM    7  C   UNL     1     -40.495 -54.003  13.313  1.00  0.00     0.002 A 
HETATM    8  C   UNL     1     -41.772 -54.540  13.561  1.00  0.00     0.002 A 
HETATM    9  C   UNL     1     -42.913 -53.733  13.514  1.00  0.00     0.032 A 
HETATM   10  C   UNL     1     -42.735 -52.397  13.213  1.00  0.00     0.066 A 
ENDROOT
BRANCH   4  11
HETATM   11  C   UNL     1     -40.524 -49.519  12.751  1.00  0.00     0.167 C 
BRANCH  11  12
HETATM   12  C   UNL     1     -40.213 -49.013  11.329  1.00  0.00     0.164 C 
BRANCH  12  13
HETATM   13  O   UNL     1     -40.455 -50.082  10.397  1.00  0.00    -0.392 OA
HETATM   14  H   UNL     1     -39.746 -50.032   9.728  1.00  0.00     0.210 HD
ENDBRANCH  12  13
BRANCH  12  15
HETATM   15  C   UNL     1     -41.068 -47.787  10.908  1.00  0.00     0.305 C 
BRANCH  15  16
HETATM   16  N   UNL     1     -41.017 -46.710  11.931  1.00  0.00     0.095 N 
HETATM   17  C   UNL     1     -42.236 -45.861  11.941  1.00  0.00     0.298 C 
HETATM   18  C   UNL     1     -42.350 -44.932  10.722  1.00  0.00     0.198 C 
HETATM   19  O   UNL     1     -41.214 -44.064  10.637  1.00  0.00    -0.388 OA
HETATM   20  C   UNL     1     -39.997 -44.816  10.568  1.00  0.00     0.198 C 
HETATM   21  C   UNL     1     -39.860 -45.802  11.744  1.00  0.00     0.298 C 
ENDBRANCH  15  16
ENDBRANCH  12  15
ENDBRANCH  11  12
ENDBRANCH   4  11
BRANCH   1  22
HETATM   22  C   UNL     1     -45.079 -51.457  13.416  1.00  0.00     0.134 C 
BRANCH  22  23
HETATM   23  C   UNL     1     -45.384 -51.256  14.904  1.00  0.00     0.016 C 
HETATM   24  C   UNL     1     -46.870 -51.401  15.195  1.00  0.00     0.006 C 
ENDBRANCH  22  23
ENDBRANCH   1  22
TORSDOF 7
ENDMDL
MODEL 3
REMARK VINA RESULT:      -5.6      2.635      7.041
REMARK  7 active torsions:
REMARK  status: ('A' for Active; 'I' for Inactive)
REMARK    1  A    between atoms: C_2  and  C_3 
REMARK    2  A    between atoms: C_3  and  N_4 
REMARK    3  A    between atoms: N_7  and  C_8 
REMARK    4  A    between atoms: C_8  and  C_9 
REMARK    5  A    between atoms: C_9  and  O_10 
REMARK    6  A    between atoms: C_9  and  C_11 
REMARK    7  A    between atoms: C_11  and  N_12 
ROOT
HETATM    1  N   UNL     1     -40.765 -54.372  14.757  1.00  0.00    -0.297 N 
HETATM    2  C   UNL     1     -40.100 -53.528  13.847  1.00  0.00     0.330 A 
HETATM    3  O   UNL     1     -38.897 -53.329  13.762  1.00  0.00    -0.246 OA
HETATM    4  N   UNL     1     -41.093 -52.980  13.000  1.00  0.00    -0.295 N 
HETATM    5  C   UNL     1     -42.328 -53.552  13.341  1.00  0.00     0.066 A 
HETATM    6  C   UNL     1     -43.570 -53.399  12.757  1.00  0.00     0.032 A 
HETATM    7  C   UNL     1     -44.625 -54.151  13.284  1.00  0.00     0.002 A 
HETATM    8  C   UNL     1     -44.420 -55.025  14.367  1.00  0.00     0.002 A 
HETATM    9  C   UNL     1     -43.157 -55.167  14.948  1.00  0.00     0.032 A 
HETATM   10  C   UNL     1     -42.125 -54.418  14.417  1.00  0.00     0.066 A 
ENDROOT
BRANCH   4  11
HETATM   11  C   UNL     1     -40.809 -52.263  11.769  1.00  0.00     0.167 C 
BRANCH  11  12
HETATM   12  C   UNL     1     -40.118 -50.914  12.047  1.00  0.00     0.164 C 
BRANCH  12  13
HETATM   13  O   UNL     1     -38.704 -51.069  11.835  1.00  0.00    -0.392 OA
HETATM   14  H   UNL     1     -38.276 -50.913  12.698  1.00  0.00     0.210 HD
ENDBRANCH  12  13
BRANCH  12  15
HETATM   15  C   UNL     1     -40.630 -49.759  11.143  1.00  0.00     0.305 C 
BRANCH  15  16
HETATM   16  N   UNL     1     -41.352 -48.728  11.934  1.00  0.00     0.095 N 
HETATM   17  C   UNL     1     -42.615 -48.283  11.291  1.00  0.00     0.298 C 
HETATM   18  C   UNL     1     -42.398 -47.417  10.040  1.00  0.00     0.198 C 
HETATM   19  O   UNL     1     -41.634 -46.248  10.358  1.00  0.00    -0.388 OA
HETATM   20  C   UNL     1     -40.371 -46.601  10.934  1.00  0.00     0.198 C 
HETATM   21  C   UNL     1     -40.534 -47.513  12.166  1.00  0.00     0.298 C 
ENDBRANCH  15  16
ENDBRANCH  12  15
ENDBRANCH  11  12
ENDBRANCH   4  11
BRANCH   1  22
HETATM   22  C   UNL     1     -40.118 -55.197  15.753  1.00  0.00     0.134 C 
BRANCH  22  23
HETATM   23  C   UNL     1     -40.044 -54.506  17.118  1.00  0.00     0.016 C 
HETATM   24  C   UNL     1     -41.059 -55.083  18.092  1.00  0.00     0.006 C 
ENDBRANCH  22  23
ENDBRANCH   1  22
TORSDOF 7
ENDMDL
MODEL 4
REMARK VINA RESULT:      -5.5      3.869      6.451
REMARK  7 active torsions:
REMARK  status: ('A' for Active; 'I' for Inactive)
REMARK    1  A    between atoms: C_2  and  C_3 
REMARK    2  A    between atoms: C_3  and  N_4 
REMARK    3  A    between atoms: N_7  and  C_8 
REMARK    4  A    between atoms: C_8  and  C_9 
REMARK    5  A    between atoms: C_9  and  O_10 
REMARK    6  A    between atoms: C_9  and  C_11 
REMARK    7  A    between atoms: C_11  and  N_12 
ROOT
HETATM    1  N   UNL     1     -44.493 -53.438  13.601  1.00  0.00    -0.297 N 
HETATM    2  C   UNL     1     -44.487 -54.386  14.642  1.00  0.00     0.330 A 
HETATM    3  O   UNL     1     -45.453 -54.922  15.165  1.00  0.00    -0.246 OA
HETATM    4  N   UNL     1     -43.130 -54.647  14.947  1.00  0.00    -0.295 N 
HETATM    5  C   UNL     1     -42.329 -53.931  14.043  1.00  0.00     0.066 A 
HETATM    6  C   UNL     1     -40.958 -53.921  13.885  1.00  0.00     0.032 A 
HETATM    7  C   UNL     1     -40.435 -53.142  12.848  1.00  0.00     0.002 A 
HETATM    8  C   UNL     1     -41.282 -52.400  12.004  1.00  0.00     0.002 A 
HETATM    9  C   UNL     1     -42.669 -52.420  12.178  1.00  0.00     0.032 A 
HETATM   10  C   UNL     1     -43.170 -53.194  13.207  1.00  0.00     0.066 A 
ENDROOT
BRANCH   4  11
HETATM   11  C   UNL     1     -42.678 -55.749  15.780  1.00  0.00     0.167 C 
BRANCH  11  12
HETATM   12  C   UNL     1     -42.428 -55.294  17.230  1.00  0.00     0.164 C 
BRANCH  12  13
HETATM   13  O   UNL     1     -43.267 -56.066  18.107  1.00  0.00    -0.392 OA
HETATM   14  H   UNL     1     -42.715 -56.796  18.446  1.00  0.00     0.210 HD
ENDBRANCH  12  13
BRANCH  12  15
HETATM   15  C   UNL     1     -40.952 -55.460  17.685  1.00  0.00     0.305 C 
BRANCH  15  16
HETATM   16  N   UNL     1     -40.203 -56.375  16.783  1.00  0.00     0.095 N 
HETATM   17  C   UNL     1     -39.852 -57.666  17.429  1.00  0.00     0.298 C 
HETATM   18  C   UNL     1     -38.753 -57.541  18.496  1.00  0.00     0.198 C 
HETATM   19  O   UNL     1     -37.556 -56.996  17.930  1.00  0.00    -0.388 OA
HETATM   20  C   UNL     1     -37.806 -55.718  17.333  1.00  0.00     0.198 C 
HETATM   21  C   UNL     1     -38.938 -55.780  16.290  1.00  0.00     0.298 C 
ENDBRANCH  15  16
ENDBRANCH  12  15
ENDBRANCH  11  12
ENDBRANCH   4  11
BRANCH   1  22
HETATM   22  C   UNL     1     -45.676 -52.948  12.929  1.00  0.00     0.134 C 
BRANCH  22  23
HETATM   23  C   UNL     1     -46.031 -51.519  13.350  1.00  0.00     0.016 C 
HETATM   24  C   UNL     1     -46.772 -51.495  14.678  1.00  0.00     0.006 C 
ENDBRANCH  22  23
ENDBRANCH   1  22
TORSDOF 7
ENDMDL
MODEL 5
REMARK VINA RESULT:      -5.5      2.311      7.156
REMARK  7 active torsions:
REMARK  status: ('A' for Active; 'I' for Inactive)
REMARK    1  A    between atoms: C_2  and  C_3 
REMARK    2  A    between atoms: C_3  and  N_4 
REMARK    3  A    between atoms: N_7  and  C_8 
REMARK    4  A    between atoms: C_8  and  C_9 
REMARK    5  A    between atoms: C_9  and  O_10 
REMARK    6  A    between atoms: C_9  and  C_11 
REMARK    7  A    between atoms: C_11  and  N_12 
ROOT
HETATM    1  N   UNL     1     -43.769 -52.768  16.197  1.00  0.00    -0.297 N 
HETATM    2  C   UNL     1     -42.732 -53.286  15.397  1.00  0.00     0.330 A 
HETATM    3  O   UNL     1     -41.735 -53.886  15.770  1.00  0.00    -0.246 OA
HETATM    4  N   UNL     1     -43.086 -53.023  14.052  1.00  0.00    -0.295 N 
HETATM    5  C   UNL     1     -44.359 -52.432  14.038  1.00  0.00     0.066 A 
HETATM    6  C   UNL     1     -45.159 -52.068  12.973  1.00  0.00     0.032 A 
HETATM    7  C   UNL     1     -46.422 -51.545  13.267  1.00  0.00     0.002 A 
HETATM    8  C   UNL     1     -46.852 -51.397  14.599  1.00  0.00     0.002 A 
HETATM    9  C   UNL     1     -46.029 -51.769  15.666  1.00  0.00     0.032 A 
HETATM   10  C   UNL     1     -44.784 -52.284  15.360  1.00  0.00     0.066 A 
ENDROOT
BRANCH   4  11
HETATM   11  C   UNL     1     -42.421 -53.614  12.903  1.00  0.00     0.167 C 
BRANCH  11  12
HETATM   12  C   UNL     1     -41.130 -52.854  12.546  1.00  0.00     0.164 C 
BRANCH  12  13
HETATM   13  O   UNL     1     -40.578 -53.421  11.345  1.00  0.00    -0.392 OA
HETATM   14  H   UNL     1     -39.681 -53.049  11.249  1.00  0.00     0.210 HD
ENDBRANCH  12  13
BRANCH  12  15
HETATM   15  C   UNL     1     -41.349 -51.333  12.319  1.00  0.00     0.305 C 
BRANCH  15  16
HETATM   16  N   UNL     1     -40.628 -50.520  13.333  1.00  0.00     0.095 N 
HETATM   17  C   UNL     1     -40.594 -49.073  12.999  1.00  0.00     0.298 C 
HETATM   18  C   UNL     1     -39.668 -48.735  11.820  1.00  0.00     0.198 C 
HETATM   19  O   UNL     1     -38.326 -49.152  12.093  1.00  0.00    -0.388 OA
HETATM   20  C   UNL     1     -38.270 -50.556  12.371  1.00  0.00     0.198 C 
HETATM   21  C   UNL     1     -39.222 -50.955  13.515  1.00  0.00     0.298 C 
ENDBRANCH  15  16
ENDBRANCH  12  15
ENDBRANCH  11  12
ENDBRANCH   4  11
BRANCH   1  22
HETATM   22  C   UNL     1     -43.851 -52.892  17.635  1.00  0.00     0.134 C 
BRANCH  22  23
HETATM   23  C   UNL     1     -44.371 -54.266  18.070  1.00  0.00     0.016 C 
HETATM   24  C   UNL     1     -45.834 -54.204  18.482  1.00  0.00     0.006 C 
ENDBRANCH  22  23
ENDBRANCH   1  22
TORSDOF 7
ENDMDL
MODEL 6
REMARK VINA RESULT:      -5.4      2.598      6.687
REMARK  7 active torsions:
REMARK  status: ('A' for Active; 'I' for Inactive)
REMARK    1  A    between atoms: C_2  and  C_3 
REMARK    2  A    between atoms: C_3  and  N_4 
REMARK    3  A    between atoms: N_7  and  C_8 
REMARK    4  A    between atoms: C_8  and  C_9 
REMARK    5  A    between atoms: C_9  and  O_10 
REMARK    6  A    between atoms: C_9  and  C_11 
REMARK    7  A    between atoms: C_11  and  N_12 
ROOT
HETATM    1  N   UNL     1     -44.027 -52.602  14.175  1.00  0.00    -0.297 N 
HETATM    2  C   UNL     1     -43.053 -52.801  13.178  1.00  0.00     0.330 A 
HETATM    3  O   UNL     1     -42.908 -52.167  12.143  1.00  0.00    -0.246 OA
HETATM    4  N   UNL     1     -42.225 -53.859  13.623  1.00  0.00    -0.295 N 
HETATM    5  C   UNL     1     -42.642 -54.234  14.910  1.00  0.00     0.066 A 
HETATM    6  C   UNL     1     -42.104 -55.155  15.786  1.00  0.00     0.032 A 
HETATM    7  C   UNL     1     -42.708 -55.278  17.042  1.00  0.00     0.002 A 
HETATM    8  C   UNL     1     -43.820 -54.489  17.390  1.00  0.00     0.002 A 
HETATM    9  C   UNL     1     -44.353 -53.561  16.490  1.00  0.00     0.032 A 
HETATM   10  C   UNL     1     -43.747 -53.452  15.254  1.00  0.00     0.066 A 
ENDROOT
BRANCH   4  11
HETATM   11  C   UNL     1     -40.951 -54.208  13.017  1.00  0.00     0.167 C 
BRANCH  11  12
HETATM   12  C   UNL     1     -39.776 -53.519  13.735  1.00  0.00     0.164 C 
BRANCH  12  13
HETATM   13  O   UNL     1     -38.580 -54.284  13.501  1.00  0.00    -0.392 OA
HETATM   14  H   UNL     1     -38.775 -54.880  12.753  1.00  0.00     0.210 HD
ENDBRANCH  12  13
BRANCH  12  15
HETATM   15  C   UNL     1     -39.531 -52.061  13.262  1.00  0.00     0.305 C 
BRANCH  15  16
HETATM   16  N   UNL     1     -38.174 -51.585  13.641  1.00  0.00     0.095 N 
HETATM   17  C   UNL     1     -38.196 -50.594  14.748  1.00  0.00     0.298 C 
HETATM   18  C   UNL     1     -38.749 -49.221  14.334  1.00  0.00     0.198 C 
HETATM   19  O   UNL     1     -37.977 -48.664  13.264  1.00  0.00    -0.388 OA
HETATM   20  C   UNL     1     -37.956 -49.544  12.134  1.00  0.00     0.198 C 
HETATM   21  C   UNL     1     -37.456 -50.953  12.509  1.00  0.00     0.298 C 
ENDBRANCH  15  16
ENDBRANCH  12  15
ENDBRANCH  11  12
ENDBRANCH   4  11
BRANCH   1  22
HETATM   22  C   UNL     1     -45.030 -51.561  14.161  1.00  0.00     0.134 C 
BRANCH  22  23
HETATM   23  C   UNL     1     -46.393 -52.077  13.687  1.00  0.00     0.016 C 
HETATM   24  C   UNL     1     -46.719 -51.586  12.285  1.00  0.00     0.006 C 
ENDBRANCH  22  23
ENDBRANCH   1  22
TORSDOF 7
ENDMDL
MODEL 7
REMARK VINA RESULT:      -5.4      2.278      7.133
REMARK  7 active torsions:
REMARK  status: ('A' for Active; 'I' for Inactive)
REMARK    1  A    between atoms: C_2  and  C_3 
REMARK    2  A    between atoms: C_3  and  N_4 
REMARK    3  A    between atoms: N_7  and  C_8 
REMARK    4  A    between atoms: C_8  and  C_9 
REMARK    5  A    between atoms: C_9  and  O_10 
REMARK    6  A    between atoms: C_9  and  C_11 
REMARK    7  A    between atoms: C_11  and  N_12 
ROOT
HETATM    1  N   UNL     1     -43.007 -54.205  14.680  1.00  0.00    -0.297 N 
HETATM    2  C   UNL     1     -42.033 -53.777  13.757  1.00  0.00     0.330 A 
HETATM    3  O   UNL     1     -40.994 -54.346  13.456  1.00  0.00    -0.246 OA
HETATM    4  N   UNL     1     -42.508 -52.569  13.193  1.00  0.00    -0.295 N 
HETATM    5  C   UNL     1     -43.790 -52.318  13.706  1.00  0.00     0.066 A 
HETATM    6  C   UNL     1     -44.688 -51.314  13.403  1.00  0.00     0.032 A 
HETATM    7  C   UNL     1     -45.932 -51.349  14.041  1.00  0.00     0.002 A 
HETATM    8  C   UNL     1     -46.248 -52.371  14.955  1.00  0.00     0.002 A 
HETATM    9  C   UNL     1     -45.326 -53.380  15.252  1.00  0.00     0.032 A 
HETATM   10  C   UNL     1     -44.102 -53.331  14.615  1.00  0.00     0.066 A 
ENDROOT
BRANCH   4  11
HETATM   11  C   UNL     1     -41.933 -51.935  12.020  1.00  0.00     0.167 C 
BRANCH  11  12
HETATM   12  C   UNL     1     -40.692 -51.097  12.381  1.00  0.00     0.164 C 
BRANCH  12  13
HETATM   13  O   UNL     1     -39.515 -51.888  12.140  1.00  0.00    -0.392 OA
HETATM   14  H   UNL     1     -38.758 -51.363  12.458  1.00  0.00     0.210 HD
ENDBRANCH  12  13
BRANCH  12  15
HETATM   15  C   UNL     1     -40.577 -49.779  11.568  1.00  0.00     0.305 C 
BRANCH  15  16
HETATM   16  N   UNL     1     -41.380 -48.688  12.182  1.00  0.00     0.095 N 
HETATM   17  C   UNL     1     -42.605 -48.363  11.408  1.00  0.00     0.298 C 
HETATM   18  C   UNL     1     -42.322 -47.640  10.082  1.00  0.00     0.198 C 
HETATM   19  O   UNL     1     -41.613 -46.417  10.311  1.00  0.00    -0.388 OA
HETATM   20  C   UNL     1     -40.385 -46.658  11.009  1.00  0.00     0.198 C 
HETATM   21  C   UNL     1     -40.611 -47.428  12.325  1.00  0.00     0.298 C 
ENDBRANCH  15  16
ENDBRANCH  12  15
ENDBRANCH  11  12
ENDBRANCH   4  11
BRANCH   1  22
HETATM   22  C   UNL     1     -42.960 -55.442  15.426  1.00  0.00     0.134 C 
BRANCH  22  23
HETATM   23  C   UNL     1     -42.313 -55.264  16.803  1.00  0.00     0.016 C 
HETATM   24  C   UNL     1     -40.844 -55.661  16.785  1.00  0.00     0.006 C 
ENDBRANCH  22  23
ENDBRANCH   1  22
TORSDOF 7
ENDMDL
MODEL 8
REMARK VINA RESULT:      -5.3      2.446      6.238
REMARK  7 active torsions:
REMARK  status: ('A' for Active; 'I' for Inactive)
REMARK    1  A    between atoms: C_2  and  C_3 
REMARK    2  A    between atoms: C_3  and  N_4 
REMARK    3  A    between atoms: N_7  and  C_8 
REMARK    4  A    between atoms: C_8  and  C_9 
REMARK    5  A    between atoms: C_9  and  O_10 
REMARK    6  A    between atoms: C_9  and  C_11 
REMARK    7  A    between atoms: C_11  and  N_12 
ROOT
HETATM    1  N   UNL     1     -43.849 -51.426  15.793  1.00  0.00    -0.297 N 
HETATM    2  C   UNL     1     -42.653 -52.073  15.426  1.00  0.00     0.330 A 
HETATM    3  O   UNL     1     -41.644 -52.206  16.102  1.00  0.00    -0.246 OA
HETATM    4  N   UNL     1     -42.854 -52.594  14.126  1.00  0.00    -0.295 N 
HETATM    5  C   UNL     1     -44.182 -52.339  13.749  1.00  0.00     0.066 A 
HETATM    6  C   UNL     1     -44.872 -52.718  12.615  1.00  0.00     0.032 A 
HETATM    7  C   UNL     1     -46.223 -52.363  12.535  1.00  0.00     0.002 A 
HETATM    8  C   UNL     1     -46.845 -51.648  13.575  1.00  0.00     0.002 A 
HETATM    9  C   UNL     1     -46.131 -51.271  14.717  1.00  0.00     0.032 A 
HETATM   10  C   UNL     1     -44.798 -51.628  14.780  1.00  0.00     0.066 A 
ENDROOT
BRANCH   4  11
HETATM   11  C   UNL     1     -41.966 -53.548  13.484  1.00  0.00     0.167 C 
BRANCH  11  12
HETATM   12  C   UNL     1     -40.914 -52.839  12.609  1.00  0.00     0.164 C 
BRANCH  12  13
HETATM   13  O   UNL     1     -40.536 -53.721  11.538  1.00  0.00    -0.392 OA
HETATM   14  H   UNL     1     -40.049 -53.177  10.889  1.00  0.00     0.210 HD
ENDBRANCH  12  13
BRANCH  12  15
HETATM   15  C   UNL     1     -41.418 -51.504  11.996  1.00  0.00     0.305 C 
BRANCH  15  16
HETATM   16  N   UNL     1     -40.493 -50.381  12.301  1.00  0.00     0.095 N 
HETATM   17  C   UNL     1     -40.905 -49.597  13.494  1.00  0.00     0.298 C 
HETATM   18  C   UNL     1     -42.153 -48.731  13.260  1.00  0.00     0.198 C 
HETATM   19  O   UNL     1     -41.937 -47.810  12.185  1.00  0.00    -0.388 OA
HETATM   20  C   UNL     1     -41.588 -48.499  10.980  1.00  0.00     0.198 C 
HETATM   21  C   UNL     1     -40.370 -49.423  11.176  1.00  0.00     0.298 C 
ENDBRANCH  15  16
ENDBRANCH  12  15
ENDBRANCH  11  12
ENDBRANCH   4  11
BRANCH   1  22
HETATM   22  C   UNL     1     -44.107 -50.821  17.080  1.00  0.00     0.134 C 
BRANCH  22  23
HETATM   23  C   UNL     1     -44.035 -49.291  17.026  1.00  0.00     0.016 C 
HETATM   24  C   UNL     1     -45.130 -48.650  17.864  1.00  0.00     0.006 C 
ENDBRANCH  22  23
ENDBRANCH   1  22
TORSDOF 7
ENDMDL
MODEL 9
REMARK VINA RESULT:      -5.2      3.778      5.857
REMARK  7 active torsions:
REMARK  status: ('A' for Active; 'I' for Inactive)
REMARK    1  A    between atoms: C_2  and  C_3 
REMARK    2  A    between atoms: C_3  and  N_4 
REMARK    3  A    between atoms: N_7  and  C_8 
REMARK    4  A    between atoms: C_8  and  C_9 
REMARK    5  A    between atoms: C_9  and  O_10 
REMARK    6  A    between atoms: C_9  and  C_11 
REMARK    7  A    between atoms: C_11  and  N_12 
ROOT
HETATM    1  N   UNL     1     -40.935 -46.058  10.507  1.00  0.00    -0.297 N 
HETATM    2  C   UNL     1     -40.585 -47.180  11.283  1.00  0.00     0.330 A 
HETATM    3  O   UNL     1     -39.565 -47.341  11.938  1.00  0.00    -0.246 OA
HETATM    4  N   UNL     1     -41.670 -48.085  11.204  1.00  0.00    -0.295 N 
HETATM    5  C   UNL     1     -42.696 -47.480  10.462  1.00  0.00     0.066 A 
HETATM    6  C   UNL     1     -43.971 -47.926  10.179  1.00  0.00     0.032 A 
HETATM    7  C   UNL     1     -44.806 -47.071   9.453  1.00  0.00     0.002 A 
HETATM    8  C   UNL     1     -44.355 -45.807   9.030  1.00  0.00     0.002 A 
HETATM    9  C   UNL     1     -43.060 -45.371   9.324  1.00  0.00     0.032 A 
HETATM   10  C   UNL     1     -42.247 -46.227  10.041  1.00  0.00     0.066 A 
ENDROOT
BRANCH   4  11
HETATM   11  C   UNL     1     -41.826 -49.248  12.061  1.00  0.00     0.167 C 
BRANCH  11  12
HETATM   12  C   UNL     1     -40.956 -50.425  11.579  1.00  0.00     0.164 C 
BRANCH  12  13
HETATM   13  O   UNL     1     -40.368 -50.075  10.314  1.00  0.00    -0.392 OA
HETATM   14  H   UNL     1     -40.420 -49.103  10.243  1.00  0.00     0.210 HD
ENDBRANCH  12  13
BRANCH  12  15
HETATM   15  C   UNL     1     -39.818 -50.799  12.568  1.00  0.00     0.305 C 
BRANCH  15  16
HETATM   16  N   UNL     1     -40.128 -50.350  13.951  1.00  0.00     0.095 N 
HETATM   17  C   UNL     1     -39.005 -49.617  14.589  1.00  0.00     0.298 C 
HETATM   18  C   UNL     1     -37.816 -50.517  14.964  1.00  0.00     0.198 C 
HETATM   19  O   UNL     1     -38.228 -51.553  15.862  1.00  0.00    -0.388 OA
HETATM   20  C   UNL     1     -39.278 -52.342  15.290  1.00  0.00     0.198 C 
HETATM   21  C   UNL     1     -40.475 -51.477  14.850  1.00  0.00     0.298 C 
ENDBRANCH  15  16
ENDBRANCH  12  15
ENDBRANCH  11  12
ENDBRANCH   4  11
BRANCH   1  22
HETATM   22  C   UNL     1     -40.143 -44.857  10.377  1.00  0.00     0.134 C 
BRANCH  22  23
HETATM   23  C   UNL     1     -40.258 -43.950  11.607  1.00  0.00     0.016 C 
HETATM   24  C   UNL     1     -41.036 -42.681  11.294  1.00  0.00     0.006 C 
ENDBRANCH  22  23
ENDBRANCH   1  22
TORSDOF 7
ENDMDL
