MODEL 1
REMARK VINA RESULT:      -5.2      0.000      0.000
REMARK  7 active torsions:
REMARK  status: ('A' for Active; 'I' for Inactive)
REMARK    1  A    between atoms: C_2  and  C_4 
REMARK    2  A    between atoms: C_4  and  N_5 
REMARK       I    between atoms: N_5  and  C_6 
REMARK    3  A    between atoms: C_6  and  C_8 
REMARK    4  A    between atoms: C_8  and  N_9 
REMARK    5  A    between atoms: N_9  and  C_10 
REMARK    6  A    between atoms: C_10  and  C_11 
REMARK    7  A    between atoms: C_11  and  N_12 
ROOT
HETATM    1  N   UNL     1     -41.381 -51.683  11.342  1.00  0.00     0.093 N 
HETATM    2  H   UNL     1     -42.366 -51.404  11.316  1.00  0.00     0.316 HD
ENDROOT
BRANCH   1   3
HETATM    3  C   UNL     1     -41.220 -52.589  12.507  1.00  0.00     0.371 C 
BRANCH   3   4
HETATM    4  C   UNL     1     -42.583 -52.964  13.095  1.00  0.00     0.245 C 
HETATM    5  N   UNL     1     -43.642 -52.663  12.269  1.00  0.00    -0.359 N 
HETATM    6  H   UNL     1     -43.423 -52.089  11.459  1.00  0.00     0.162 HD
HETATM    7  O   UNL     1     -42.696 -53.540  14.173  1.00  0.00    -0.272 OA
BRANCH   5   8
HETATM    8  C   UNL     1     -45.014 -52.933  12.629  1.00  0.00     0.126 C 
BRANCH   8   9
HETATM    9  C   UNL     1     -45.872 -51.660  12.698  1.00  0.00    -0.005 C 
HETATM   10  C   UNL     1     -47.016 -51.699  11.684  1.00  0.00     0.011 C 
HETATM   11  C   UNL     1     -46.431 -51.486  14.110  1.00  0.00     0.011 C 
ENDBRANCH   8   9
ENDBRANCH   5   8
ENDBRANCH   3   4
ENDBRANCH   1   3
BRANCH   1  12
HETATM   12  C   UNL     1     -40.572 -50.458  11.510  1.00  0.00     0.291 C 
BRANCH  12  13
HETATM   13  C   UNL     1     -41.315 -49.311  12.200  1.00  0.00     0.178 C 
BRANCH  13  14
HETATM   14  N   UNL     1     -42.121 -48.551  11.264  1.00  0.00    -0.302 N 
HETATM   15  C   UNL     1     -43.343 -47.993  11.499  1.00  0.00     0.111 A 
HETATM   16  C   UNL     1     -43.742 -47.439  10.304  1.00  0.00     0.037 A 
HETATM   17  C   UNL     1     -42.687 -47.715   9.415  1.00  0.00     0.108 A 
HETATM   18  N   UNL     1     -41.690 -48.383   9.999  1.00  0.00    -0.310 N 
ATOM     19  HN  UNL     1     -40.811 -48.692   9.585  1.00  0.00     0.186 HD
ENDBRANCH  13  14
ENDBRANCH  12  13
ENDBRANCH   1  12
TORSDOF 7
ENDMDL
MODEL 2
REMARK VINA RESULT:      -5.1      2.031      2.465
REMARK  7 active torsions:
REMARK  status: ('A' for Active; 'I' for Inactive)
REMARK    1  A    between atoms: C_2  and  C_4 
REMARK    2  A    between atoms: C_4  and  N_5 
REMARK       I    between atoms: N_5  and  C_6 
REMARK    3  A    between atoms: C_6  and  C_8 
REMARK    4  A    between atoms: C_8  and  N_9 
REMARK    5  A    between atoms: N_9  and  C_10 
REMARK    6  A    between atoms: C_10  and  C_11 
REMARK    7  A    between atoms: C_11  and  N_12 
ROOT
HETATM    1  N   UNL     1     -41.895 -50.039  11.516  1.00  0.00     0.093 N 
HETATM    2  H   UNL     1     -42.435 -49.931  12.380  1.00  0.00     0.316 HD
ENDROOT
BRANCH   1   3
HETATM    3  C   UNL     1     -40.790 -50.985  11.814  1.00  0.00     0.371 C 
BRANCH   3   4
HETATM    4  C   UNL     1     -41.332 -52.398  12.047  1.00  0.00     0.245 C 
HETATM    5  N   UNL     1     -42.706 -52.472  12.017  1.00  0.00    -0.359 N 
HETATM    6  H   UNL     1     -43.198 -51.584  12.014  1.00  0.00     0.162 HD
HETATM    7  O   UNL     1     -40.595 -53.369  12.178  1.00  0.00    -0.272 OA
BRANCH   5   8
HETATM    8  C   UNL     1     -43.425 -53.710  12.215  1.00  0.00     0.126 C 
BRANCH   8   9
HETATM    9  C   UNL     1     -43.945 -53.873  13.651  1.00  0.00    -0.005 C 
HETATM   10  C   UNL     1     -45.281 -54.615  13.683  1.00  0.00     0.011 C 
HETATM   11  C   UNL     1     -42.911 -54.618  14.496  1.00  0.00     0.011 C 
ENDBRANCH   8   9
ENDBRANCH   5   8
ENDBRANCH   3   4
ENDBRANCH   1   3
BRANCH   1  12
HETATM   12  C   UNL     1     -41.367 -48.709  11.148  1.00  0.00     0.291 C 
BRANCH  12  13
HETATM   13  C   UNL     1     -42.421 -47.599  11.151  1.00  0.00     0.178 C 
BRANCH  13  14
HETATM   14  N   UNL     1     -43.235 -47.625   9.949  1.00  0.00    -0.302 N 
HETATM   15  C   UNL     1     -44.585 -47.457   9.870  1.00  0.00     0.111 A 
HETATM   16  C   UNL     1     -44.911 -47.633   8.545  1.00  0.00     0.037 A 
HETATM   17  C   UNL     1     -43.685 -47.899   7.909  1.00  0.00     0.108 A 
HETATM   18  N   UNL     1     -42.657 -47.882   8.760  1.00  0.00    -0.310 N 
ATOM     19  HN  UNL     1     -41.668 -48.030   8.558  1.00  0.00     0.186 HD
ENDBRANCH  13  14
ENDBRANCH  12  13
ENDBRANCH   1  12
TORSDOF 7
ENDMDL
MODEL 3
REMARK VINA RESULT:      -5.1      2.658      3.776
REMARK  7 active torsions:
REMARK  status: ('A' for Active; 'I' for Inactive)
REMARK    1  A    between atoms: C_2  and  C_4 
REMARK    2  A    between atoms: C_4  and  N_5 
REMARK       I    between atoms: N_5  and  C_6 
REMARK    3  A    between atoms: C_6  and  C_8 
REMARK    4  A    between atoms: C_8  and  N_9 
REMARK    5  A    between atoms: N_9  and  C_10 
REMARK    6  A    between atoms: C_10  and  C_11 
REMARK    7  A    between atoms: C_11  and  N_12 
ROOT
HETATM    1  N   UNL     1     -42.841 -52.651  11.720  1.00  0.00     0.093 N 
HETATM    2  H   UNL     1     -43.339 -51.756  11.744  1.00  0.00     0.316 HD
ENDROOT
BRANCH   1   3
HETATM    3  C   UNL     1     -43.415 -53.493  12.800  1.00  0.00     0.371 C 
BRANCH   3   4
HETATM    4  C   UNL     1     -44.903 -53.186  12.996  1.00  0.00     0.245 C 
HETATM    5  N   UNL     1     -45.269 -53.050  14.316  1.00  0.00    -0.359 N 
HETATM    6  H   UNL     1     -44.571 -53.328  15.000  1.00  0.00     0.162 HD
HETATM    7  O   UNL     1     -45.666 -53.013  12.051  1.00  0.00    -0.272 OA
BRANCH   5   8
HETATM    8  C   UNL     1     -46.624 -52.761  14.724  1.00  0.00     0.126 C 
BRANCH   8   9
HETATM    9  C   UNL     1     -46.767 -51.372  15.365  1.00  0.00    -0.005 C 
HETATM   10  C   UNL     1     -47.783 -51.384  16.508  1.00  0.00     0.011 C 
HETATM   11  C   UNL     1     -45.409 -50.894  15.877  1.00  0.00     0.011 C 
ENDBRANCH   8   9
ENDBRANCH   5   8
ENDBRANCH   3   4
ENDBRANCH   1   3
BRANCH   1  12
HETATM   12  C   UNL     1     -41.411 -52.376  11.969  1.00  0.00     0.291 C 
BRANCH  12  13
HETATM   13  C   UNL     1     -41.048 -50.889  11.936  1.00  0.00     0.178 C 
BRANCH  13  14
HETATM   14  N   UNL     1     -39.613 -50.684  11.985  1.00  0.00    -0.302 N 
HETATM   15  C   UNL     1     -38.759 -51.092  12.967  1.00  0.00     0.111 A 
HETATM   16  C   UNL     1     -37.519 -50.612  12.613  1.00  0.00     0.037 A 
HETATM   17  C   UNL     1     -37.734 -49.933  11.400  1.00  0.00     0.108 A 
HETATM   18  N   UNL     1     -39.007 -49.985  11.006  1.00  0.00    -0.310 N 
ATOM     19  HN  UNL     1     -39.424 -49.588  10.163  1.00  0.00     0.186 HD
ENDBRANCH  13  14
ENDBRANCH  12  13
ENDBRANCH   1  12
TORSDOF 7
ENDMDL
MODEL 4
REMARK VINA RESULT:      -5.0      1.262      1.463
REMARK  7 active torsions:
REMARK  status: ('A' for Active; 'I' for Inactive)
REMARK    1  A    between atoms: C_2  and  C_4 
REMARK    2  A    between atoms: C_4  and  N_5 
REMARK       I    between atoms: N_5  and  C_6 
REMARK    3  A    between atoms: C_6  and  C_8 
REMARK    4  A    between atoms: C_8  and  N_9 
REMARK    5  A    between atoms: N_9  and  C_10 
REMARK    6  A    between atoms: C_10  and  C_11 
REMARK    7  A    between atoms: C_11  and  N_12 
ROOT
HETATM    1  N   UNL     1     -41.495 -49.872  12.160  1.00  0.00     0.093 N 
HETATM    2  H   UNL     1     -40.878 -49.589  12.926  1.00  0.00     0.316 HD
ENDROOT
BRANCH   1   3
HETATM    3  C   UNL     1     -41.218 -51.304  11.888  1.00  0.00     0.371 C 
BRANCH   3   4
HETATM    4  C   UNL     1     -42.294 -52.194  12.516  1.00  0.00     0.245 C 
HETATM    5  N   UNL     1     -43.536 -51.601  12.572  1.00  0.00    -0.359 N 
HETATM    6  H   UNL     1     -43.564 -50.610  12.353  1.00  0.00     0.162 HD
HETATM    7  O   UNL     1     -42.068 -53.347  12.868  1.00  0.00    -0.272 OA
BRANCH   5   8
HETATM    8  C   UNL     1     -44.693 -52.264  13.126  1.00  0.00     0.126 C 
BRANCH   8   9
HETATM    9  C   UNL     1     -45.952 -51.384  13.099  1.00  0.00    -0.005 C 
HETATM   10  C   UNL     1     -46.891 -51.784  11.960  1.00  0.00     0.011 C 
HETATM   11  C   UNL     1     -46.683 -51.482  14.439  1.00  0.00     0.011 C 
ENDBRANCH   8   9
ENDBRANCH   5   8
ENDBRANCH   3   4
ENDBRANCH   1   3
BRANCH   1  12
HETATM   12  C   UNL     1     -41.163 -49.038  10.986  1.00  0.00     0.291 C 
BRANCH  12  13
HETATM   13  C   UNL     1     -41.881 -47.686  10.959  1.00  0.00     0.178 C 
BRANCH  13  14
HETATM   14  N   UNL     1     -42.911 -47.643   9.937  1.00  0.00    -0.302 N 
HETATM   15  C   UNL     1     -44.240 -47.403  10.122  1.00  0.00     0.111 A 
HETATM   16  C   UNL     1     -44.823 -47.532   8.882  1.00  0.00     0.037 A 
HETATM   17  C   UNL     1     -43.758 -47.847   8.019  1.00  0.00     0.108 A 
HETATM   18  N   UNL     1     -42.587 -47.903   8.656  1.00  0.00    -0.310 N 
ATOM     19  HN  UNL     1     -41.665 -48.097   8.265  1.00  0.00     0.186 HD
ENDBRANCH  13  14
ENDBRANCH  12  13
ENDBRANCH   1  12
TORSDOF 7
ENDMDL
MODEL 5
REMARK VINA RESULT:      -4.9      2.006      5.030
REMARK  7 active torsions:
REMARK  status: ('A' for Active; 'I' for Inactive)
REMARK    1  A    between atoms: C_2  and  C_4 
REMARK    2  A    between atoms: C_4  and  N_5 
REMARK       I    between atoms: N_5  and  C_6 
REMARK    3  A    between atoms: C_6  and  C_8 
REMARK    4  A    between atoms: C_8  and  N_9 
REMARK    5  A    between atoms: N_9  and  C_10 
REMARK    6  A    between atoms: C_10  and  C_11 
REMARK    7  A    between atoms: C_11  and  N_12 
ROOT
HETATM    1  N   UNL     1     -40.862 -50.614  10.968  1.00  0.00     0.093 N 
HETATM    2  H   UNL     1     -40.229 -51.086  10.315  1.00  0.00     0.316 HD
ENDROOT
BRANCH   1   3
HETATM    3  C   UNL     1     -40.361 -49.225  11.125  1.00  0.00     0.371 C 
BRANCH   3   4
HETATM    4  C   UNL     1     -41.518 -48.259  11.399  1.00  0.00     0.245 C 
HETATM    5  N   UNL     1     -42.592 -48.433  10.556  1.00  0.00    -0.359 N 
HETATM    6  H   UNL     1     -42.438 -49.048   9.763  1.00  0.00     0.162 HD
HETATM    7  O   UNL     1     -41.497 -47.459  12.329  1.00  0.00    -0.272 OA
BRANCH   5   8
HETATM    8  C   UNL     1     -43.788 -47.627  10.640  1.00  0.00     0.126 C 
BRANCH   8   9
HETATM    9  C   UNL     1     -44.250 -47.104   9.271  1.00  0.00    -0.005 C 
HETATM   10  C   UNL     1     -43.505 -47.793   8.127  1.00  0.00     0.011 C 
HETATM   11  C   UNL     1     -45.756 -47.315   9.116  1.00  0.00     0.011 C 
ENDBRANCH   8   9
ENDBRANCH   5   8
ENDBRANCH   3   4
ENDBRANCH   1   3
BRANCH   1  12
HETATM   12  C   UNL     1     -40.807 -51.343  12.251  1.00  0.00     0.291 C 
BRANCH  12  13
HETATM   13  C   UNL     1     -41.608 -52.648  12.261  1.00  0.00     0.178 C 
BRANCH  13  14
HETATM   14  N   UNL     1     -43.014 -52.415  12.538  1.00  0.00    -0.302 N 
HETATM   15  C   UNL     1     -43.542 -51.436  13.327  1.00  0.00     0.111 A 
HETATM   16  C   UNL     1     -44.901 -51.656  13.343  1.00  0.00     0.037 A 
HETATM   17  C   UNL     1     -45.087 -52.789  12.530  1.00  0.00     0.108 A 
HETATM   18  N   UNL     1     -43.940 -53.248  12.026  1.00  0.00    -0.310 N 
ATOM     19  HN  UNL     1     -43.798 -54.042  11.402  1.00  0.00     0.186 HD
ENDBRANCH  13  14
ENDBRANCH  12  13
ENDBRANCH   1  12
TORSDOF 7
ENDMDL
MODEL 6
REMARK VINA RESULT:      -4.8      3.556      4.268
REMARK  7 active torsions:
REMARK  status: ('A' for Active; 'I' for Inactive)
REMARK    1  A    between atoms: C_2  and  C_4 
REMARK    2  A    between atoms: C_4  and  N_5 
REMARK       I    between atoms: N_5  and  C_6 
REMARK    3  A    between atoms: C_6  and  C_8 
REMARK    4  A    between atoms: C_8  and  N_9 
REMARK    5  A    between atoms: N_9  and  C_10 
REMARK    6  A    between atoms: C_10  and  C_11 
REMARK    7  A    between atoms: C_11  and  N_12 
ROOT
HETATM    1  N   UNL     1     -39.718 -49.778  10.783  1.00  0.00     0.093 N 
HETATM    2  H   UNL     1     -39.819 -50.793  10.693  1.00  0.00     0.316 HD
ENDROOT
BRANCH   1   3
HETATM    3  C   UNL     1     -38.762 -49.537  11.893  1.00  0.00     0.371 C 
BRANCH   3   4
HETATM    4  C   UNL     1     -38.339 -50.858  12.542  1.00  0.00     0.245 C 
HETATM    5  N   UNL     1     -39.306 -51.408  13.353  1.00  0.00    -0.359 N 
HETATM    6  H   UNL     1     -40.103 -50.813  13.559  1.00  0.00     0.162 HD
HETATM    7  O   UNL     1     -37.263 -51.394  12.297  1.00  0.00    -0.272 OA
BRANCH   5   8
HETATM    8  C   UNL     1     -39.115 -52.652  14.062  1.00  0.00     0.126 C 
BRANCH   8   9
HETATM    9  C   UNL     1     -40.079 -53.755  13.600  1.00  0.00    -0.005 C 
HETATM   10  C   UNL     1     -40.882 -54.325  14.770  1.00  0.00     0.011 C 
HETATM   11  C   UNL     1     -41.027 -53.202  12.536  1.00  0.00     0.011 C 
ENDBRANCH   8   9
ENDBRANCH   5   8
ENDBRANCH   3   4
ENDBRANCH   1   3
BRANCH   1  12
HETATM   12  C   UNL     1     -41.049 -49.222  11.103  1.00  0.00     0.291 C 
BRANCH  12  13
HETATM   13  C   UNL     1     -41.125 -47.696  11.007  1.00  0.00     0.178 C 
BRANCH  13  14
HETATM   14  N   UNL     1     -42.121 -47.266  10.043  1.00  0.00    -0.302 N 
HETATM   15  C   UNL     1     -42.695 -46.032   9.953  1.00  0.00     0.111 A 
HETATM   16  C   UNL     1     -43.623 -46.121   8.940  1.00  0.00     0.037 A 
HETATM   17  C   UNL     1     -43.525 -47.447   8.483  1.00  0.00     0.108 A 
HETATM   18  N   UNL     1     -42.601 -48.147   9.145  1.00  0.00    -0.310 N 
ATOM     19  HN  UNL     1     -42.325 -49.119   9.004  1.00  0.00     0.186 HD
ENDBRANCH  13  14
ENDBRANCH  12  13
ENDBRANCH   1  12
TORSDOF 7
ENDMDL
MODEL 7
REMARK VINA RESULT:      -4.8      4.126      7.189
REMARK  7 active torsions:
REMARK  status: ('A' for Active; 'I' for Inactive)
REMARK    1  A    between atoms: C_2  and  C_4 
REMARK    2  A    between atoms: C_4  and  N_5 
REMARK       I    between atoms: N_5  and  C_6 
REMARK    3  A    between atoms: C_6  and  C_8 
REMARK    4  A    between atoms: C_8  and  N_9 
REMARK    5  A    between atoms: N_9  and  C_10 
REMARK    6  A    between atoms: C_10  and  C_11 
REMARK    7  A    between atoms: C_11  and  N_12 
ROOT
HETATM    1  N   UNL     1     -41.567 -48.453  10.044  1.00  0.00     0.093 N 
HETATM    2  H   UNL     1     -40.678 -47.977   9.862  1.00  0.00     0.316 HD
ENDROOT
BRANCH   1   3
HETATM    3  C   UNL     1     -42.637 -47.432   9.912  1.00  0.00     0.371 C 
BRANCH   3   4
HETATM    4  C   UNL     1     -42.060 -46.020  10.049  1.00  0.00     0.245 C 
HETATM    5  N   UNL     1     -40.709 -46.000  10.311  1.00  0.00    -0.359 N 
HETATM    6  H   UNL     1     -40.289 -46.894  10.546  1.00  0.00     0.162 HD
HETATM    7  O   UNL     1     -42.740 -45.015   9.871  1.00  0.00    -0.272 OA
BRANCH   5   8
HETATM    8  C   UNL     1     -39.965 -44.773  10.477  1.00  0.00     0.126 C 
BRANCH   8   9
HETATM    9  C   UNL     1     -40.170 -44.136  11.860  1.00  0.00    -0.005 C 
HETATM   10  C   UNL     1     -38.927 -44.287  12.738  1.00  0.00     0.011 C 
HETATM   11  C   UNL     1     -40.523 -42.656  11.703  1.00  0.00     0.011 C 
ENDBRANCH   8   9
ENDBRANCH   5   8
ENDBRANCH   3   4
ENDBRANCH   1   3
BRANCH   1  12
HETATM   12  C   UNL     1     -41.515 -48.988  11.420  1.00  0.00     0.291 C 
BRANCH  12  13
HETATM   13  C   UNL     1     -40.914 -50.393  11.519  1.00  0.00     0.178 C 
BRANCH  13  14
HETATM   14  N   UNL     1     -39.497 -50.351  11.830  1.00  0.00    -0.302 N 
HETATM   15  C   UNL     1     -38.921 -50.511  13.056  1.00  0.00     0.111 A 
HETATM   16  C   UNL     1     -37.572 -50.321  12.868  1.00  0.00     0.037 A 
HETATM   17  C   UNL     1     -37.438 -50.055  11.493  1.00  0.00     0.108 A 
HETATM   18  N   UNL     1     -38.609 -50.084  10.853  1.00  0.00    -0.310 N 
ATOM     19  HN  UNL     1     -38.788 -49.939   9.860  1.00  0.00     0.186 HD
ENDBRANCH  13  14
ENDBRANCH  12  13
ENDBRANCH   1  12
TORSDOF 7
ENDMDL
MODEL 8
REMARK VINA RESULT:      -4.7      1.673      1.934
REMARK  7 active torsions:
REMARK  status: ('A' for Active; 'I' for Inactive)
REMARK    1  A    between atoms: C_2  and  C_4 
REMARK    2  A    between atoms: C_4  and  N_5 
REMARK       I    between atoms: N_5  and  C_6 
REMARK    3  A    between atoms: C_6  and  C_8 
REMARK    4  A    between atoms: C_8  and  N_9 
REMARK    5  A    between atoms: N_9  and  C_10 
REMARK    6  A    between atoms: C_10  and  C_11 
REMARK    7  A    between atoms: C_11  and  N_12 
ROOT
HETATM    1  N   UNL     1     -41.484 -51.685  11.424  1.00  0.00     0.093 N 
HETATM    2  H   UNL     1     -42.480 -51.444  11.424  1.00  0.00     0.316 HD
ENDROOT
BRANCH   1   3
HETATM    3  C   UNL     1     -41.318 -52.830  12.354  1.00  0.00     0.371 C 
BRANCH   3   4
HETATM    4  C   UNL     1     -42.675 -53.299  12.886  1.00  0.00     0.245 C 
HETATM    5  N   UNL     1     -43.744 -52.622  12.343  1.00  0.00    -0.359 N 
HETATM    6  H   UNL     1     -43.514 -51.798  11.795  1.00  0.00     0.162 HD
HETATM    7  O   UNL     1     -42.784 -54.236  13.670  1.00  0.00    -0.272 OA
BRANCH   5   8
HETATM    8  C   UNL     1     -45.113 -52.904  12.706  1.00  0.00     0.126 C 
BRANCH   8   9
HETATM    9  C   UNL     1     -45.987 -51.642  12.759  1.00  0.00    -0.005 C 
HETATM   10  C   UNL     1     -47.074 -51.667  11.683  1.00  0.00     0.011 C 
HETATM   11  C   UNL     1     -46.623 -51.508  14.143  1.00  0.00     0.011 C 
ENDBRANCH   8   9
ENDBRANCH   5   8
ENDBRANCH   3   4
ENDBRANCH   1   3
BRANCH   1  12
HETATM   12  C   UNL     1     -40.737 -50.504  11.903  1.00  0.00     0.291 C 
BRANCH  12  13
HETATM   13  C   UNL     1     -40.561 -49.409  10.847  1.00  0.00     0.178 C 
BRANCH  13  14
HETATM   14  N   UNL     1     -40.289 -48.118  11.451  1.00  0.00    -0.302 N 
HETATM   15  C   UNL     1     -40.151 -47.847  12.780  1.00  0.00     0.111 A 
HETATM   16  C   UNL     1     -39.975 -46.485  12.872  1.00  0.00     0.037 A 
HETATM   17  C   UNL     1     -40.019 -46.031  11.542  1.00  0.00     0.108 A 
HETATM   18  N   UNL     1     -40.198 -47.025  10.670  1.00  0.00    -0.310 N 
ATOM     19  HN  UNL     1     -40.253 -46.969   9.653  1.00  0.00     0.186 HD
ENDBRANCH  13  14
ENDBRANCH  12  13
ENDBRANCH   1  12
TORSDOF 7
ENDMDL
MODEL 9
REMARK VINA RESULT:      -4.6      2.249      3.495
REMARK  7 active torsions:
REMARK  status: ('A' for Active; 'I' for Inactive)
REMARK    1  A    between atoms: C_2  and  C_4 
REMARK    2  A    between atoms: C_4  and  N_5 
REMARK       I    between atoms: N_5  and  C_6 
REMARK    3  A    between atoms: C_6  and  C_8 
REMARK    4  A    between atoms: C_8  and  N_9 
REMARK    5  A    between atoms: N_9  and  C_10 
REMARK    6  A    between atoms: C_10  and  C_11 
REMARK    7  A    between atoms: C_11  and  N_12 
ROOT
HETATM    1  N   UNL     1     -42.190 -51.001  13.016  1.00  0.00     0.093 N 
HETATM    2  H   UNL     1     -41.502 -51.046  13.773  1.00  0.00     0.316 HD
ENDROOT
BRANCH   1   3
HETATM    3  C   UNL     1     -42.480 -52.400  12.612  1.00  0.00     0.371 C 
BRANCH   3   4
HETATM    4  C   UNL     1     -43.990 -52.657  12.593  1.00  0.00     0.245 C 
HETATM    5  N   UNL     1     -44.741 -51.552  12.922  1.00  0.00    -0.359 N 
HETATM    6  H   UNL     1     -44.226 -50.760  13.294  1.00  0.00     0.162 HD
HETATM    7  O   UNL     1     -44.467 -53.734  12.249  1.00  0.00    -0.272 OA
BRANCH   5   8
HETATM    8  C   UNL     1     -46.185 -51.575  12.965  1.00  0.00     0.126 C 
BRANCH   8   9
HETATM    9  C   UNL     1     -46.735 -51.704  14.394  1.00  0.00    -0.005 C 
HETATM   10  C   UNL     1     -47.011 -53.164  14.759  1.00  0.00     0.011 C 
HETATM   11  C   UNL     1     -45.746 -51.095  15.388  1.00  0.00     0.011 C 
ENDBRANCH   8   9
ENDBRANCH   5   8
ENDBRANCH   3   4
ENDBRANCH   1   3
BRANCH   1  12
HETATM   12  C   UNL     1     -41.582 -50.246  11.901  1.00  0.00     0.291 C 
BRANCH  12  13
HETATM   13  C   UNL     1     -40.464 -49.293  12.332  1.00  0.00     0.178 C 
BRANCH  13  14
HETATM   14  N   UNL     1     -39.151 -49.883  12.147  1.00  0.00    -0.302 N 
HETATM   15  C   UNL     1     -38.436 -50.595  13.064  1.00  0.00     0.111 A 
HETATM   16  C   UNL     1     -37.233 -50.886  12.462  1.00  0.00     0.037 A 
HETATM   17  C   UNL     1     -37.327 -50.308  11.183  1.00  0.00     0.108 A 
HETATM   18  N   UNL     1     -38.501 -49.706  10.982  1.00  0.00    -0.310 N 
ATOM     19  HN  UNL     1     -38.827 -49.224  10.143  1.00  0.00     0.186 HD
ENDBRANCH  13  14
ENDBRANCH  12  13
ENDBRANCH   1  12
TORSDOF 7
ENDMDL
