MODEL 1
REMARK VINA RESULT:      -6.3      0.000      0.000
REMARK  3 active torsions:
REMARK  status: ('A' for Active; 'I' for Inactive)
REMARK    1  A    between atoms: C_6  and  N_7 
REMARK       I    between atoms: N_7  and  C_8 
REMARK       I    between atoms: C_8  and  N_10 
REMARK       I    between atoms: N_10  and  C_11 
REMARK    2  A    between atoms: C_11  and  C_13 
REMARK    3  A    between atoms: C_13  and  N_14 
ROOT
HETATM    1  N   UNL     1     -40.475 -47.456  11.428  1.00  0.00    -0.338 N 
HETATM    2  C   UNL     1     -40.441 -46.336  10.657  1.00  0.00     0.323 C 
HETATM    3  O   UNL     1     -39.458 -45.613  10.521  1.00  0.00    -0.247 OA
HETATM    4  N   UNL     1     -41.600 -46.028   9.991  1.00  0.00    -0.278 N 
HETATM    5  C   UNL     1     -42.747 -46.793   9.877  1.00  0.00     0.243 C 
HETATM    6  O   UNL     1     -42.944 -47.834  10.504  1.00  0.00    -0.271 OA
HETATM    7  H   UNL     1     -41.313 -48.031  11.385  1.00  0.00     0.164 HD
HETATM    8  H   UNL     1     -41.508 -45.175   9.457  1.00  0.00     0.173 HD
ENDROOT
BRANCH   1   9
HETATM    9  C   UNL     1     -39.313 -47.954  12.148  1.00  0.00     0.090 C 
HETATM   10  C   UNL     1     -38.876 -49.310  11.574  1.00  0.00     0.026 C 
HETATM   11  C   UNL     1     -37.657 -49.865  12.303  1.00  0.00     0.002 C 
HETATM   12  C   UNL     1     -37.889 -49.947  13.810  1.00  0.00     0.005 C 
HETATM   13  C   UNL     1     -38.348 -48.611  14.420  1.00  0.00    -0.013 C 
HETATM   14  C   UNL     1     -37.185 -47.610  14.472  1.00  0.00     0.010 C 
HETATM   15  C   UNL     1     -39.593 -48.077  13.665  1.00  0.00     0.008 C 
HETATM   16  C   UNL     1     -40.110 -46.765  14.266  1.00  0.00     0.012 C 
ENDBRANCH   1   9
BRANCH   5  17
HETATM   17  C   UNL     1     -43.775 -46.238   8.922  1.00  0.00     0.232 C 
BRANCH  17  18
HETATM   18  N   UNL     1     -44.891 -47.140   8.735  1.00  0.00    -0.343 N 
HETATM   19  C   UNL     1     -46.096 -47.077   9.378  1.00  0.00     0.109 A 
HETATM   20  C   UNL     1     -46.841 -48.095   8.831  1.00  0.00     0.106 A 
HETATM   21  N   UNL     1     -46.119 -48.769   7.881  1.00  0.00    -0.361 N 
HETATM   22  C   UNL     1     -44.951 -48.169   7.838  1.00  0.00     0.182 A 
ATOM     23  HN  UNL     1     -46.424 -49.569   7.326  1.00  0.00     0.166 HD
ENDBRANCH  17  18
ENDBRANCH   5  17
TORSDOF 3
ENDMDL
MODEL 2
REMARK VINA RESULT:      -6.2      4.875      5.743
REMARK  3 active torsions:
REMARK  status: ('A' for Active; 'I' for Inactive)
REMARK    1  A    between atoms: C_6  and  N_7 
REMARK       I    between atoms: N_7  and  C_8 
REMARK       I    between atoms: C_8  and  N_10 
REMARK       I    between atoms: N_10  and  C_11 
REMARK    2  A    between atoms: C_11  and  C_13 
REMARK    3  A    between atoms: C_13  and  N_14 
ROOT
HETATM    1  N   UNL     1     -42.589 -51.526  12.683  1.00  0.00    -0.338 N 
HETATM    2  C   UNL     1     -41.423 -51.427  11.990  1.00  0.00     0.323 C 
HETATM    3  O   UNL     1     -40.651 -52.360  11.786  1.00  0.00    -0.247 OA
HETATM    4  N   UNL     1     -41.125 -50.185  11.489  1.00  0.00    -0.278 N 
HETATM    5  C   UNL     1     -41.930 -49.061  11.462  1.00  0.00     0.243 C 
HETATM    6  O   UNL     1     -43.015 -48.978  12.038  1.00  0.00    -0.271 OA
HETATM    7  H   UNL     1     -43.196 -50.711  12.703  1.00  0.00     0.164 HD
HETATM    8  H   UNL     1     -40.237 -50.181  11.006  1.00  0.00     0.173 HD
ENDROOT
BRANCH   1   9
HETATM    9  C   UNL     1     -43.080 -52.784  13.225  1.00  0.00     0.090 C 
HETATM   10  C   UNL     1     -44.391 -53.183  12.531  1.00  0.00     0.026 C 
HETATM   11  C   UNL     1     -44.937 -54.501  13.071  1.00  0.00     0.002 C 
HETATM   12  C   UNL     1     -45.099 -54.464  14.589  1.00  0.00     0.005 C 
HETATM   13  C   UNL     1     -43.811 -54.050  15.321  1.00  0.00    -0.013 C 
HETATM   14  C   UNL     1     -42.773 -55.181  15.278  1.00  0.00     0.010 C 
HETATM   15  C   UNL     1     -43.285 -52.703  14.756  1.00  0.00     0.008 C 
HETATM   16  C   UNL     1     -42.022 -52.230  15.485  1.00  0.00     0.012 C 
ENDBRANCH   1   9
BRANCH   5  17
HETATM   17  C   UNL     1     -41.362 -47.905  10.676  1.00  0.00     0.232 C 
BRANCH  17  18
HETATM   18  N   UNL     1     -42.393 -47.130  10.020  1.00  0.00    -0.343 N 
HETATM   19  C   UNL     1     -43.211 -47.565   9.014  1.00  0.00     0.109 A 
HETATM   20  C   UNL     1     -44.054 -46.507   8.764  1.00  0.00     0.106 A 
HETATM   21  N   UNL     1     -43.765 -45.450   9.587  1.00  0.00    -0.361 N 
HETATM   22  C   UNL     1     -42.765 -45.855  10.338  1.00  0.00     0.182 A 
ATOM     23  HN  UNL     1     -44.228 -44.541   9.611  1.00  0.00     0.166 HD
ENDBRANCH  17  18
ENDBRANCH   5  17
TORSDOF 3
ENDMDL
MODEL 3
REMARK VINA RESULT:      -6.0      5.019      6.189
REMARK  3 active torsions:
REMARK  status: ('A' for Active; 'I' for Inactive)
REMARK    1  A    between atoms: C_6  and  N_7 
REMARK       I    between atoms: N_7  and  C_8 
REMARK       I    between atoms: C_8  and  N_10 
REMARK       I    between atoms: N_10  and  C_11 
REMARK    2  A    between atoms: C_11  and  C_13 
REMARK    3  A    between atoms: C_13  and  N_14 
ROOT
HETATM    1  N   UNL     1     -43.259 -51.199  13.101  1.00  0.00    -0.338 N 
HETATM    2  C   UNL     1     -42.259 -51.391  12.199  1.00  0.00     0.323 C 
HETATM    3  O   UNL     1     -41.802 -52.487  11.886  1.00  0.00    -0.247 OA
HETATM    4  N   UNL     1     -41.755 -50.259  11.610  1.00  0.00    -0.278 N 
HETATM    5  C   UNL     1     -42.237 -48.966  11.696  1.00  0.00     0.243 C 
HETATM    6  O   UNL     1     -43.136 -48.617  12.462  1.00  0.00    -0.271 OA
HETATM    7  H   UNL     1     -43.622 -50.256  13.206  1.00  0.00     0.164 HD
HETATM    8  H   UNL     1     -41.003 -50.475  10.970  1.00  0.00     0.173 HD
ENDROOT
BRANCH   1   9
HETATM    9  C   UNL     1     -43.942 -52.298  13.767  1.00  0.00     0.090 C 
HETATM   10  C   UNL     1     -42.979 -53.479  13.960  1.00  0.00     0.026 C 
HETATM   11  C   UNL     1     -43.658 -54.652  14.659  1.00  0.00     0.002 C 
HETATM   12  C   UNL     1     -44.929 -55.083  13.931  1.00  0.00     0.005 C 
HETATM   13  C   UNL     1     -45.912 -53.922  13.701  1.00  0.00    -0.013 C 
HETATM   14  C   UNL     1     -46.588 -53.514  15.017  1.00  0.00     0.010 C 
HETATM   15  C   UNL     1     -45.196 -52.749  12.981  1.00  0.00     0.008 C 
HETATM   16  C   UNL     1     -46.149 -51.583  12.695  1.00  0.00     0.012 C 
ENDBRANCH   1   9
BRANCH   5  17
HETATM   17  C   UNL     1     -41.553 -47.982  10.779  1.00  0.00     0.232 C 
BRANCH  17  18
HETATM   18  N   UNL     1     -42.499 -47.148  10.068  1.00  0.00    -0.343 N 
HETATM   19  C   UNL     1     -43.318 -47.548   9.049  1.00  0.00     0.109 A 
HETATM   20  C   UNL     1     -44.066 -46.436   8.741  1.00  0.00     0.106 A 
HETATM   21  N   UNL     1     -43.718 -45.380   9.542  1.00  0.00    -0.361 N 
HETATM   22  C   UNL     1     -42.777 -45.838  10.337  1.00  0.00     0.182 A 
ATOM     23  HN  UNL     1     -44.106 -44.437   9.525  1.00  0.00     0.166 HD
ENDBRANCH  17  18
ENDBRANCH   5  17
TORSDOF 3
ENDMDL
MODEL 4
REMARK VINA RESULT:      -5.9      3.492      4.363
REMARK  3 active torsions:
REMARK  status: ('A' for Active; 'I' for Inactive)
REMARK    1  A    between atoms: C_6  and  N_7 
REMARK       I    between atoms: N_7  and  C_8 
REMARK       I    between atoms: C_8  and  N_10 
REMARK       I    between atoms: N_10  and  C_11 
REMARK    2  A    between atoms: C_11  and  C_13 
REMARK    3  A    between atoms: C_13  and  N_14 
ROOT
HETATM    1  N   UNL     1     -41.521 -50.759  12.637  1.00  0.00    -0.338 N 
HETATM    2  C   UNL     1     -42.632 -50.013  12.881  1.00  0.00     0.323 C 
HETATM    3  O   UNL     1     -43.386 -50.177  13.837  1.00  0.00    -0.247 OA
HETATM    4  N   UNL     1     -42.893 -49.010  11.983  1.00  0.00    -0.278 N 
HETATM    5  C   UNL     1     -42.089 -48.559  10.952  1.00  0.00     0.243 C 
HETATM    6  O   UNL     1     -41.050 -49.115  10.596  1.00  0.00    -0.271 OA
HETATM    7  H   UNL     1     -40.918 -50.468  11.872  1.00  0.00     0.164 HD
HETATM    8  H   UNL     1     -43.742 -48.514  12.214  1.00  0.00     0.173 HD
ENDROOT
BRANCH   1   9
HETATM    9  C   UNL     1     -41.071 -51.819  13.527  1.00  0.00     0.090 C 
HETATM   10  C   UNL     1     -39.562 -51.687  13.786  1.00  0.00     0.026 C 
HETATM   11  C   UNL     1     -39.052 -52.781  14.718  1.00  0.00     0.002 C 
HETATM   12  C   UNL     1     -39.409 -54.173  14.202  1.00  0.00     0.005 C 
HETATM   13  C   UNL     1     -40.911 -54.339  13.912  1.00  0.00    -0.013 C 
HETATM   14  C   UNL     1     -41.711 -54.421  15.220  1.00  0.00     0.010 C 
HETATM   15  C   UNL     1     -41.398 -53.219  12.956  1.00  0.00     0.008 C 
HETATM   16  C   UNL     1     -42.883 -53.368  12.607  1.00  0.00     0.012 C 
ENDBRANCH   1   9
BRANCH   5  17
HETATM   17  C   UNL     1     -42.598 -47.317  10.261  1.00  0.00     0.232 C 
BRANCH  17  18
HETATM   18  N   UNL     1     -43.719 -47.597   9.389  1.00  0.00    -0.343 N 
HETATM   19  C   UNL     1     -45.041 -47.544   9.734  1.00  0.00     0.109 A 
HETATM   20  C   UNL     1     -45.719 -47.827   8.572  1.00  0.00     0.106 A 
HETATM   21  N   UNL     1     -44.845 -48.051   7.541  1.00  0.00    -0.361 N 
HETATM   22  C   UNL     1     -43.647 -47.899   8.059  1.00  0.00     0.182 A 
ATOM     23  HN  UNL     1     -45.075 -48.287   6.575  1.00  0.00     0.166 HD
ENDBRANCH  17  18
ENDBRANCH   5  17
TORSDOF 3
ENDMDL
MODEL 5
REMARK VINA RESULT:      -5.8      5.701      8.432
REMARK  3 active torsions:
REMARK  status: ('A' for Active; 'I' for Inactive)
REMARK    1  A    between atoms: C_6  and  N_7 
REMARK       I    between atoms: N_7  and  C_8 
REMARK       I    between atoms: C_8  and  N_10 
REMARK       I    between atoms: N_10  and  C_11 
REMARK    2  A    between atoms: C_11  and  C_13 
REMARK    3  A    between atoms: C_13  and  N_14 
ROOT
HETATM    1  N   UNL     1     -42.772 -52.355  14.334  1.00  0.00    -0.338 N 
HETATM    2  C   UNL     1     -41.907 -53.143  13.638  1.00  0.00     0.323 C 
HETATM    3  O   UNL     1     -42.239 -54.105  12.951  1.00  0.00    -0.247 OA
HETATM    4  N   UNL     1     -40.581 -52.805  13.726  1.00  0.00    -0.278 N 
HETATM    5  C   UNL     1     -40.026 -51.675  14.299  1.00  0.00     0.243 C 
HETATM    6  O   UNL     1     -40.662 -50.858  14.964  1.00  0.00    -0.271 OA
HETATM    7  H   UNL     1     -42.393 -51.528  14.786  1.00  0.00     0.164 HD
HETATM    8  H   UNL     1     -39.998 -53.444  13.204  1.00  0.00     0.173 HD
ENDROOT
BRANCH   1   9
HETATM    9  C   UNL     1     -44.214 -52.543  14.296  1.00  0.00     0.090 C 
HETATM   10  C   UNL     1     -44.894 -51.295  13.712  1.00  0.00     0.026 C 
HETATM   11  C   UNL     1     -46.410 -51.453  13.654  1.00  0.00     0.002 C 
HETATM   12  C   UNL     1     -46.991 -51.818  15.018  1.00  0.00     0.005 C 
HETATM   13  C   UNL     1     -46.322 -53.053  15.646  1.00  0.00    -0.013 C 
HETATM   14  C   UNL     1     -46.755 -54.334  14.917  1.00  0.00     0.010 C 
HETATM   15  C   UNL     1     -44.784 -52.859  15.699  1.00  0.00     0.008 C 
HETATM   16  C   UNL     1     -44.078 -54.050  16.355  1.00  0.00     0.012 C 
ENDBRANCH   1   9
BRANCH   5  17
HETATM   17  C   UNL     1     -38.542 -51.521  14.066  1.00  0.00     0.232 C 
BRANCH  17  18
HETATM   18  N   UNL     1     -38.252 -50.866  12.809  1.00  0.00    -0.343 N 
HETATM   19  C   UNL     1     -37.060 -50.896  12.140  1.00  0.00     0.109 A 
HETATM   20  C   UNL     1     -37.286 -50.187  10.984  1.00  0.00     0.106 A 
HETATM   21  N   UNL     1     -38.576 -49.728  10.940  1.00  0.00    -0.361 N 
HETATM   22  C   UNL     1     -39.138 -50.157  12.048  1.00  0.00     0.182 A 
ATOM     23  HN  UNL     1     -39.009 -49.171  10.204  1.00  0.00     0.166 HD
ENDBRANCH  17  18
ENDBRANCH   5  17
TORSDOF 3
ENDMDL
MODEL 6
REMARK VINA RESULT:      -5.8      5.075      6.251
REMARK  3 active torsions:
REMARK  status: ('A' for Active; 'I' for Inactive)
REMARK    1  A    between atoms: C_6  and  N_7 
REMARK       I    between atoms: N_7  and  C_8 
REMARK       I    between atoms: C_8  and  N_10 
REMARK       I    between atoms: N_10  and  C_11 
REMARK    2  A    between atoms: C_11  and  C_13 
REMARK    3  A    between atoms: C_13  and  N_14 
ROOT
HETATM    1  N   UNL     1     -43.926 -50.437  13.879  1.00  0.00    -0.338 N 
HETATM    2  C   UNL     1     -43.224 -51.042  12.883  1.00  0.00     0.323 C 
HETATM    3  O   UNL     1     -43.193 -52.254  12.690  1.00  0.00    -0.247 OA
HETATM    4  N   UNL     1     -42.522 -50.209  12.050  1.00  0.00    -0.278 N 
HETATM    5  C   UNL     1     -42.561 -48.828  11.995  1.00  0.00     0.243 C 
HETATM    6  O   UNL     1     -43.147 -48.123  12.817  1.00  0.00    -0.271 OA
HETATM    7  H   UNL     1     -43.958 -49.421  13.881  1.00  0.00     0.164 HD
HETATM    8  H   UNL     1     -42.009 -50.727  11.351  1.00  0.00     0.173 HD
ENDROOT
BRANCH   1   9
HETATM    9  C   UNL     1     -44.771 -51.172  14.808  1.00  0.00     0.090 C 
HETATM   10  C   UNL     1     -46.174 -51.360  14.212  1.00  0.00     0.026 C 
HETATM   11  C   UNL     1     -47.091 -52.130  15.157  1.00  0.00     0.002 C 
HETATM   12  C   UNL     1     -47.154 -51.478  16.536  1.00  0.00     0.005 C 
HETATM   13  C   UNL     1     -45.766 -51.255  17.160  1.00  0.00    -0.013 C 
HETATM   14  C   UNL     1     -45.156 -52.587  17.618  1.00  0.00     0.010 C 
HETATM   15  C   UNL     1     -44.860 -50.462  16.180  1.00  0.00     0.008 C 
HETATM   16  C   UNL     1     -43.477 -50.181  16.777  1.00  0.00     0.012 C 
ENDBRANCH   1   9
BRANCH   5  17
HETATM   17  C   UNL     1     -41.798 -48.227  10.839  1.00  0.00     0.232 C 
BRANCH  17  18
HETATM   18  N   UNL     1     -42.598 -47.285  10.086  1.00  0.00    -0.343 N 
HETATM   19  C   UNL     1     -43.394 -47.579   9.014  1.00  0.00     0.109 A 
HETATM   20  C   UNL     1     -43.990 -46.385   8.680  1.00  0.00     0.106 A 
HETATM   21  N   UNL     1     -43.573 -45.384   9.517  1.00  0.00    -0.361 N 
HETATM   22  C   UNL     1     -42.741 -45.954  10.359  1.00  0.00     0.182 A 
ATOM     23  HN  UNL     1     -43.851 -44.402   9.492  1.00  0.00     0.166 HD
ENDBRANCH  17  18
ENDBRANCH   5  17
TORSDOF 3
ENDMDL
MODEL 7
REMARK VINA RESULT:      -5.6      5.541      6.430
REMARK  3 active torsions:
REMARK  status: ('A' for Active; 'I' for Inactive)
REMARK    1  A    between atoms: C_6  and  N_7 
REMARK       I    between atoms: N_7  and  C_8 
REMARK       I    between atoms: C_8  and  N_10 
REMARK       I    between atoms: N_10  and  C_11 
REMARK    2  A    between atoms: C_11  and  C_13 
REMARK    3  A    between atoms: C_13  and  N_14 
ROOT
HETATM    1  N   UNL     1     -40.940 -52.021  12.746  1.00  0.00    -0.338 N 
HETATM    2  C   UNL     1     -41.088 -53.372  12.796  1.00  0.00     0.323 C 
HETATM    3  O   UNL     1     -40.158 -54.174  12.820  1.00  0.00    -0.247 OA
HETATM    4  N   UNL     1     -42.378 -53.836  12.832  1.00  0.00    -0.278 N 
HETATM    5  C   UNL     1     -43.543 -53.105  12.983  1.00  0.00     0.243 C 
HETATM    6  O   UNL     1     -43.591 -51.876  12.958  1.00  0.00    -0.271 OA
HETATM    7  H   UNL     1     -41.779 -51.453  12.831  1.00  0.00     0.164 HD
HETATM    8  H   UNL     1     -42.411 -54.846  12.847  1.00  0.00     0.173 HD
ENDROOT
BRANCH   1   9
HETATM    9  C   UNL     1     -39.640 -51.367  12.765  1.00  0.00     0.090 C 
HETATM   10  C   UNL     1     -39.043 -51.421  14.179  1.00  0.00     0.026 C 
HETATM   11  C   UNL     1     -37.676 -50.747  14.239  1.00  0.00     0.002 C 
HETATM   12  C   UNL     1     -37.729 -49.316  13.711  1.00  0.00     0.005 C 
HETATM   13  C   UNL     1     -38.340 -49.218  12.302  1.00  0.00    -0.013 C 
HETATM   14  C   UNL     1     -37.366 -49.763  11.248  1.00  0.00     0.010 C 
HETATM   15  C   UNL     1     -39.732 -49.903  12.274  1.00  0.00     0.008 C 
HETATM   16  C   UNL     1     -40.397 -49.795  10.898  1.00  0.00     0.012 C 
ENDBRANCH   1   9
BRANCH   5  17
HETATM   17  C   UNL     1     -44.786 -53.943  13.162  1.00  0.00     0.232 C 
BRANCH  17  18
HETATM   18  N   UNL     1     -45.572 -53.517  14.300  1.00  0.00    -0.343 N 
HETATM   19  C   UNL     1     -45.278 -53.750  15.615  1.00  0.00     0.109 A 
HETATM   20  C   UNL     1     -46.272 -53.110  16.317  1.00  0.00     0.106 A 
HETATM   21  N   UNL     1     -47.156 -52.503  15.463  1.00  0.00    -0.361 N 
HETATM   22  C   UNL     1     -46.707 -52.758  14.255  1.00  0.00     0.182 A 
ATOM     23  HN  UNL     1     -47.988 -51.967  15.713  1.00  0.00     0.166 HD
ENDBRANCH  17  18
ENDBRANCH   5  17
TORSDOF 3
ENDMDL
MODEL 8
REMARK VINA RESULT:      -5.6      5.179      6.747
REMARK  3 active torsions:
REMARK  status: ('A' for Active; 'I' for Inactive)
REMARK    1  A    between atoms: C_6  and  N_7 
REMARK       I    between atoms: N_7  and  C_8 
REMARK       I    between atoms: C_8  and  N_10 
REMARK       I    between atoms: N_10  and  C_11 
REMARK    2  A    between atoms: C_11  and  C_13 
REMARK    3  A    between atoms: C_13  and  N_14 
ROOT
HETATM    1  N   UNL     1     -43.708 -50.978  13.941  1.00  0.00    -0.338 N 
HETATM    2  C   UNL     1     -43.184 -51.666  12.892  1.00  0.00     0.323 C 
HETATM    3  O   UNL     1     -43.487 -52.817  12.592  1.00  0.00    -0.247 OA
HETATM    4  N   UNL     1     -42.262 -50.993  12.131  1.00  0.00    -0.278 N 
HETATM    5  C   UNL     1     -41.914 -49.656  12.198  1.00  0.00     0.243 C 
HETATM    6  O   UNL     1     -42.297 -48.889  13.082  1.00  0.00    -0.271 OA
HETATM    7  H   UNL     1     -43.456 -49.997  14.033  1.00  0.00     0.164 HD
HETATM    8  H   UNL     1     -41.900 -51.571  11.385  1.00  0.00     0.173 HD
ENDROOT
BRANCH   1   9
HETATM    9  C   UNL     1     -44.742 -51.526  14.807  1.00  0.00     0.090 C 
HETATM   10  C   UNL     1     -46.115 -51.410  14.130  1.00  0.00     0.026 C 
HETATM   11  C   UNL     1     -47.227 -51.977  15.007  1.00  0.00     0.002 C 
HETATM   12  C   UNL     1     -47.233 -51.337  16.393  1.00  0.00     0.005 C 
HETATM   13  C   UNL     1     -45.867 -51.416  17.097  1.00  0.00    -0.013 C 
HETATM   14  C   UNL     1     -45.578 -52.851  17.562  1.00  0.00     0.010 C 
HETATM   15  C   UNL     1     -44.760 -50.824  16.186  1.00  0.00     0.008 C 
HETATM   16  C   UNL     1     -43.386 -50.846  16.864  1.00  0.00     0.012 C 
ENDBRANCH   1   9
BRANCH   5  17
HETATM   17  C   UNL     1     -40.993 -49.194  11.095  1.00  0.00     0.232 C 
BRANCH  17  18
HETATM   18  N   UNL     1     -41.269 -47.834  10.686  1.00  0.00    -0.343 N 
HETATM   19  C   UNL     1     -40.515 -46.733  10.986  1.00  0.00     0.109 A 
HETATM   20  C   UNL     1     -41.135 -45.692  10.336  1.00  0.00     0.106 A 
HETATM   21  N   UNL     1     -42.241 -46.134   9.658  1.00  0.00    -0.361 N 
HETATM   22  C   UNL     1     -42.294 -47.429   9.880  1.00  0.00     0.182 A 
ATOM     23  HN  UNL     1     -42.887 -45.577   9.099  1.00  0.00     0.166 HD
ENDBRANCH  17  18
ENDBRANCH   5  17
TORSDOF 3
ENDMDL
MODEL 9
REMARK VINA RESULT:      -5.3      3.594      6.599
REMARK  3 active torsions:
REMARK  status: ('A' for Active; 'I' for Inactive)
REMARK    1  A    between atoms: C_6  and  N_7 
REMARK       I    between atoms: N_7  and  C_8 
REMARK       I    between atoms: C_8  and  N_10 
REMARK       I    between atoms: N_10  and  C_11 
REMARK    2  A    between atoms: C_11  and  C_13 
REMARK    3  A    between atoms: C_13  and  N_14 
ROOT
HETATM    1  N   UNL     1     -40.871 -44.519  11.516  1.00  0.00    -0.338 N 
HETATM    2  C   UNL     1     -40.307 -45.136  10.443  1.00  0.00     0.323 C 
HETATM    3  O   UNL     1     -39.679 -44.560   9.559  1.00  0.00    -0.247 OA
HETATM    4  N   UNL     1     -40.461 -46.497  10.380  1.00  0.00    -0.278 N 
HETATM    5  C   UNL     1     -40.979 -47.341  11.345  1.00  0.00     0.243 C 
HETATM    6  O   UNL     1     -41.528 -46.953  12.377  1.00  0.00    -0.271 OA
HETATM    7  H   UNL     1     -41.281 -45.110  12.235  1.00  0.00     0.164 HD
HETATM    8  H   UNL     1     -40.037 -46.883   9.548  1.00  0.00     0.173 HD
ENDROOT
BRANCH   1   9
HETATM    9  C   UNL     1     -40.746 -43.091  11.762  1.00  0.00     0.090 C 
HETATM   10  C   UNL     1     -39.739 -42.836  12.894  1.00  0.00     0.026 C 
HETATM   11  C   UNL     1     -39.577 -41.346  13.180  1.00  0.00     0.002 C 
HETATM   12  C   UNL     1     -40.920 -40.679  13.468  1.00  0.00     0.005 C 
HETATM   13  C   UNL     1     -41.963 -40.928  12.365  1.00  0.00    -0.013 C 
HETATM   14  C   UNL     1     -41.626 -40.117  11.106  1.00  0.00     0.010 C 
HETATM   15  C   UNL     1     -42.112 -42.450  12.103  1.00  0.00     0.008 C 
HETATM   16  C   UNL     1     -43.172 -42.747  11.037  1.00  0.00     0.012 C 
ENDBRANCH   1   9
BRANCH   5  17
HETATM   17  C   UNL     1     -40.841 -48.811  11.029  1.00  0.00     0.232 C 
BRANCH  17  18
HETATM   18  N   UNL     1     -39.822 -49.450  11.834  1.00  0.00    -0.343 N 
HETATM   19  C   UNL     1     -40.022 -50.461  12.732  1.00  0.00     0.109 A 
HETATM   20  C   UNL     1     -38.766 -50.772  13.198  1.00  0.00     0.106 A 
HETATM   21  N   UNL     1     -37.819 -49.976  12.609  1.00  0.00    -0.361 N 
HETATM   22  C   UNL     1     -38.482 -49.194  11.786  1.00  0.00     0.182 A 
ATOM     23  HN  UNL     1     -36.812 -49.988  12.774  1.00  0.00     0.166 HD
ENDBRANCH  17  18
ENDBRANCH   5  17
TORSDOF 3
ENDMDL
