MODEL 1
REMARK VINA RESULT:      -5.7      0.000      0.000
REMARK  5 active torsions:
REMARK  status: ('A' for Active; 'I' for Inactive)
REMARK    1  A    between atoms: C_4  and  O_5 
REMARK    2  A    between atoms: N_6  and  C_7 
REMARK    3  A    between atoms: C_7  and  C_8 
REMARK    4  A    between atoms: C_15  and  C_16 
REMARK    5  A    between atoms: C_16  and  N_17 
ROOT
HETATM    1  C   UNL     1     -39.619 -53.049  14.215  1.00  0.00     0.050 C 
HETATM    2  C   UNL     1     -41.046 -53.512  14.060  1.00  0.00    -0.033 A 
HETATM    3  C   UNL     1     -41.524 -54.511  14.985  1.00  0.00     0.064 A 
HETATM    4  C   UNL     1     -42.789 -54.958  14.916  1.00  0.00     0.145 A 
HETATM    5  N   UNL     1     -43.679 -54.451  13.983  1.00  0.00    -0.291 N 
HETATM    6  C   UNL     1     -43.278 -53.524  13.011  1.00  0.00     0.269 A 
HETATM    7  O   UNL     1     -44.023 -53.083  12.138  1.00  0.00    -0.266 OA
HETATM    8  C   UNL     1     -41.865 -53.069  13.085  1.00  0.00     0.100 A 
ENDROOT
BRANCH   5   9
HETATM    9  C   UNL     1     -45.069 -54.933  13.950  1.00  0.00     0.166 C 
BRANCH   9  10
HETATM   10  C   UNL     1     -46.080 -54.156  14.814  1.00  0.00     0.140 C 
HETATM   11  C   UNL     1     -46.743 -52.925  14.204  1.00  0.00     0.035 C 
HETATM   12  C   UNL     1     -46.805 -51.918  15.337  1.00  0.00     0.029 C 
HETATM   13  C   UNL     1     -46.406 -52.709  16.562  1.00  0.00     0.168 C 
HETATM   14  O   UNL     1     -45.534 -53.731  16.076  1.00  0.00    -0.384 OA
ENDBRANCH   9  10
ENDBRANCH   5   9
BRANCH   4  15
HETATM   15  O   UNL     1     -43.242 -55.968  15.726  1.00  0.00    -0.346 OA
HETATM   16  H   UNL     1     -43.469 -55.600  16.595  1.00  0.00     0.219 HD
ENDBRANCH   4  15
BRANCH   8  17
HETATM   17  C   UNL     1     -41.299 -52.155  12.010  1.00  0.00    -0.031 C 
BRANCH  17  18
HETATM   18  N   UNL     1     -40.829 -51.396  11.120  1.00  0.00    -0.365 N 
ATOM     19  HN2 UNL     1     -41.184 -52.021  11.843  1.00  0.00     0.165 HD
ATOM     20  HN1 UNL     1     -40.450 -50.782  10.399  1.00  0.00     0.165 HD
ENDBRANCH  17  18
ENDBRANCH   8  17
TORSDOF 5
ENDMDL
MODEL 2
REMARK VINA RESULT:      -5.4      1.910      3.669
REMARK  5 active torsions:
REMARK  status: ('A' for Active; 'I' for Inactive)
REMARK    1  A    between atoms: C_4  and  O_5 
REMARK    2  A    between atoms: N_6  and  C_7 
REMARK    3  A    between atoms: C_7  and  C_8 
REMARK    4  A    between atoms: C_15  and  C_16 
REMARK    5  A    between atoms: C_16  and  N_17 
ROOT
HETATM    1  C   UNL     1     -39.041 -54.625  15.532  1.00  0.00     0.050 C 
HETATM    2  C   UNL     1     -40.409 -54.515  14.907  1.00  0.00    -0.033 A 
HETATM    3  C   UNL     1     -40.500 -53.885  13.612  1.00  0.00     0.064 A 
HETATM    4  C   UNL     1     -41.685 -53.767  12.990  1.00  0.00     0.145 A 
HETATM    5  N   UNL     1     -42.844 -54.276  13.553  1.00  0.00    -0.291 N 
HETATM    6  C   UNL     1     -42.852 -54.849  14.833  1.00  0.00     0.269 A 
HETATM    7  O   UNL     1     -43.865 -55.271  15.387  1.00  0.00    -0.266 OA
HETATM    8  C   UNL     1     -41.535 -54.937  15.517  1.00  0.00     0.100 A 
ENDROOT
BRANCH   5   9
HETATM    9  C   UNL     1     -44.124 -54.165  12.835  1.00  0.00     0.166 C 
BRANCH   9  10
HETATM   10  C   UNL     1     -44.785 -52.774  12.831  1.00  0.00     0.140 C 
HETATM   11  C   UNL     1     -45.114 -52.136  14.177  1.00  0.00     0.035 C 
HETATM   12  C   UNL     1     -46.459 -51.465  13.968  1.00  0.00     0.029 C 
HETATM   13  C   UNL     1     -46.692 -51.551  12.478  1.00  0.00     0.168 C 
HETATM   14  O   UNL     1     -46.000 -52.730  12.061  1.00  0.00    -0.384 OA
ENDBRANCH   9  10
ENDBRANCH   5   9
BRANCH   4  15
HETATM   15  O   UNL     1     -41.811 -53.096  11.800  1.00  0.00    -0.346 OA
HETATM   16  H   UNL     1     -41.063 -53.323  11.227  1.00  0.00     0.219 HD
ENDBRANCH   4  15
BRANCH   8  17
HETATM   17  C   UNL     1     -41.451 -55.434  16.951  1.00  0.00    -0.031 C 
BRANCH  17  18
HETATM   18  N   UNL     1     -41.381 -55.846  18.141  1.00  0.00    -0.365 N 
ATOM     19  HN2 UNL     1     -41.428 -55.488  17.187  1.00  0.00     0.165 HD
ATOM     20  HN1 UNL     1     -41.324 -56.180  19.103  1.00  0.00     0.165 HD
ENDBRANCH  17  18
ENDBRANCH   8  17
TORSDOF 5
ENDMDL
MODEL 3
REMARK VINA RESULT:      -5.3      2.847      5.925
REMARK  5 active torsions:
REMARK  status: ('A' for Active; 'I' for Inactive)
REMARK    1  A    between atoms: C_4  and  O_5 
REMARK    2  A    between atoms: N_6  and  C_7 
REMARK    3  A    between atoms: C_7  and  C_8 
REMARK    4  A    between atoms: C_15  and  C_16 
REMARK    5  A    between atoms: C_16  and  N_17 
ROOT
HETATM    1  C   UNL     1     -44.771 -54.587  14.451  1.00  0.00     0.050 C 
HETATM    2  C   UNL     1     -43.824 -53.615  13.793  1.00  0.00    -0.033 A 
HETATM    3  C   UNL     1     -42.611 -54.151  13.224  1.00  0.00     0.064 A 
HETATM    4  C   UNL     1     -41.730 -53.346  12.608  1.00  0.00     0.145 A 
HETATM    5  N   UNL     1     -41.974 -51.989  12.469  1.00  0.00    -0.291 N 
HETATM    6  C   UNL     1     -43.097 -51.380  13.044  1.00  0.00     0.269 A 
HETATM    7  O   UNL     1     -43.328 -50.174  12.984  1.00  0.00    -0.266 OA
HETATM    8  C   UNL     1     -44.042 -52.285  13.751  1.00  0.00     0.100 A 
ENDROOT
BRANCH   5   9
HETATM    9  C   UNL     1     -41.008 -51.135  11.760  1.00  0.00     0.166 C 
BRANCH   9  10
HETATM   10  C   UNL     1     -39.793 -50.656  12.576  1.00  0.00     0.140 C 
HETATM   11  C   UNL     1     -39.244 -49.262  12.287  1.00  0.00     0.035 C 
HETATM   12  C   UNL     1     -37.737 -49.416  12.368  1.00  0.00     0.029 C 
HETATM   13  C   UNL     1     -37.533 -50.804  12.928  1.00  0.00     0.168 C 
HETATM   14  O   UNL     1     -38.670 -51.551  12.493  1.00  0.00    -0.384 OA
ENDBRANCH   9  10
ENDBRANCH   5   9
BRANCH   4  15
HETATM   15  O   UNL     1     -40.531 -53.816  12.136  1.00  0.00    -0.346 OA
HETATM   16  H   UNL     1     -39.821 -53.223  12.428  1.00  0.00     0.219 HD
ENDBRANCH   4  15
BRANCH   8  17
HETATM   17  C   UNL     1     -45.229 -51.712  14.507  1.00  0.00    -0.031 C 
BRANCH  17  18
HETATM   18  N   UNL     1     -46.214 -51.237  15.135  1.00  0.00    -0.365 N 
ATOM     19  HN2 UNL     1     -45.419 -51.644  14.642  1.00  0.00     0.165 HD
ATOM     20  HN1 UNL     1     -47.011 -50.851  15.642  1.00  0.00     0.165 HD
ENDBRANCH  17  18
ENDBRANCH   8  17
TORSDOF 5
ENDMDL
MODEL 4
REMARK VINA RESULT:      -5.3      1.885      5.692
REMARK  5 active torsions:
REMARK  status: ('A' for Active; 'I' for Inactive)
REMARK    1  A    between atoms: C_4  and  O_5 
REMARK    2  A    between atoms: N_6  and  C_7 
REMARK    3  A    between atoms: C_7  and  C_8 
REMARK    4  A    between atoms: C_15  and  C_16 
REMARK    5  A    between atoms: C_16  and  N_17 
ROOT
HETATM    1  C   UNL     1     -47.610 -51.068  16.651  1.00  0.00     0.050 C 
HETATM    2  C   UNL     1     -46.786 -51.902  15.703  1.00  0.00    -0.033 A 
HETATM    3  C   UNL     1     -46.795 -51.528  14.309  1.00  0.00     0.064 A 
HETATM    4  C   UNL     1     -46.071 -52.216  13.411  1.00  0.00     0.145 A 
HETATM    5  N   UNL     1     -45.269 -53.278  13.798  1.00  0.00    -0.291 N 
HETATM    6  C   UNL     1     -45.250 -53.742  15.121  1.00  0.00     0.269 A 
HETATM    7  O   UNL     1     -44.589 -54.708  15.497  1.00  0.00    -0.266 OA
HETATM    8  C   UNL     1     -46.086 -52.987  16.091  1.00  0.00     0.100 A 
ENDROOT
BRANCH   5   9
HETATM    9  C   UNL     1     -44.459 -53.994  12.801  1.00  0.00     0.166 C 
BRANCH   9  10
HETATM   10  C   UNL     1     -43.045 -53.437  12.543  1.00  0.00     0.140 C 
HETATM   11  C   UNL     1     -41.899 -53.984  13.388  1.00  0.00     0.035 C 
HETATM   12  C   UNL     1     -41.029 -52.777  13.686  1.00  0.00     0.029 C 
HETATM   13  C   UNL     1     -41.591 -51.685  12.805  1.00  0.00     0.168 C 
HETATM   14  O   UNL     1     -42.975 -52.005  12.655  1.00  0.00    -0.384 OA
ENDBRANCH   9  10
ENDBRANCH   5   9
BRANCH   4  15
HETATM   15  O   UNL     1     -46.129 -51.936  12.070  1.00  0.00    -0.346 OA
HETATM   16  H   UNL     1     -45.416 -52.411  11.615  1.00  0.00     0.219 HD
ENDBRANCH   4  15
BRANCH   8  17
HETATM   17  C   UNL     1     -46.226 -53.477  17.523  1.00  0.00    -0.031 C 
BRANCH  17  18
HETATM   18  N   UNL     1     -46.343 -53.883  18.711  1.00  0.00    -0.365 N 
ATOM     19  HN2 UNL     1     -46.264 -53.576  17.742  1.00  0.00     0.165 HD
ATOM     20  HN1 UNL     1     -46.437 -54.211  19.672  1.00  0.00     0.165 HD
ENDBRANCH  17  18
ENDBRANCH   8  17
TORSDOF 5
ENDMDL
MODEL 5
REMARK VINA RESULT:      -5.2      1.803      2.975
REMARK  5 active torsions:
REMARK  status: ('A' for Active; 'I' for Inactive)
REMARK    1  A    between atoms: C_4  and  O_5 
REMARK    2  A    between atoms: N_6  and  C_7 
REMARK    3  A    between atoms: C_7  and  C_8 
REMARK    4  A    between atoms: C_15  and  C_16 
REMARK    5  A    between atoms: C_16  and  N_17 
ROOT
HETATM    1  C   UNL     1     -40.828 -53.513  12.535  1.00  0.00     0.050 C 
HETATM    2  C   UNL     1     -42.226 -53.665  13.078  1.00  0.00    -0.033 A 
HETATM    3  C   UNL     1     -43.311 -53.157  12.273  1.00  0.00     0.064 A 
HETATM    4  C   UNL     1     -44.583 -53.273  12.686  1.00  0.00     0.145 A 
HETATM    5  N   UNL     1     -44.895 -53.912  13.876  1.00  0.00    -0.291 N 
HETATM    6  C   UNL     1     -43.899 -54.380  14.744  1.00  0.00     0.269 A 
HETATM    7  O   UNL     1     -44.130 -54.911  15.828  1.00  0.00    -0.266 OA
HETATM    8  C   UNL     1     -42.496 -54.210  14.281  1.00  0.00     0.100 A 
ENDROOT
BRANCH   5   9
HETATM    9  C   UNL     1     -46.299 -54.057  14.290  1.00  0.00     0.166 C 
BRANCH   9  10
HETATM   10  C   UNL     1     -46.847 -52.970  15.234  1.00  0.00     0.140 C 
HETATM   11  C   UNL     1     -46.460 -51.521  14.955  1.00  0.00     0.035 C 
HETATM   12  C   UNL     1     -46.223 -50.914  16.326  1.00  0.00     0.029 C 
HETATM   13  C   UNL     1     -46.719 -51.966  17.291  1.00  0.00     0.168 C 
HETATM   14  O   UNL     1     -46.525 -53.210  16.616  1.00  0.00    -0.384 OA
ENDBRANCH   9  10
ENDBRANCH   5   9
BRANCH   4  15
HETATM   15  O   UNL     1     -45.624 -52.723  11.982  1.00  0.00    -0.346 OA
HETATM   16  H   UNL     1     -46.063 -52.057  12.534  1.00  0.00     0.219 HD
ENDBRANCH   4  15
BRANCH   8  17
HETATM   17  C   UNL     1     -41.339 -54.576  15.197  1.00  0.00    -0.031 C 
BRANCH  17  18
HETATM   18  N   UNL     1     -40.380 -54.880  15.956  1.00  0.00    -0.365 N 
ATOM     19  HN2 UNL     1     -41.173 -54.643  15.361  1.00  0.00     0.165 HD
ATOM     20  HN1 UNL     1     -39.603 -55.125  16.570  1.00  0.00     0.165 HD
ENDBRANCH  17  18
ENDBRANCH   8  17
TORSDOF 5
ENDMDL
MODEL 6
REMARK VINA RESULT:      -5.2      1.553      2.093
REMARK  5 active torsions:
REMARK  status: ('A' for Active; 'I' for Inactive)
REMARK    1  A    between atoms: C_4  and  O_5 
REMARK    2  A    between atoms: N_6  and  C_7 
REMARK    3  A    between atoms: C_7  and  C_8 
REMARK    4  A    between atoms: C_15  and  C_16 
REMARK    5  A    between atoms: C_16  and  N_17 
ROOT
HETATM    1  C   UNL     1     -40.890 -54.209  14.597  1.00  0.00     0.050 C 
HETATM    2  C   UNL     1     -42.359 -53.878  14.528  1.00  0.00    -0.033 A 
HETATM    3  C   UNL     1     -43.206 -54.389  15.578  1.00  0.00     0.064 A 
HETATM    4  C   UNL     1     -44.522 -54.119  15.589  1.00  0.00     0.145 A 
HETATM    5  N   UNL     1     -45.098 -53.316  14.617  1.00  0.00    -0.291 N 
HETATM    6  C   UNL     1     -44.358 -52.830  13.530  1.00  0.00     0.269 A 
HETATM    7  O   UNL     1     -44.838 -52.154  12.623  1.00  0.00    -0.266 OA
HETATM    8  C   UNL     1     -42.910 -53.170  13.521  1.00  0.00     0.100 A 
ENDROOT
BRANCH   5   9
HETATM    9  C   UNL     1     -46.535 -53.008  14.670  1.00  0.00     0.166 C 
BRANCH   9  10
HETATM   10  C   UNL     1     -46.930 -51.726  15.427  1.00  0.00     0.140 C 
HETATM   11  C   UNL     1     -45.823 -50.937  16.119  1.00  0.00     0.035 C 
HETATM   12  C   UNL     1     -46.438 -50.476  17.428  1.00  0.00     0.029 C 
HETATM   13  C   UNL     1     -47.904 -50.815  17.292  1.00  0.00     0.168 C 
HETATM   14  O   UNL     1     -47.943 -51.950  16.424  1.00  0.00    -0.384 OA
ENDBRANCH   9  10
ENDBRANCH   5   9
BRANCH   4  15
HETATM   15  O   UNL     1     -45.362 -54.664  16.526  1.00  0.00    -0.346 OA
HETATM   16  H   UNL     1     -44.866 -54.819  17.345  1.00  0.00     0.219 HD
ENDBRANCH   4  15
BRANCH   8  17
HETATM   17  C   UNL     1     -42.044 -52.791  12.330  1.00  0.00    -0.031 C 
BRANCH  17  18
HETATM   18  N   UNL     1     -41.326 -52.476  11.343  1.00  0.00    -0.365 N 
ATOM     19  HN2 UNL     1     -41.918 -52.706  12.141  1.00  0.00     0.165 HD
ATOM     20  HN1 UNL     1     -40.744 -52.222  10.544  1.00  0.00     0.165 HD
ENDBRANCH  17  18
ENDBRANCH   8  17
TORSDOF 5
ENDMDL
MODEL 7
REMARK VINA RESULT:      -5.2      2.623      4.348
REMARK  5 active torsions:
REMARK  status: ('A' for Active; 'I' for Inactive)
REMARK    1  A    between atoms: C_4  and  O_5 
REMARK    2  A    between atoms: N_6  and  C_7 
REMARK    3  A    between atoms: C_7  and  C_8 
REMARK    4  A    between atoms: C_15  and  C_16 
REMARK    5  A    between atoms: C_16  and  N_17 
ROOT
HETATM    1  C   UNL     1     -37.934 -49.673  13.355  1.00  0.00     0.050 C 
HETATM    2  C   UNL     1     -38.876 -50.848  13.429  1.00  0.00    -0.033 A 
HETATM    3  C   UNL     1     -39.695 -51.117  12.273  1.00  0.00     0.064 A 
HETATM    4  C   UNL     1     -40.544 -52.158  12.263  1.00  0.00     0.145 A 
HETATM    5  N   UNL     1     -40.634 -53.021  13.343  1.00  0.00    -0.291 N 
HETATM    6  C   UNL     1     -39.917 -52.796  14.527  1.00  0.00     0.269 A 
HETATM    7  O   UNL     1     -40.002 -53.510  15.523  1.00  0.00    -0.266 OA
HETATM    8  C   UNL     1     -39.009 -51.619  14.527  1.00  0.00     0.100 A 
ENDROOT
BRANCH   5   9
HETATM    9  C   UNL     1     -41.547 -54.174  13.293  1.00  0.00     0.166 C 
BRANCH   9  10
HETATM   10  C   UNL     1     -43.009 -53.903  13.696  1.00  0.00     0.140 C 
HETATM   11  C   UNL     1     -43.734 -54.970  14.511  1.00  0.00     0.035 C 
HETATM   12  C   UNL     1     -45.142 -54.997  13.945  1.00  0.00     0.029 C 
HETATM   13  C   UNL     1     -45.200 -53.797  13.029  1.00  0.00     0.168 C 
HETATM   14  O   UNL     1     -43.858 -53.615  12.571  1.00  0.00    -0.384 OA
ENDBRANCH   9  10
ENDBRANCH   5   9
BRANCH   4  15
HETATM   15  O   UNL     1     -41.396 -52.384  11.211  1.00  0.00    -0.346 OA
HETATM   16  H   UNL     1     -41.051 -51.937  10.422  1.00  0.00     0.219 HD
ENDBRANCH   4  15
BRANCH   8  17
HETATM   17  C   UNL     1     -38.276 -51.220  15.798  1.00  0.00    -0.031 C 
BRANCH  17  18
HETATM   18  N   UNL     1     -37.668 -50.888  16.851  1.00  0.00    -0.365 N 
ATOM     19  HN2 UNL     1     -38.155 -51.131  15.989  1.00  0.00     0.165 HD
ATOM     20  HN1 UNL     1     -37.177 -50.621  17.704  1.00  0.00     0.165 HD
ENDBRANCH  17  18
ENDBRANCH   8  17
TORSDOF 5
ENDMDL
MODEL 8
REMARK VINA RESULT:      -5.1      2.455      5.324
REMARK  5 active torsions:
REMARK  status: ('A' for Active; 'I' for Inactive)
REMARK    1  A    between atoms: C_4  and  O_5 
REMARK    2  A    between atoms: N_6  and  C_7 
REMARK    3  A    between atoms: C_7  and  C_8 
REMARK    4  A    between atoms: C_15  and  C_16 
REMARK    5  A    between atoms: C_16  and  N_17 
ROOT
HETATM    1  C   UNL     1     -47.713 -51.208  16.617  1.00  0.00     0.050 C 
HETATM    2  C   UNL     1     -46.588 -51.551  15.673  1.00  0.00    -0.033 A 
HETATM    3  C   UNL     1     -46.843 -52.561  14.674  1.00  0.00     0.064 A 
HETATM    4  C   UNL     1     -45.892 -52.904  13.791  1.00  0.00     0.145 A 
HETATM    5  N   UNL     1     -44.655 -52.279  13.788  1.00  0.00    -0.291 N 
HETATM    6  C   UNL     1     -44.307 -51.332  14.761  1.00  0.00     0.269 A 
HETATM    7  O   UNL     1     -43.207 -50.787  14.822  1.00  0.00    -0.266 OA
HETATM    8  C   UNL     1     -45.364 -50.992  15.750  1.00  0.00     0.100 A 
ENDROOT
BRANCH   5   9
HETATM    9  C   UNL     1     -43.643 -52.650  12.787  1.00  0.00     0.166 C 
BRANCH   9  10
HETATM   10  C   UNL     1     -42.608 -53.704  13.223  1.00  0.00     0.140 C 
HETATM   11  C   UNL     1     -42.908 -54.525  14.473  1.00  0.00     0.035 C 
HETATM   12  C   UNL     1     -41.573 -54.651  15.183  1.00  0.00     0.029 C 
HETATM   13  C   UNL     1     -40.569 -54.115  14.188  1.00  0.00     0.168 C 
HETATM   14  O   UNL     1     -41.291 -53.156  13.413  1.00  0.00    -0.384 OA
ENDBRANCH   9  10
ENDBRANCH   5   9
BRANCH   4  15
HETATM   15  O   UNL     1     -46.079 -53.920  12.888  1.00  0.00    -0.346 OA
HETATM   16  H   UNL     1     -46.909 -54.378  13.093  1.00  0.00     0.219 HD
ENDBRANCH   4  15
BRANCH   8  17
HETATM   17  C   UNL     1     -45.052 -50.065  16.914  1.00  0.00    -0.031 C 
BRANCH  17  18
HETATM   18  N   UNL     1     -44.794 -49.296  17.879  1.00  0.00    -0.365 N 
ATOM     19  HN2 UNL     1     -44.991 -49.939  17.112  1.00  0.00     0.165 HD
ATOM     20  HN1 UNL     1     -44.585 -48.673  18.660  1.00  0.00     0.165 HD
ENDBRANCH  17  18
ENDBRANCH   8  17
TORSDOF 5
ENDMDL
MODEL 9
REMARK VINA RESULT:      -5.0      2.208      3.328
REMARK  5 active torsions:
REMARK  status: ('A' for Active; 'I' for Inactive)
REMARK    1  A    between atoms: C_4  and  O_5 
REMARK    2  A    between atoms: N_6  and  C_7 
REMARK    3  A    between atoms: C_7  and  C_8 
REMARK    4  A    between atoms: C_15  and  C_16 
REMARK    5  A    between atoms: C_16  and  N_17 
ROOT
HETATM    1  C   UNL     1     -38.276 -51.575  13.424  1.00  0.00     0.050 C 
HETATM    2  C   UNL     1     -39.732 -51.930  13.252  1.00  0.00    -0.033 A 
HETATM    3  C   UNL     1     -40.621 -50.890  12.796  1.00  0.00     0.064 A 
HETATM    4  C   UNL     1     -41.926 -51.140  12.605  1.00  0.00     0.145 A 
HETATM    5  N   UNL     1     -42.451 -52.407  12.805  1.00  0.00    -0.291 N 
HETATM    6  C   UNL     1     -41.668 -53.458  13.304  1.00  0.00     0.269 A 
HETATM    7  O   UNL     1     -42.103 -54.583  13.537  1.00  0.00    -0.266 OA
HETATM    8  C   UNL     1     -40.233 -53.149  13.540  1.00  0.00     0.100 A 
ENDROOT
BRANCH   5   9
HETATM    9  C   UNL     1     -43.878 -52.664  12.555  1.00  0.00     0.166 C 
BRANCH   9  10
HETATM   10  C   UNL     1     -44.818 -52.524  13.768  1.00  0.00     0.140 C 
HETATM   11  C   UNL     1     -46.316 -52.418  13.500  1.00  0.00     0.035 C 
HETATM   12  C   UNL     1     -46.815 -51.391  14.500  1.00  0.00     0.029 C 
HETATM   13  C   UNL     1     -45.638 -51.162  15.419  1.00  0.00     0.168 C 
HETATM   14  O   UNL     1     -44.484 -51.409  14.614  1.00  0.00    -0.384 OA
ENDBRANCH   9  10
ENDBRANCH   5   9
BRANCH   4  15
HETATM   15  O   UNL     1     -42.808 -50.148  12.256  1.00  0.00    -0.346 OA
HETATM   16  H   UNL     1     -42.468 -49.683  11.476  1.00  0.00     0.219 HD
ENDBRANCH   4  15
BRANCH   8  17
HETATM   17  C   UNL     1     -39.325 -54.181  14.188  1.00  0.00    -0.031 C 
BRANCH  17  18
HETATM   18  N   UNL     1     -38.572 -55.038  14.725  1.00  0.00    -0.365 N 
ATOM     19  HN2 UNL     1     -39.164 -54.325  14.300  1.00  0.00     0.165 HD
ATOM     20  HN1 UNL     1     -37.963 -55.732  15.159  1.00  0.00     0.165 HD
ENDBRANCH  17  18
ENDBRANCH   8  17
TORSDOF 5
ENDMDL
