MODEL 1
REMARK VINA RESULT:      -6.3      0.000      0.000
REMARK  5 active torsions:
REMARK  status: ('A' for Active; 'I' for Inactive)
REMARK    1  A    between atoms: C_5  and  C_6 
REMARK    2  A    between atoms: C_6  and  C_7 
REMARK       I    between atoms: C_7  and  N_9 
REMARK    3  A    between atoms: N_9  and  C_10 
REMARK    4  A    between atoms: C_10  and  C_16 
REMARK    5  A    between atoms: C_16  and  O_18 
ROOT
HETATM    1  C   UNL     1     -42.901 -54.426  14.982  1.00  0.00     0.223 C 
HETATM    2  O   UNL     1     -43.193 -55.580  15.263  1.00  0.00    -0.273 OA
HETATM    3  N   UNL     1     -43.816 -53.420  14.815  1.00  0.00    -0.342 N 
HETATM    4  H   UNL     1     -43.431 -52.607  14.335  1.00  0.00     0.163 HD
ENDROOT
BRANCH   3   5
HETATM    5  C   UNL     1     -45.301 -53.496  14.670  1.00  0.00     0.118 C 
HETATM    6  C   UNL     1     -46.063 -52.268  14.116  1.00  0.00     0.042 C 
HETATM    7  C   UNL     1     -46.623 -51.264  15.125  1.00  0.00     0.003 C 
HETATM    8  C   UNL     1     -47.150 -51.889  16.409  1.00  0.00     0.000 C 
HETATM    9  C   UNL     1     -46.170 -52.905  16.979  1.00  0.00     0.003 C 
HETATM   10  C   UNL     1     -45.922 -54.023  15.970  1.00  0.00     0.042 C 
BRANCH   5  11
HETATM   11  C   UNL     1     -45.394 -54.536  13.521  1.00  0.00     0.169 C 
HETATM   12  O   UNL     1     -44.897 -54.428  12.419  1.00  0.00    -0.648 OA
BRANCH  11  13
HETATM   13  O   UNL     1     -46.039 -55.675  13.919  1.00  0.00    -0.775 OA
HETATM   14  H   UNL     1     -46.449 -56.110  13.136  1.00  0.00     0.167 HD
ENDBRANCH  11  13
ENDBRANCH   5  11
ENDBRANCH   3   5
BRANCH   1  15
HETATM   15  C   UNL     1     -41.460 -53.952  14.811  1.00  0.00     0.142 C 
BRANCH  15  16
HETATM   16  C   UNL     1     -41.268 -52.808  13.849  1.00  0.00    -0.034 A 
HETATM   17  C   UNL     1     -40.934 -51.531  14.317  1.00  0.00     0.011 A 
HETATM   18  C   UNL     1     -40.620 -50.513  13.414  1.00  0.00     0.025 A 
HETATM   19  C   UNL     1     -40.653 -50.790  12.054  1.00  0.00     0.005 A 
HETATM   20  C   UNL     1     -40.232 -49.767  11.042  1.00  0.00     0.068 C 
HETATM   21  N   UNL     1     -40.999 -52.008  11.575  1.00  0.00    -0.369 N 
HETATM   22  C   UNL     1     -41.285 -52.983  12.470  1.00  0.00     0.095 A 
ATOM     23  HN  UNL     1     -41.044 -52.185  10.571  1.00  0.00     0.165 HD
ENDBRANCH  15  16
ENDBRANCH   1  15
TORSDOF 5
ENDMDL
MODEL 2
REMARK VINA RESULT:      -6.2      3.537      6.859
REMARK  5 active torsions:
REMARK  status: ('A' for Active; 'I' for Inactive)
REMARK    1  A    between atoms: C_5  and  C_6 
REMARK    2  A    between atoms: C_6  and  C_7 
REMARK       I    between atoms: C_7  and  N_9 
REMARK    3  A    between atoms: N_9  and  C_10 
REMARK    4  A    between atoms: C_10  and  C_16 
REMARK    5  A    between atoms: C_16  and  O_18 
ROOT
HETATM    1  C   UNL     1     -40.261 -52.070  12.467  1.00  0.00     0.223 C 
HETATM    2  O   UNL     1     -39.734 -52.663  13.399  1.00  0.00    -0.273 OA
HETATM    3  N   UNL     1     -39.759 -50.929  11.898  1.00  0.00    -0.342 N 
HETATM    4  H   UNL     1     -40.443 -50.433  11.328  1.00  0.00     0.163 HD
ENDROOT
BRANCH   3   5
HETATM    5  C   UNL     1     -38.680 -50.017  12.386  1.00  0.00     0.118 C 
HETATM    6  C   UNL     1     -38.284 -50.058  13.882  1.00  0.00     0.042 C 
HETATM    7  C   UNL     1     -38.978 -49.077  14.828  1.00  0.00     0.003 C 
HETATM    8  C   UNL     1     -39.262 -47.710  14.220  1.00  0.00     0.000 C 
HETATM    9  C   UNL     1     -39.888 -47.833  12.839  1.00  0.00     0.003 C 
HETATM   10  C   UNL     1     -38.951 -48.587  11.900  1.00  0.00     0.042 C 
BRANCH   5  11
HETATM   11  C   UNL     1     -37.461 -50.652  11.666  1.00  0.00     0.169 C 
HETATM   12  O   UNL     1     -36.780 -51.565  12.086  1.00  0.00    -0.648 OA
BRANCH  11  13
HETATM   13  O   UNL     1     -37.278 -50.124  10.416  1.00  0.00    -0.775 OA
HETATM   14  H   UNL     1     -37.397 -50.832   9.741  1.00  0.00     0.167 HD
ENDBRANCH  11  13
ENDBRANCH   5  11
ENDBRANCH   3   5
BRANCH   1  15
HETATM   15  C   UNL     1     -41.543 -52.553  11.793  1.00  0.00     0.142 C 
BRANCH  15  16
HETATM   16  C   UNL     1     -42.813 -52.285  12.559  1.00  0.00    -0.034 A 
HETATM   17  C   UNL     1     -43.016 -51.053  13.195  1.00  0.00     0.011 A 
HETATM   18  C   UNL     1     -44.248 -50.761  13.782  1.00  0.00     0.025 A 
HETATM   19  C   UNL     1     -45.259 -51.711  13.727  1.00  0.00     0.005 A 
HETATM   20  C   UNL     1     -46.632 -51.417  14.252  1.00  0.00     0.068 C 
HETATM   21  N   UNL     1     -45.081 -52.919  13.142  1.00  0.00    -0.369 N 
HETATM   22  C   UNL     1     -43.881 -53.174  12.568  1.00  0.00     0.095 A 
ATOM     23  HN  UNL     1     -45.826 -53.615  13.135  1.00  0.00     0.165 HD
ENDBRANCH  15  16
ENDBRANCH   1  15
TORSDOF 5
ENDMDL
MODEL 3
REMARK VINA RESULT:      -6.2      2.022      5.887
REMARK  5 active torsions:
REMARK  status: ('A' for Active; 'I' for Inactive)
REMARK    1  A    between atoms: C_5  and  C_6 
REMARK    2  A    between atoms: C_6  and  C_7 
REMARK       I    between atoms: C_7  and  N_9 
REMARK    3  A    between atoms: N_9  and  C_10 
REMARK    4  A    between atoms: C_10  and  C_16 
REMARK    5  A    between atoms: C_16  and  O_18 
ROOT
HETATM    1  C   UNL     1     -43.285 -54.510  14.277  1.00  0.00     0.223 C 
HETATM    2  O   UNL     1     -42.736 -55.278  15.057  1.00  0.00    -0.273 OA
HETATM    3  N   UNL     1     -42.619 -53.609  13.489  1.00  0.00    -0.342 N 
HETATM    4  H   UNL     1     -43.229 -52.886  13.109  1.00  0.00     0.163 HD
ENDROOT
BRANCH   3   5
HETATM    5  C   UNL     1     -41.196 -53.156  13.552  1.00  0.00     0.118 C 
HETATM    6  C   UNL     1     -40.073 -54.221  13.584  1.00  0.00     0.042 C 
HETATM    7  C   UNL     1     -39.562 -54.675  14.952  1.00  0.00     0.003 C 
HETATM    8  C   UNL     1     -39.507 -53.573  16.001  1.00  0.00     0.000 C 
HETATM    9  C   UNL     1     -40.793 -52.760  16.026  1.00  0.00     0.003 C 
HETATM   10  C   UNL     1     -41.033 -52.112  14.665  1.00  0.00     0.042 C 
BRANCH   5  11
HETATM   11  C   UNL     1     -41.064 -52.524  12.141  1.00  0.00     0.169 C 
HETATM   12  O   UNL     1     -41.272 -51.362  11.858  1.00  0.00    -0.648 OA
BRANCH  11  13
HETATM   13  O   UNL     1     -40.577 -53.419  11.228  1.00  0.00    -0.775 OA
HETATM   14  H   UNL     1     -41.082 -54.263  11.295  1.00  0.00     0.167 HD
ENDBRANCH  11  13
ENDBRANCH   5  11
ENDBRANCH   3   5
BRANCH   1  15
HETATM   15  C   UNL     1     -44.795 -54.485  14.062  1.00  0.00     0.142 C 
BRANCH  15  16
HETATM   16  C   UNL     1     -45.544 -53.454  14.867  1.00  0.00    -0.034 A 
HETATM   17  C   UNL     1     -46.130 -52.347  14.238  1.00  0.00     0.011 A 
HETATM   18  C   UNL     1     -46.938 -51.474  14.968  1.00  0.00     0.025 A 
HETATM   19  C   UNL     1     -47.142 -51.719  16.319  1.00  0.00     0.005 A 
HETATM   20  C   UNL     1     -48.076 -50.873  17.131  1.00  0.00     0.068 C 
HETATM   21  N   UNL     1     -46.565 -52.765  16.956  1.00  0.00    -0.369 N 
HETATM   22  C   UNL     1     -45.797 -53.607  16.224  1.00  0.00     0.095 A 
ATOM     23  HN  UNL     1     -46.705 -52.915  17.955  1.00  0.00     0.165 HD
ENDBRANCH  15  16
ENDBRANCH   1  15
TORSDOF 5
ENDMDL
MODEL 4
REMARK VINA RESULT:      -6.2      2.867      6.160
REMARK  5 active torsions:
REMARK  status: ('A' for Active; 'I' for Inactive)
REMARK    1  A    between atoms: C_5  and  C_6 
REMARK    2  A    between atoms: C_6  and  C_7 
REMARK       I    between atoms: C_7  and  N_9 
REMARK    3  A    between atoms: N_9  and  C_10 
REMARK    4  A    between atoms: C_10  and  C_16 
REMARK    5  A    between atoms: C_16  and  O_18 
ROOT
HETATM    1  C   UNL     1     -40.402 -53.136  13.052  1.00  0.00     0.223 C 
HETATM    2  O   UNL     1     -39.283 -53.409  13.466  1.00  0.00    -0.273 OA
HETATM    3  N   UNL     1     -40.748 -51.922  12.519  1.00  0.00    -0.342 N 
HETATM    4  H   UNL     1     -41.757 -51.781  12.472  1.00  0.00     0.163 HD
ENDROOT
BRANCH   3   5
HETATM    5  C   UNL     1     -40.008 -50.625  12.542  1.00  0.00     0.118 C 
HETATM    6  C   UNL     1     -38.553 -50.583  12.017  1.00  0.00     0.042 C 
HETATM    7  C   UNL     1     -37.424 -50.777  13.030  1.00  0.00     0.003 C 
HETATM    8  C   UNL     1     -37.690 -50.155  14.395  1.00  0.00     0.000 C 
HETATM    9  C   UNL     1     -39.084 -50.494  14.902  1.00  0.00     0.003 C 
HETATM   10  C   UNL     1     -40.140 -49.978  13.928  1.00  0.00     0.042 C 
BRANCH   5  11
HETATM   11  C   UNL     1     -40.811 -49.850  11.464  1.00  0.00     0.169 C 
HETATM   12  O   UNL     1     -41.776 -49.142  11.664  1.00  0.00    -0.648 OA
BRANCH  11  13
HETATM   13  O   UNL     1     -40.244 -49.971  10.225  1.00  0.00    -0.775 OA
HETATM   14  H   UNL     1     -39.454 -49.384  10.167  1.00  0.00     0.167 HD
ENDBRANCH  11  13
ENDBRANCH   5  11
ENDBRANCH   3   5
BRANCH   1  15
HETATM   15  C   UNL     1     -41.554 -54.136  13.050  1.00  0.00     0.142 C 
BRANCH  15  16
HETATM   16  C   UNL     1     -42.915 -53.552  13.332  1.00  0.00    -0.034 A 
HETATM   17  C   UNL     1     -43.240 -53.088  14.613  1.00  0.00     0.011 A 
HETATM   18  C   UNL     1     -44.447 -52.421  14.832  1.00  0.00     0.025 A 
HETATM   19  C   UNL     1     -45.314 -52.236  13.764  1.00  0.00     0.005 A 
HETATM   20  C   UNL     1     -46.578 -51.444  13.917  1.00  0.00     0.068 C 
HETATM   21  N   UNL     1     -45.036 -52.699  12.522  1.00  0.00    -0.369 N 
HETATM   22  C   UNL     1     -43.853 -53.329  12.331  1.00  0.00     0.095 A 
ATOM     23  HN  UNL     1     -45.698 -52.576  11.755  1.00  0.00     0.165 HD
ENDBRANCH  15  16
ENDBRANCH   1  15
TORSDOF 5
ENDMDL
MODEL 5
REMARK VINA RESULT:      -6.1      2.536      3.871
REMARK  5 active torsions:
REMARK  status: ('A' for Active; 'I' for Inactive)
REMARK    1  A    between atoms: C_5  and  C_6 
REMARK    2  A    between atoms: C_6  and  C_7 
REMARK       I    between atoms: C_7  and  N_9 
REMARK    3  A    between atoms: N_9  and  C_10 
REMARK    4  A    between atoms: C_10  and  C_16 
REMARK    5  A    between atoms: C_16  and  O_18 
ROOT
HETATM    1  C   UNL     1     -43.432 -49.867  13.565  1.00  0.00     0.223 C 
HETATM    2  O   UNL     1     -43.418 -49.842  14.789  1.00  0.00    -0.273 OA
HETATM    3  N   UNL     1     -44.026 -50.854  12.823  1.00  0.00    -0.342 N 
HETATM    4  H   UNL     1     -43.721 -50.859  11.850  1.00  0.00     0.163 HD
ENDROOT
BRANCH   3   5
HETATM    5  C   UNL     1     -44.533 -52.193  13.250  1.00  0.00     0.118 C 
HETATM    6  C   UNL     1     -44.542 -52.544  14.758  1.00  0.00     0.042 C 
HETATM    7  C   UNL     1     -43.326 -53.278  15.325  1.00  0.00     0.003 C 
HETATM    8  C   UNL     1     -42.706 -54.295  14.376  1.00  0.00     0.000 C 
HETATM    9  C   UNL     1     -42.524 -53.719  12.980  1.00  0.00     0.003 C 
HETATM   10  C   UNL     1     -43.872 -53.291  12.406  1.00  0.00     0.042 C 
BRANCH   5  11
HETATM   11  C   UNL     1     -46.036 -52.022  12.903  1.00  0.00     0.169 C 
HETATM   12  O   UNL     1     -46.838 -51.351  13.519  1.00  0.00    -0.648 OA
BRANCH  11  13
HETATM   13  O   UNL     1     -46.361 -52.652  11.733  1.00  0.00    -0.775 OA
HETATM   14  H   UNL     1     -46.875 -52.035  11.161  1.00  0.00     0.167 HD
ENDBRANCH  11  13
ENDBRANCH   5  11
ENDBRANCH   3   5
BRANCH   1  15
HETATM   15  C   UNL     1     -42.811 -48.770  12.705  1.00  0.00     0.142 C 
BRANCH  15  16
HETATM   16  C   UNL     1     -41.367 -48.987  12.329  1.00  0.00    -0.034 A 
HETATM   17  C   UNL     1     -40.343 -48.697  13.239  1.00  0.00     0.011 A 
HETATM   18  C   UNL     1     -39.021 -49.031  12.937  1.00  0.00     0.025 A 
HETATM   19  C   UNL     1     -38.746 -49.645  11.723  1.00  0.00     0.005 A 
HETATM   20  C   UNL     1     -37.363 -50.115  11.385  1.00  0.00     0.068 C 
HETATM   21  N   UNL     1     -39.714 -49.911  10.814  1.00  0.00    -0.369 N 
HETATM   22  C   UNL     1     -40.989 -49.591  11.136  1.00  0.00     0.095 A 
ATOM     23  HN  UNL     1     -39.489 -50.339   9.916  1.00  0.00     0.165 HD
ENDBRANCH  15  16
ENDBRANCH   1  15
TORSDOF 5
ENDMDL
MODEL 6
REMARK VINA RESULT:      -6.1      1.706      2.399
REMARK  5 active torsions:
REMARK  status: ('A' for Active; 'I' for Inactive)
REMARK    1  A    between atoms: C_5  and  C_6 
REMARK    2  A    between atoms: C_6  and  C_7 
REMARK       I    between atoms: C_7  and  N_9 
REMARK    3  A    between atoms: N_9  and  C_10 
REMARK    4  A    between atoms: C_10  and  C_16 
REMARK    5  A    between atoms: C_16  and  O_18 
ROOT
HETATM    1  C   UNL     1     -42.974 -52.646  12.972  1.00  0.00     0.223 C 
HETATM    2  O   UNL     1     -43.489 -53.074  11.948  1.00  0.00    -0.273 OA
HETATM    3  N   UNL     1     -43.519 -52.785  14.222  1.00  0.00    -0.342 N 
HETATM    4  H   UNL     1     -43.106 -52.156  14.909  1.00  0.00     0.163 HD
ENDROOT
BRANCH   3   5
HETATM    5  C   UNL     1     -44.894 -53.212  14.620  1.00  0.00     0.118 C 
HETATM    6  C   UNL     1     -46.100 -52.741  13.770  1.00  0.00     0.042 C 
HETATM    7  C   UNL     1     -46.815 -51.460  14.198  1.00  0.00     0.003 C 
HETATM    8  C   UNL     1     -46.908 -51.264  15.705  1.00  0.00     0.000 C 
HETATM    9  C   UNL     1     -45.570 -51.519  16.384  1.00  0.00     0.003 C 
HETATM   10  C   UNL     1     -45.106 -52.948  16.116  1.00  0.00     0.042 C 
BRANCH   5  11
HETATM   11  C   UNL     1     -44.795 -54.729  14.308  1.00  0.00     0.169 C 
HETATM   12  O   UNL     1     -44.027 -55.515  14.825  1.00  0.00    -0.648 OA
BRANCH  11  13
HETATM   13  O   UNL     1     -45.761 -55.130  13.426  1.00  0.00    -0.775 OA
HETATM   14  H   UNL     1     -46.542 -55.464  13.925  1.00  0.00     0.167 HD
ENDBRANCH  11  13
ENDBRANCH   5  11
ENDBRANCH   3   5
BRANCH   1  15
HETATM   15  C   UNL     1     -41.630 -51.924  12.988  1.00  0.00     0.142 C 
BRANCH  15  16
HETATM   16  C   UNL     1     -41.605 -50.593  12.280  1.00  0.00    -0.034 A 
HETATM   17  C   UNL     1     -42.603 -49.640  12.518  1.00  0.00     0.011 A 
HETATM   18  C   UNL     1     -42.498 -48.362  11.968  1.00  0.00     0.025 A 
HETATM   19  C   UNL     1     -41.395 -48.060  11.181  1.00  0.00     0.005 A 
HETATM   20  C   UNL     1     -41.178 -46.677  10.644  1.00  0.00     0.068 C 
HETATM   21  N   UNL     1     -40.430 -48.971  10.912  1.00  0.00    -0.369 N 
HETATM   22  C   UNL     1     -40.547 -50.200  11.469  1.00  0.00     0.095 A 
ATOM     23  HN  UNL     1     -39.640 -48.739  10.310  1.00  0.00     0.165 HD
ENDBRANCH  15  16
ENDBRANCH   1  15
TORSDOF 5
ENDMDL
MODEL 7
REMARK VINA RESULT:      -6.0      3.006      4.436
REMARK  5 active torsions:
REMARK  status: ('A' for Active; 'I' for Inactive)
REMARK    1  A    between atoms: C_5  and  C_6 
REMARK    2  A    between atoms: C_6  and  C_7 
REMARK       I    between atoms: C_7  and  N_9 
REMARK    3  A    between atoms: N_9  and  C_10 
REMARK    4  A    between atoms: C_10  and  C_16 
REMARK    5  A    between atoms: C_16  and  O_18 
ROOT
HETATM    1  C   UNL     1     -41.269 -50.450  13.837  1.00  0.00     0.223 C 
HETATM    2  O   UNL     1     -40.362 -50.919  14.512  1.00  0.00    -0.273 OA
HETATM    3  N   UNL     1     -42.291 -51.189  13.302  1.00  0.00    -0.342 N 
HETATM    4  H   UNL     1     -42.797 -50.697  12.566  1.00  0.00     0.163 HD
ENDROOT
BRANCH   3   5
HETATM    5  C   UNL     1     -42.426 -52.671  13.168  1.00  0.00     0.118 C 
HETATM    6  C   UNL     1     -43.577 -53.243  12.305  1.00  0.00     0.042 C 
HETATM    7  C   UNL     1     -44.887 -53.597  13.010  1.00  0.00     0.003 C 
HETATM    8  C   UNL     1     -44.713 -54.173  14.409  1.00  0.00     0.000 C 
HETATM    9  C   UNL     1     -43.733 -53.351  15.234  1.00  0.00     0.003 C 
HETATM   10  C   UNL     1     -42.366 -53.324  14.556  1.00  0.00     0.042 C 
BRANCH   5  11
HETATM   11  C   UNL     1     -41.154 -52.972  12.332  1.00  0.00     0.169 C 
HETATM   12  O   UNL     1     -40.193 -53.616  12.701  1.00  0.00    -0.648 OA
BRANCH  11  13
HETATM   13  O   UNL     1     -41.267 -52.504  11.051  1.00  0.00    -0.775 OA
HETATM   14  H   UNL     1     -42.218 -52.480  10.794  1.00  0.00     0.167 HD
ENDBRANCH  11  13
ENDBRANCH   5  11
ENDBRANCH   3   5
BRANCH   1  15
HETATM   15  C   UNL     1     -41.392 -48.959  13.531  1.00  0.00     0.142 C 
BRANCH  15  16
HETATM   16  C   UNL     1     -41.980 -48.625  12.184  1.00  0.00    -0.034 A 
HETATM   17  C   UNL     1     -43.233 -48.008  12.087  1.00  0.00     0.011 A 
HETATM   18  C   UNL     1     -43.708 -47.574  10.847  1.00  0.00     0.025 A 
HETATM   19  C   UNL     1     -42.919 -47.773   9.722  1.00  0.00     0.005 A 
HETATM   20  C   UNL     1     -43.331 -47.242   8.381  1.00  0.00     0.068 C 
HETATM   21  N   UNL     1     -41.717 -48.391   9.784  1.00  0.00    -0.369 N 
HETATM   22  C   UNL     1     -41.272 -48.789  11.000  1.00  0.00     0.095 A 
ATOM     23  HN  UNL     1     -41.163 -48.551   8.942  1.00  0.00     0.165 HD
ENDBRANCH  15  16
ENDBRANCH   1  15
TORSDOF 5
ENDMDL
MODEL 8
REMARK VINA RESULT:      -5.9      3.473      6.735
REMARK  5 active torsions:
REMARK  status: ('A' for Active; 'I' for Inactive)
REMARK    1  A    between atoms: C_5  and  C_6 
REMARK    2  A    between atoms: C_6  and  C_7 
REMARK       I    between atoms: C_7  and  N_9 
REMARK    3  A    between atoms: N_9  and  C_10 
REMARK    4  A    between atoms: C_10  and  C_16 
REMARK    5  A    between atoms: C_16  and  O_18 
ROOT
HETATM    1  C   UNL     1     -39.688 -51.818  14.232  1.00  0.00     0.223 C 
HETATM    2  O   UNL     1     -40.170 -50.951  14.947  1.00  0.00    -0.273 OA
HETATM    3  N   UNL     1     -38.915 -51.564  13.129  1.00  0.00    -0.342 N 
HETATM    4  H   UNL     1     -38.822 -52.371  12.513  1.00  0.00     0.163 HD
ENDROOT
BRANCH   3   5
HETATM    5  C   UNL     1     -38.693 -50.280  12.397  1.00  0.00     0.118 C 
HETATM    6  C   UNL     1     -38.237 -49.034  13.193  1.00  0.00     0.042 C 
HETATM    7  C   UNL     1     -39.318 -48.081  13.705  1.00  0.00     0.003 C 
HETATM    8  C   UNL     1     -40.504 -47.911  12.765  1.00  0.00     0.000 C 
HETATM    9  C   UNL     1     -41.008 -49.253  12.254  1.00  0.00     0.003 C 
HETATM   10  C   UNL     1     -39.900 -49.981  11.498  1.00  0.00     0.042 C 
BRANCH   5  11
HETATM   11  C   UNL     1     -37.438 -50.668  11.570  1.00  0.00     0.169 C 
HETATM   12  O   UNL     1     -36.657 -51.559  11.835  1.00  0.00    -0.648 OA
BRANCH  11  13
HETATM   13  O   UNL     1     -37.347 -49.941  10.415  1.00  0.00    -0.775 OA
HETATM   14  H   UNL     1     -36.403 -49.714  10.245  1.00  0.00     0.167 HD
ENDBRANCH  11  13
ENDBRANCH   5  11
ENDBRANCH   3   5
BRANCH   1  15
HETATM   15  C   UNL     1     -39.863 -53.310  14.501  1.00  0.00     0.142 C 
BRANCH  15  16
HETATM   16  C   UNL     1     -41.244 -53.854  14.239  1.00  0.00    -0.034 A 
HETATM   17  C   UNL     1     -41.912 -54.604  15.215  1.00  0.00     0.011 A 
HETATM   18  C   UNL     1     -43.241 -54.984  15.020  1.00  0.00     0.025 A 
HETATM   19  C   UNL     1     -43.879 -54.611  13.845  1.00  0.00     0.005 A 
HETATM   20  C   UNL     1     -45.333 -54.905  13.622  1.00  0.00     0.068 C 
HETATM   21  N   UNL     1     -43.248 -53.910  12.873  1.00  0.00    -0.369 N 
HETATM   22  C   UNL     1     -41.964 -53.541  13.092  1.00  0.00     0.095 A 
ATOM     23  HN  UNL     1     -43.725 -53.669  12.004  1.00  0.00     0.165 HD
ENDBRANCH  15  16
ENDBRANCH   1  15
TORSDOF 5
ENDMDL
MODEL 9
REMARK VINA RESULT:      -5.7      1.642      2.509
REMARK  5 active torsions:
REMARK  status: ('A' for Active; 'I' for Inactive)
REMARK    1  A    between atoms: C_5  and  C_6 
REMARK    2  A    between atoms: C_6  and  C_7 
REMARK       I    between atoms: C_7  and  N_9 
REMARK    3  A    between atoms: N_9  and  C_10 
REMARK    4  A    between atoms: C_10  and  C_16 
REMARK    5  A    between atoms: C_16  and  O_18 
ROOT
HETATM    1  C   UNL     1     -43.276 -54.055  13.774  1.00  0.00     0.223 C 
HETATM    2  O   UNL     1     -44.248 -54.290  13.069  1.00  0.00    -0.273 OA
HETATM    3  N   UNL     1     -43.354 -53.626  15.073  1.00  0.00    -0.342 N 
HETATM    4  H   UNL     1     -42.478 -53.234  15.417  1.00  0.00     0.163 HD
ENDROOT
BRANCH   3   5
HETATM    5  C   UNL     1     -44.529 -53.107  15.836  1.00  0.00     0.118 C 
HETATM    6  C   UNL     1     -45.917 -53.752  15.603  1.00  0.00     0.042 C 
HETATM    7  C   UNL     1     -46.832 -53.114  14.557  1.00  0.00     0.003 C 
HETATM    8  C   UNL     1     -46.750 -51.595  14.491  1.00  0.00     0.000 C 
HETATM    9  C   UNL     1     -45.307 -51.114  14.473  1.00  0.00     0.003 C 
HETATM   10  C   UNL     1     -44.580 -51.577  15.732  1.00  0.00     0.042 C 
BRANCH   5  11
HETATM   11  C   UNL     1     -44.140 -53.578  17.263  1.00  0.00     0.169 C 
HETATM   12  O   UNL     1     -44.010 -52.867  18.238  1.00  0.00    -0.648 OA
BRANCH  11  13
HETATM   13  O   UNL     1     -44.045 -54.941  17.339  1.00  0.00    -0.775 OA
HETATM   14  H   UNL     1     -44.196 -55.228  18.270  1.00  0.00     0.167 HD
ENDBRANCH  11  13
ENDBRANCH   5  11
ENDBRANCH   3   5
BRANCH   1  15
HETATM   15  C   UNL     1     -41.838 -54.245  13.298  1.00  0.00     0.142 C 
BRANCH  15  16
HETATM   16  C   UNL     1     -41.096 -52.975  12.970  1.00  0.00    -0.034 A 
HETATM   17  C   UNL     1     -39.996 -52.573  13.738  1.00  0.00     0.011 A 
HETATM   18  C   UNL     1     -39.229 -51.475  13.345  1.00  0.00     0.025 A 
HETATM   19  C   UNL     1     -39.581 -50.791  12.190  1.00  0.00     0.005 A 
HETATM   20  C   UNL     1     -38.740 -49.666  11.665  1.00  0.00     0.068 C 
HETATM   21  N   UNL     1     -40.655 -51.141  11.444  1.00  0.00    -0.369 N 
HETATM   22  C   UNL     1     -41.375 -52.219  11.838  1.00  0.00     0.095 A 
ATOM     23  HN  UNL     1     -40.914 -50.610  10.612  1.00  0.00     0.165 HD
ENDBRANCH  15  16
ENDBRANCH   1  15
TORSDOF 5
ENDMDL
