MODEL 1
REMARK VINA RESULT:      -7.3      0.000      0.000
REMARK  6 active torsions:
REMARK  status: ('A' for Active; 'I' for Inactive)
REMARK    1  A    between atoms: N_1  and  C_9 
REMARK    2  A    between atoms: N_2  and  C_8 
REMARK    3  A    between atoms: C_7  and  C_12 
REMARK    4  A    between atoms: C_9  and  C_10 
REMARK       I    between atoms: C_10  and  N_11 
REMARK    5  A    between atoms: N_11  and  C_12 
REMARK    6  A    between atoms: C_15  and  O_23 
ROOT
HETATM    1  C   UNL     1     -41.558 -51.988  11.777  1.00  0.00     0.240 C 
ENDROOT
BRANCH   1   2
HETATM    2  N   UNL     1     -41.886 -52.698  13.002  1.00  0.00    -0.255 N 
HETATM    3  C   UNL     1     -43.236 -52.731  13.380  1.00  0.00     0.334 C 
HETATM    4  N   UNL     1     -43.490 -53.258  14.648  1.00  0.00    -0.279 N 
HETATM    5  O   UNL     1     -44.128 -52.303  12.647  1.00  0.00    -0.246 OA
HETATM    6  C   UNL     1     -42.523 -53.968  15.334  1.00  0.00     0.146 C 
HETATM    7  C   UNL     1     -41.297 -54.148  14.841  1.00  0.00     0.200 C 
HETATM    8  C   UNL     1     -40.911 -53.508  13.567  1.00  0.00     0.292 C 
HETATM    9  F   UNL     1     -40.370 -54.879  15.479  1.00  0.00    -0.199 F 
HETATM   10  O   UNL     1     -39.814 -53.741  13.056  1.00  0.00    -0.264 OA
BRANCH   4  11
HETATM   11  C   UNL     1     -44.771 -52.896  15.287  1.00  0.00     0.232 C 
HETATM   12  O   UNL     1     -45.844 -53.678  14.751  1.00  0.00    -0.366 OA
HETATM   13  C   UNL     1     -47.015 -52.870  14.636  1.00  0.00     0.170 C 
HETATM   14  C   UNL     1     -46.687 -51.476  15.114  1.00  0.00     0.031 C 
HETATM   15  C   UNL     1     -45.179 -51.436  15.173  1.00  0.00     0.056 C 
ENDBRANCH   4  11
ENDBRANCH   1   2
BRANCH   1  16
HETATM   16  C   UNL     1     -41.277 -50.510  12.080  1.00  0.00     0.236 C 
HETATM   17  N   UNL     1     -42.330 -49.670  11.774  1.00  0.00    -0.351 N 
HETATM   18  H   UNL     1     -43.236 -50.092  11.635  1.00  0.00     0.163 HD
HETATM   19  O   UNL     1     -40.210 -50.118  12.540  1.00  0.00    -0.272 OA
BRANCH  17  20
HETATM   20  C   UNL     1     -42.291 -48.223  12.023  1.00  0.00     0.116 C 
HETATM   21  C   UNL     1     -42.782 -47.928  13.441  1.00  0.00     0.037 C 
BRANCH  20  22
HETATM   22  C   UNL     1     -43.027 -47.471  10.917  1.00  0.00    -0.002 C 
HETATM   23  C   UNL     1     -42.503 -46.436  10.118  1.00  0.00     0.076 C 
HETATM   24  C   UNL     1     -43.300 -45.898   9.083  1.00  0.00     0.038 C 
HETATM   25  C   UNL     1     -44.554 -46.412   8.758  1.00  0.00     0.009 C 
HETATM   26  C   UNL     1     -45.072 -47.460   9.501  1.00  0.00    -0.061 C 
HETATM   27  C   UNL     1     -44.353 -47.906  10.618  1.00  0.00     0.018 C 
HETATM   28  C   UNL     1     -46.326 -48.153   9.059  1.00  0.00     0.048 C 
BRANCH  23  29
HETATM   29  O   UNL     1     -41.315 -45.771  10.151  1.00  0.00    -0.355 OA
HETATM   30  C   UNL     1     -40.934 -44.863  11.162  1.00  0.00     0.210 C 
ENDBRANCH  23  29
ENDBRANCH  20  22
ENDBRANCH  17  20
ENDBRANCH   1  16
TORSDOF 6
ENDMDL
MODEL 2
REMARK VINA RESULT:      -7.1      2.207      6.645
REMARK  6 active torsions:
REMARK  status: ('A' for Active; 'I' for Inactive)
REMARK    1  A    between atoms: N_1  and  C_9 
REMARK    2  A    between atoms: N_2  and  C_8 
REMARK    3  A    between atoms: C_7  and  C_12 
REMARK    4  A    between atoms: C_9  and  C_10 
REMARK       I    between atoms: C_10  and  N_11 
REMARK    5  A    between atoms: N_11  and  C_12 
REMARK    6  A    between atoms: C_15  and  O_23 
ROOT
HETATM    1  C   UNL     1     -40.939 -52.458  12.137  1.00  0.00     0.240 C 
ENDROOT
BRANCH   1   2
HETATM    2  N   UNL     1     -40.545 -51.061  12.095  1.00  0.00    -0.255 N 
HETATM    3  C   UNL     1     -41.569 -50.105  12.163  1.00  0.00     0.334 C 
HETATM    4  N   UNL     1     -41.173 -48.785  11.936  1.00  0.00    -0.279 N 
HETATM    5  O   UNL     1     -42.739 -50.418  12.388  1.00  0.00    -0.246 OA
HETATM    6  C   UNL     1     -39.839 -48.426  11.953  1.00  0.00     0.146 C 
HETATM    7  C   UNL     1     -38.869 -49.323  12.144  1.00  0.00     0.200 C 
HETATM    8  C   UNL     1     -39.201 -50.757  12.258  1.00  0.00     0.292 C 
HETATM    9  F   UNL     1     -37.575 -48.973  12.211  1.00  0.00    -0.199 F 
HETATM   10  O   UNL     1     -38.326 -51.583  12.526  1.00  0.00    -0.264 OA
BRANCH   4  11
HETATM   11  C   UNL     1     -42.218 -47.826  11.526  1.00  0.00     0.232 C 
HETATM   12  O   UNL     1     -42.653 -48.090  10.187  1.00  0.00    -0.366 OA
HETATM   13  C   UNL     1     -42.902 -46.857   9.513  1.00  0.00     0.170 C 
HETATM   14  C   UNL     1     -42.603 -45.721  10.461  1.00  0.00     0.031 C 
HETATM   15  C   UNL     1     -41.832 -46.358  11.592  1.00  0.00     0.056 C 
ENDBRANCH   4  11
ENDBRANCH   1   2
BRANCH   1  16
HETATM   16  C   UNL     1     -41.465 -52.818  13.534  1.00  0.00     0.236 C 
HETATM   17  N   UNL     1     -42.809 -53.132  13.559  1.00  0.00    -0.351 N 
HETATM   18  H   UNL     1     -43.253 -53.347  12.678  1.00  0.00     0.163 HD
HETATM   19  O   UNL     1     -40.752 -52.813  14.533  1.00  0.00    -0.272 OA
BRANCH  17  20
HETATM   20  C   UNL     1     -43.506 -53.547  14.783  1.00  0.00     0.116 C 
HETATM   21  C   UNL     1     -43.736 -55.059  14.763  1.00  0.00     0.037 C 
BRANCH  20  22
HETATM   22  C   UNL     1     -44.764 -52.707  14.991  1.00  0.00    -0.002 C 
HETATM   23  C   UNL     1     -45.669 -52.295  13.994  1.00  0.00     0.076 C 
HETATM   24  C   UNL     1     -46.829 -51.583  14.372  1.00  0.00     0.038 C 
HETATM   25  C   UNL     1     -47.165 -51.349  15.704  1.00  0.00     0.009 C 
HETATM   26  C   UNL     1     -46.312 -51.784  16.705  1.00  0.00    -0.061 C 
HETATM   27  C   UNL     1     -45.091 -52.364  16.338  1.00  0.00     0.018 C 
HETATM   28  C   UNL     1     -46.736 -51.715  18.142  1.00  0.00     0.048 C 
BRANCH  23  29
HETATM   29  O   UNL     1     -45.649 -52.418  12.637  1.00  0.00    -0.355 OA
HETATM   30  C   UNL     1     -46.671 -51.958  11.778  1.00  0.00     0.210 C 
ENDBRANCH  23  29
ENDBRANCH  20  22
ENDBRANCH  17  20
ENDBRANCH   1  16
TORSDOF 6
ENDMDL
MODEL 3
REMARK VINA RESULT:      -7.1      1.742      3.125
REMARK  6 active torsions:
REMARK  status: ('A' for Active; 'I' for Inactive)
REMARK    1  A    between atoms: N_1  and  C_9 
REMARK    2  A    between atoms: N_2  and  C_8 
REMARK    3  A    between atoms: C_7  and  C_12 
REMARK    4  A    between atoms: C_9  and  C_10 
REMARK       I    between atoms: C_10  and  N_11 
REMARK    5  A    between atoms: N_11  and  C_12 
REMARK    6  A    between atoms: C_15  and  O_23 
ROOT
HETATM    1  C   UNL     1     -39.996 -51.574  12.472  1.00  0.00     0.240 C 
ENDROOT
BRANCH   1   2
HETATM    2  N   UNL     1     -40.666 -52.608  13.241  1.00  0.00    -0.255 N 
HETATM    3  C   UNL     1     -42.046 -52.759  13.042  1.00  0.00     0.334 C 
HETATM    4  N   UNL     1     -42.687 -53.631  13.925  1.00  0.00    -0.279 N 
HETATM    5  O   UNL     1     -42.649 -52.146  12.161  1.00  0.00    -0.246 OA
HETATM    6  C   UNL     1     -41.965 -54.502  14.720  1.00  0.00     0.146 C 
HETATM    7  C   UNL     1     -40.630 -54.523  14.713  1.00  0.00     0.200 C 
HETATM    8  C   UNL     1     -39.881 -53.539  13.905  1.00  0.00     0.292 C 
HETATM    9  F   UNL     1     -39.925 -55.399  15.444  1.00  0.00    -0.199 F 
HETATM   10  O   UNL     1     -38.653 -53.607  13.818  1.00  0.00    -0.264 OA
BRANCH   4  11
HETATM   11  C   UNL     1     -44.146 -53.479  14.088  1.00  0.00     0.232 C 
HETATM   12  O   UNL     1     -44.482 -53.243  15.460  1.00  0.00    -0.366 OA
HETATM   13  C   UNL     1     -45.695 -53.923  15.780  1.00  0.00     0.170 C 
HETATM   14  C   UNL     1     -46.175 -54.655  14.550  1.00  0.00     0.031 C 
HETATM   15  C   UNL     1     -44.991 -54.649  13.613  1.00  0.00     0.056 C 
ENDBRANCH   4  11
ENDBRANCH   1   2
BRANCH   1  16
HETATM   16  C   UNL     1     -40.000 -50.250  13.248  1.00  0.00     0.236 C 
HETATM   17  N   UNL     1     -40.947 -49.348  12.804  1.00  0.00    -0.351 N 
HETATM   18  H   UNL     1     -41.690 -49.703  12.221  1.00  0.00     0.163 HD
HETATM   19  O   UNL     1     -39.223 -50.017  14.169  1.00  0.00    -0.272 OA
BRANCH  17  20
HETATM   20  C   UNL     1     -41.152 -48.036  13.432  1.00  0.00     0.116 C 
HETATM   21  C   UNL     1     -42.574 -47.944  13.988  1.00  0.00     0.037 C 
BRANCH  20  22
HETATM   22  C   UNL     1     -40.763 -46.917  12.469  1.00  0.00    -0.002 C 
HETATM   23  C   UNL     1     -41.038 -46.868  11.089  1.00  0.00     0.076 C 
HETATM   24  C   UNL     1     -40.672 -45.716  10.357  1.00  0.00     0.038 C 
HETATM   25  C   UNL     1     -40.132 -44.583  10.962  1.00  0.00     0.009 C 
HETATM   26  C   UNL     1     -39.894 -44.591  12.327  1.00  0.00    -0.061 C 
HETATM   27  C   UNL     1     -40.119 -45.777  13.038  1.00  0.00     0.018 C 
HETATM   28  C   UNL     1     -39.493 -43.329  13.032  1.00  0.00     0.048 C 
BRANCH  23  29
HETATM   29  O   UNL     1     -41.595 -47.774  10.237  1.00  0.00    -0.355 OA
HETATM   30  C   UNL     1     -42.855 -47.620   9.619  1.00  0.00     0.210 C 
ENDBRANCH  23  29
ENDBRANCH  20  22
ENDBRANCH  17  20
ENDBRANCH   1  16
TORSDOF 6
ENDMDL
MODEL 4
REMARK VINA RESULT:      -7.0      3.198      4.541
REMARK  6 active torsions:
REMARK  status: ('A' for Active; 'I' for Inactive)
REMARK    1  A    between atoms: N_1  and  C_9 
REMARK    2  A    between atoms: N_2  and  C_8 
REMARK    3  A    between atoms: C_7  and  C_12 
REMARK    4  A    between atoms: C_9  and  C_10 
REMARK       I    between atoms: C_10  and  N_11 
REMARK    5  A    between atoms: N_11  and  C_12 
REMARK    6  A    between atoms: C_15  and  O_23 
ROOT
HETATM    1  C   UNL     1     -41.360 -52.482  11.794  1.00  0.00     0.240 C 
ENDROOT
BRANCH   1   2
HETATM    2  N   UNL     1     -41.697 -52.865  13.155  1.00  0.00    -0.255 N 
HETATM    3  C   UNL     1     -43.057 -52.896  13.492  1.00  0.00     0.334 C 
HETATM    4  N   UNL     1     -43.334 -53.087  14.848  1.00  0.00    -0.279 N 
HETATM    5  O   UNL     1     -43.942 -52.745  12.649  1.00  0.00    -0.246 OA
HETATM    6  C   UNL     1     -42.355 -53.518  15.723  1.00  0.00     0.146 C 
HETATM    7  C   UNL     1     -41.099 -53.731  15.328  1.00  0.00     0.200 C 
HETATM    8  C   UNL     1     -40.699 -53.423  13.940  1.00  0.00     0.292 C 
HETATM    9  F   UNL     1     -40.157 -54.197  16.162  1.00  0.00    -0.199 F 
HETATM   10  O   UNL     1     -39.567 -53.701  13.539  1.00  0.00    -0.264 OA
BRANCH   4  11
HETATM   11  C   UNL     1     -44.663 -52.664  15.333  1.00  0.00     0.232 C 
HETATM   12  O   UNL     1     -45.666 -53.614  14.956  1.00  0.00    -0.366 OA
HETATM   13  C   UNL     1     -46.869 -52.928  14.609  1.00  0.00     0.170 C 
HETATM   14  C   UNL     1     -46.636 -51.444  14.756  1.00  0.00     0.031 C 
HETATM   15  C   UNL     1     -45.137 -51.299  14.862  1.00  0.00     0.056 C 
ENDBRANCH   4  11
ENDBRANCH   1   2
BRANCH   1  16
HETATM   16  C   UNL     1     -40.839 -51.039  11.763  1.00  0.00     0.236 C 
HETATM   17  N   UNL     1     -39.462 -50.944  11.793  1.00  0.00    -0.351 N 
HETATM   18  H   UNL     1     -38.933 -51.777  11.578  1.00  0.00     0.163 HD
HETATM   19  O   UNL     1     -41.584 -50.065  11.726  1.00  0.00    -0.272 OA
BRANCH  17  20
HETATM   20  C   UNL     1     -38.751 -49.661  11.729  1.00  0.00     0.116 C 
HETATM   21  C   UNL     1     -37.350 -49.871  11.153  1.00  0.00     0.037 C 
BRANCH  20  22
HETATM   22  C   UNL     1     -38.791 -48.960  13.085  1.00  0.00    -0.002 C 
HETATM   23  C   UNL     1     -38.480 -49.534  14.332  1.00  0.00     0.076 C 
HETATM   24  C   UNL     1     -38.494 -48.718  15.486  1.00  0.00     0.038 C 
HETATM   25  C   UNL     1     -38.716 -47.344  15.430  1.00  0.00     0.009 C 
HETATM   26  C   UNL     1     -38.981 -46.748  14.207  1.00  0.00    -0.061 C 
HETATM   27  C   UNL     1     -39.110 -47.569  13.078  1.00  0.00     0.018 C 
HETATM   28  C   UNL     1     -39.036 -45.254  14.090  1.00  0.00     0.048 C 
BRANCH  23  29
HETATM   29  O   UNL     1     -38.173 -50.810  14.698  1.00  0.00    -0.355 OA
HETATM   30  C   UNL     1     -38.277 -51.311  16.014  1.00  0.00     0.210 C 
ENDBRANCH  23  29
ENDBRANCH  20  22
ENDBRANCH  17  20
ENDBRANCH   1  16
TORSDOF 6
ENDMDL
MODEL 5
REMARK VINA RESULT:      -7.0      2.535      7.134
REMARK  6 active torsions:
REMARK  status: ('A' for Active; 'I' for Inactive)
REMARK    1  A    between atoms: N_1  and  C_9 
REMARK    2  A    between atoms: N_2  and  C_8 
REMARK    3  A    between atoms: C_7  and  C_12 
REMARK    4  A    between atoms: C_9  and  C_10 
REMARK       I    between atoms: C_10  and  N_11 
REMARK    5  A    between atoms: N_11  and  C_12 
REMARK    6  A    between atoms: C_15  and  O_23 
ROOT
HETATM    1  C   UNL     1     -39.348 -51.922  14.266  1.00  0.00     0.240 C 
ENDROOT
BRANCH   1   2
HETATM    2  N   UNL     1     -39.139 -50.878  13.276  1.00  0.00    -0.255 N 
HETATM    3  C   UNL     1     -39.998 -49.771  13.324  1.00  0.00     0.334 C 
HETATM    4  N   UNL     1     -39.888 -48.881  12.253  1.00  0.00    -0.279 N 
HETATM    5  O   UNL     1     -40.805 -49.611  14.239  1.00  0.00    -0.246 OA
HETATM    6  C   UNL     1     -38.810 -48.931  11.389  1.00  0.00     0.146 C 
HETATM    7  C   UNL     1     -37.851 -49.850  11.511  1.00  0.00     0.200 C 
HETATM    8  C   UNL     1     -37.966 -50.907  12.536  1.00  0.00     0.292 C 
HETATM    9  F   UNL     1     -36.777 -49.873  10.707  1.00  0.00    -0.199 F 
HETATM   10  O   UNL     1     -37.044 -51.705  12.719  1.00  0.00    -0.264 OA
BRANCH   4  11
HETATM   11  C   UNL     1     -41.038 -47.994  11.990  1.00  0.00     0.232 C 
HETATM   12  O   UNL     1     -42.066 -48.692  11.277  1.00  0.00    -0.366 OA
HETATM   13  C   UNL     1     -42.667 -47.816  10.324  1.00  0.00     0.170 C 
HETATM   14  C   UNL     1     -41.987 -46.471  10.410  1.00  0.00     0.031 C 
HETATM   15  C   UNL     1     -40.732 -46.726  11.209  1.00  0.00     0.056 C 
ENDBRANCH   4  11
ENDBRANCH   1   2
BRANCH   1  16
HETATM   16  C   UNL     1     -40.343 -52.962  13.735  1.00  0.00     0.236 C 
HETATM   17  N   UNL     1     -41.658 -52.691  14.060  1.00  0.00    -0.351 N 
HETATM   18  H   UNL     1     -41.877 -51.755  14.369  1.00  0.00     0.163 HD
HETATM   19  O   UNL     1     -39.994 -53.948  13.093  1.00  0.00    -0.272 OA
BRANCH  17  20
HETATM   20  C   UNL     1     -42.776 -53.533  13.617  1.00  0.00     0.116 C 
HETATM   21  C   UNL     1     -43.229 -53.103  12.221  1.00  0.00     0.037 C 
BRANCH  20  22
HETATM   22  C   UNL     1     -43.878 -53.556  14.674  1.00  0.00    -0.002 C 
HETATM   23  C   UNL     1     -43.871 -54.291  15.874  1.00  0.00     0.076 C 
HETATM   24  C   UNL     1     -44.944 -54.136  16.780  1.00  0.00     0.038 C 
HETATM   25  C   UNL     1     -45.970 -53.215  16.577  1.00  0.00     0.009 C 
HETATM   26  C   UNL     1     -45.975 -52.448  15.424  1.00  0.00    -0.061 C 
HETATM   27  C   UNL     1     -44.995 -52.694  14.453  1.00  0.00     0.018 C 
HETATM   28  C   UNL     1     -46.955 -51.323  15.268  1.00  0.00     0.048 C 
BRANCH  23  29
HETATM   29  O   UNL     1     -43.000 -55.211  16.375  1.00  0.00    -0.355 OA
HETATM   30  C   UNL     1     -41.777 -54.894  17.006  1.00  0.00     0.210 C 
ENDBRANCH  23  29
ENDBRANCH  20  22
ENDBRANCH  17  20
ENDBRANCH   1  16
TORSDOF 6
ENDMDL
MODEL 6
REMARK VINA RESULT:      -6.9      2.593      6.420
REMARK  6 active torsions:
REMARK  status: ('A' for Active; 'I' for Inactive)
REMARK    1  A    between atoms: N_1  and  C_9 
REMARK    2  A    between atoms: N_2  and  C_8 
REMARK    3  A    between atoms: C_7  and  C_12 
REMARK    4  A    between atoms: C_9  and  C_10 
REMARK       I    between atoms: C_10  and  N_11 
REMARK    5  A    between atoms: N_11  and  C_12 
REMARK    6  A    between atoms: C_15  and  O_23 
ROOT
HETATM    1  C   UNL     1     -39.594 -51.238  14.840  1.00  0.00     0.240 C 
ENDROOT
BRANCH   1   2
HETATM    2  N   UNL     1     -39.364 -50.367  13.700  1.00  0.00    -0.255 N 
HETATM    3  C   UNL     1     -40.230 -49.275  13.545  1.00  0.00     0.334 C 
HETATM    4  N   UNL     1     -40.097 -48.570  12.347  1.00  0.00    -0.279 N 
HETATM    5  O   UNL     1     -41.063 -48.977  14.402  1.00  0.00    -0.246 OA
HETATM    6  C   UNL     1     -38.995 -48.749  11.531  1.00  0.00     0.146 C 
HETATM    7  C   UNL     1     -38.034 -49.627  11.825  1.00  0.00     0.200 C 
HETATM    8  C   UNL     1     -38.171 -50.504  13.006  1.00  0.00     0.292 C 
HETATM    9  F   UNL     1     -36.939 -49.769  11.063  1.00  0.00    -0.199 F 
HETATM   10  O   UNL     1     -37.250 -51.253  13.338  1.00  0.00    -0.264 OA
BRANCH   4  11
HETATM   11  C   UNL     1     -41.244 -47.748  11.914  1.00  0.00     0.232 C 
HETATM   12  O   UNL     1     -42.092 -48.487  11.027  1.00  0.00    -0.366 OA
HETATM   13  C   UNL     1     -42.585 -47.622  10.005  1.00  0.00     0.170 C 
HETATM   14  C   UNL     1     -42.018 -46.241  10.228  1.00  0.00     0.031 C 
HETATM   15  C   UNL     1     -40.898 -46.441  11.220  1.00  0.00     0.056 C 
ENDBRANCH   4  11
ENDBRANCH   1   2
BRANCH   1  16
HETATM   16  C   UNL     1     -40.489 -52.417  14.434  1.00  0.00     0.236 C 
HETATM   17  N   UNL     1     -41.786 -52.052  14.131  1.00  0.00    -0.351 N 
HETATM   18  H   UNL     1     -41.964 -51.075  13.953  1.00  0.00     0.163 HD
HETATM   19  O   UNL     1     -40.085 -53.575  14.396  1.00  0.00    -0.272 OA
BRANCH  17  20
HETATM   20  C   UNL     1     -42.797 -53.015  13.679  1.00  0.00     0.116 C 
HETATM   21  C   UNL     1     -42.537 -53.394  12.220  1.00  0.00     0.037 C 
BRANCH  20  22
HETATM   22  C   UNL     1     -44.202 -52.490  13.967  1.00  0.00    -0.002 C 
HETATM   23  C   UNL     1     -44.655 -51.939  15.181  1.00  0.00     0.076 C 
HETATM   24  C   UNL     1     -45.971 -51.428  15.253  1.00  0.00     0.038 C 
HETATM   25  C   UNL     1     -46.812 -51.362  14.144  1.00  0.00     0.009 C 
HETATM   26  C   UNL     1     -46.371 -51.858  12.927  1.00  0.00    -0.061 C 
HETATM   27  C   UNL     1     -45.124 -52.495  12.878  1.00  0.00     0.018 C 
HETATM   28  C   UNL     1     -47.176 -51.631  11.682  1.00  0.00     0.048 C 
BRANCH  23  29
HETATM   29  O   UNL     1     -44.064 -51.809  16.401  1.00  0.00    -0.355 OA
HETATM   30  C   UNL     1     -44.505 -52.457  17.576  1.00  0.00     0.210 C 
ENDBRANCH  23  29
ENDBRANCH  20  22
ENDBRANCH  17  20
ENDBRANCH   1  16
TORSDOF 6
ENDMDL
MODEL 7
REMARK VINA RESULT:      -6.8      2.780      4.598
REMARK  6 active torsions:
REMARK  status: ('A' for Active; 'I' for Inactive)
REMARK    1  A    between atoms: N_1  and  C_9 
REMARK    2  A    between atoms: N_2  and  C_8 
REMARK    3  A    between atoms: C_7  and  C_12 
REMARK    4  A    between atoms: C_9  and  C_10 
REMARK       I    between atoms: C_10  and  N_11 
REMARK    5  A    between atoms: N_11  and  C_12 
REMARK    6  A    between atoms: C_15  and  O_23 
ROOT
HETATM    1  C   UNL     1     -41.308 -52.444  11.831  1.00  0.00     0.240 C 
ENDROOT
BRANCH   1   2
HETATM    2  N   UNL     1     -41.656 -52.792  13.198  1.00  0.00    -0.255 N 
HETATM    3  C   UNL     1     -43.020 -52.830  13.520  1.00  0.00     0.334 C 
HETATM    4  N   UNL     1     -43.311 -52.987  14.877  1.00  0.00    -0.279 N 
HETATM    5  O   UNL     1     -43.896 -52.712  12.662  1.00  0.00    -0.246 OA
HETATM    6  C   UNL     1     -42.338 -53.382  15.775  1.00  0.00     0.146 C 
HETATM    7  C   UNL     1     -41.075 -53.591  15.401  1.00  0.00     0.200 C 
HETATM    8  C   UNL     1     -40.661 -53.317  14.010  1.00  0.00     0.292 C 
HETATM    9  F   UNL     1     -40.138 -54.023  16.259  1.00  0.00    -0.199 F 
HETATM   10  O   UNL     1     -39.521 -53.593  13.630  1.00  0.00    -0.264 OA
BRANCH   4  11
HETATM   11  C   UNL     1     -44.650 -52.567  15.334  1.00  0.00     0.232 C 
HETATM   12  O   UNL     1     -45.633 -53.555  15.002  1.00  0.00    -0.366 OA
HETATM   13  C   UNL     1     -46.847 -52.912  14.616  1.00  0.00     0.170 C 
HETATM   14  C   UNL     1     -46.644 -51.417  14.688  1.00  0.00     0.031 C 
HETATM   15  C   UNL     1     -45.149 -51.237  14.792  1.00  0.00     0.056 C 
ENDBRANCH   4  11
ENDBRANCH   1   2
BRANCH   1  16
HETATM   16  C   UNL     1     -40.758 -51.012  11.773  1.00  0.00     0.236 C 
HETATM   17  N   UNL     1     -39.382 -50.940  11.860  1.00  0.00    -0.351 N 
HETATM   18  H   UNL     1     -38.861 -51.789  11.697  1.00  0.00     0.163 HD
HETATM   19  O   UNL     1     -41.482 -50.026  11.671  1.00  0.00    -0.272 OA
BRANCH  17  20
HETATM   20  C   UNL     1     -38.645 -49.672  11.783  1.00  0.00     0.116 C 
HETATM   21  C   UNL     1     -37.342 -49.876  11.008  1.00  0.00     0.037 C 
BRANCH  20  22
HETATM   22  C   UNL     1     -38.479 -49.066  13.174  1.00  0.00    -0.002 C 
HETATM   23  C   UNL     1     -39.303 -48.088  13.764  1.00  0.00     0.076 C 
HETATM   24  C   UNL     1     -39.051 -47.691  15.096  1.00  0.00     0.038 C 
HETATM   25  C   UNL     1     -38.074 -48.293  15.886  1.00  0.00     0.009 C 
HETATM   26  C   UNL     1     -37.280 -49.289  15.342  1.00  0.00    -0.061 C 
HETATM   27  C   UNL     1     -37.426 -49.591  13.981  1.00  0.00     0.018 C 
HETATM   28  C   UNL     1     -36.355 -50.081  16.217  1.00  0.00     0.048 C 
BRANCH  23  29
HETATM   29  O   UNL     1     -40.352 -47.366  13.279  1.00  0.00    -0.355 OA
HETATM   30  C   UNL     1     -40.236 -46.318  12.340  1.00  0.00     0.210 C 
ENDBRANCH  23  29
ENDBRANCH  20  22
ENDBRANCH  17  20
ENDBRANCH   1  16
TORSDOF 6
ENDMDL
MODEL 8
REMARK VINA RESULT:      -6.7      2.724      4.330
REMARK  6 active torsions:
REMARK  status: ('A' for Active; 'I' for Inactive)
REMARK    1  A    between atoms: N_1  and  C_9 
REMARK    2  A    between atoms: N_2  and  C_8 
REMARK    3  A    between atoms: C_7  and  C_12 
REMARK    4  A    between atoms: C_9  and  C_10 
REMARK       I    between atoms: C_10  and  N_11 
REMARK    5  A    between atoms: N_11  and  C_12 
REMARK    6  A    between atoms: C_15  and  O_23 
ROOT
HETATM    1  C   UNL     1     -41.602 -51.785  12.022  1.00  0.00     0.240 C 
ENDROOT
BRANCH   1   2
HETATM    2  N   UNL     1     -42.421 -52.405  13.050  1.00  0.00    -0.255 N 
HETATM    3  C   UNL     1     -43.586 -51.727  13.435  1.00  0.00     0.334 C 
HETATM    4  N   UNL     1     -44.247 -52.255  14.547  1.00  0.00    -0.279 N 
HETATM    5  O   UNL     1     -43.982 -50.722  12.843  1.00  0.00    -0.246 OA
HETATM    6  C   UNL     1     -43.946 -53.516  15.025  1.00  0.00     0.146 C 
HETATM    7  C   UNL     1     -42.988 -54.268  14.479  1.00  0.00     0.200 C 
HETATM    8  C   UNL     1     -42.155 -53.725  13.386  1.00  0.00     0.292 C 
HETATM    9  F   UNL     1     -42.725 -55.512  14.906  1.00  0.00    -0.199 F 
HETATM   10  O   UNL     1     -41.331 -54.440  12.813  1.00  0.00    -0.264 OA
BRANCH   4  11
HETATM   11  C   UNL     1     -45.164 -51.358  15.278  1.00  0.00     0.232 C 
HETATM   12  O   UNL     1     -44.987 -51.496  16.693  1.00  0.00    -0.366 OA
HETATM   13  C   UNL     1     -46.254 -51.405  17.345  1.00  0.00     0.170 C 
HETATM   14  C   UNL     1     -47.321 -51.208  16.296  1.00  0.00     0.031 C 
HETATM   15  C   UNL     1     -46.644 -51.546  14.989  1.00  0.00     0.056 C 
ENDBRANCH   4  11
ENDBRANCH   1   2
BRANCH   1  16
HETATM   16  C   UNL     1     -40.334 -51.186  12.645  1.00  0.00     0.236 C 
HETATM   17  N   UNL     1     -39.412 -50.747  11.716  1.00  0.00    -0.351 N 
HETATM   18  H   UNL     1     -39.733 -50.617  10.768  1.00  0.00     0.163 HD
HETATM   19  O   UNL     1     -40.158 -51.119  13.858  1.00  0.00    -0.272 OA
BRANCH  17  20
HETATM   20  C   UNL     1     -38.147 -50.103  12.094  1.00  0.00     0.116 C 
HETATM   21  C   UNL     1     -37.271 -51.093  12.863  1.00  0.00     0.037 C 
BRANCH  20  22
HETATM   22  C   UNL     1     -38.414 -48.784  12.815  1.00  0.00    -0.002 C 
HETATM   23  C   UNL     1     -39.330 -47.788  12.424  1.00  0.00     0.076 C 
HETATM   24  C   UNL     1     -39.508 -46.658  13.252  1.00  0.00     0.038 C 
HETATM   25  C   UNL     1     -38.881 -46.527  14.489  1.00  0.00     0.009 C 
HETATM   26  C   UNL     1     -38.008 -47.515  14.915  1.00  0.00    -0.061 C 
HETATM   27  C   UNL     1     -37.715 -48.570  14.040  1.00  0.00     0.018 C 
HETATM   28  C   UNL     1     -37.468 -47.495  16.314  1.00  0.00     0.048 C 
BRANCH  23  29
HETATM   29  O   UNL     1     -40.120 -47.657  11.322  1.00  0.00    -0.355 OA
HETATM   30  C   UNL     1     -41.468 -47.237  11.349  1.00  0.00     0.210 C 
ENDBRANCH  23  29
ENDBRANCH  20  22
ENDBRANCH  17  20
ENDBRANCH   1  16
TORSDOF 6
ENDMDL
MODEL 9
REMARK VINA RESULT:      -6.5      2.299      3.501
REMARK  6 active torsions:
REMARK  status: ('A' for Active; 'I' for Inactive)
REMARK    1  A    between atoms: N_1  and  C_9 
REMARK    2  A    between atoms: N_2  and  C_8 
REMARK    3  A    between atoms: C_7  and  C_12 
REMARK    4  A    between atoms: C_9  and  C_10 
REMARK       I    between atoms: C_10  and  N_11 
REMARK    5  A    between atoms: N_11  and  C_12 
REMARK    6  A    between atoms: C_15  and  O_23 
ROOT
HETATM    1  C   UNL     1     -39.510 -51.004  15.449  1.00  0.00     0.240 C 
ENDROOT
BRANCH   1   2
HETATM    2  N   UNL     1     -40.569 -51.682  14.720  1.00  0.00    -0.255 N 
HETATM    3  C   UNL     1     -41.817 -51.045  14.668  1.00  0.00     0.334 C 
HETATM    4  N   UNL     1     -42.854 -51.805  14.121  1.00  0.00    -0.279 N 
HETATM    5  O   UNL     1     -41.985 -49.903  15.096  1.00  0.00    -0.246 OA
HETATM    6  C   UNL     1     -42.595 -52.962  13.412  1.00  0.00     0.146 C 
HETATM    7  C   UNL     1     -41.356 -53.430  13.251  1.00  0.00     0.200 C 
HETATM    8  C   UNL     1     -40.220 -52.755  13.913  1.00  0.00     0.292 C 
HETATM    9  F   UNL     1     -41.093 -54.525  12.522  1.00  0.00    -0.199 F 
HETATM   10  O   UNL     1     -39.063 -53.122  13.698  1.00  0.00    -0.264 OA
BRANCH   4  11
HETATM   11  C   UNL     1     -44.235 -51.408  14.461  1.00  0.00     0.232 C 
HETATM   12  O   UNL     1     -44.846 -52.381  15.316  1.00  0.00    -0.366 OA
HETATM   13  C   UNL     1     -46.221 -52.532  14.964  1.00  0.00     0.170 C 
HETATM   14  C   UNL     1     -46.524 -51.613  13.804  1.00  0.00     0.031 C 
HETATM   15  C   UNL     1     -45.171 -51.193  13.283  1.00  0.00     0.056 C 
ENDBRANCH   4  11
ENDBRANCH   1   2
BRANCH   1  16
HETATM   16  C   UNL     1     -38.740 -50.063  14.512  1.00  0.00     0.236 C 
HETATM   17  N   UNL     1     -39.361 -48.846  14.313  1.00  0.00    -0.351 N 
HETATM   18  H   UNL     1     -40.087 -48.582  14.963  1.00  0.00     0.163 HD
HETATM   19  O   UNL     1     -37.678 -50.375  13.983  1.00  0.00    -0.272 OA
BRANCH  17  20
HETATM   20  C   UNL     1     -38.778 -47.781  13.487  1.00  0.00     0.116 C 
HETATM   21  C   UNL     1     -38.210 -46.681  14.385  1.00  0.00     0.037 C 
BRANCH  20  22
HETATM   22  C   UNL     1     -39.784 -47.304  12.442  1.00  0.00    -0.002 C 
HETATM   23  C   UNL     1     -40.796 -48.078  11.842  1.00  0.00     0.076 C 
HETATM   24  C   UNL     1     -41.693 -47.456  10.946  1.00  0.00     0.038 C 
HETATM   25  C   UNL     1     -41.678 -46.085  10.698  1.00  0.00     0.009 C 
HETATM   26  C   UNL     1     -40.718 -45.296  11.312  1.00  0.00    -0.061 C 
HETATM   27  C   UNL     1     -39.736 -45.922  12.090  1.00  0.00     0.018 C 
HETATM   28  C   UNL     1     -40.793 -43.801  11.214  1.00  0.00     0.048 C 
BRANCH  23  29
HETATM   29  O   UNL     1     -41.100 -49.403  11.923  1.00  0.00    -0.355 OA
HETATM   30  C   UNL     1     -40.435 -50.422  11.206  1.00  0.00     0.210 C 
ENDBRANCH  23  29
ENDBRANCH  20  22
ENDBRANCH  17  20
ENDBRANCH   1  16
TORSDOF 6
ENDMDL
