MODEL 1
REMARK VINA RESULT:      -5.7      0.000      0.000
REMARK  7 active torsions:
REMARK  status: ('A' for Active; 'I' for Inactive)
REMARK    1  A    between atoms: C_2  and  C_3 
REMARK    2  A    between atoms: C_3  and  S_4 
REMARK    3  A    between atoms: S_4  and  N_7 
REMARK    4  A    between atoms: N_7  and  C_8 
REMARK    5  A    between atoms: C_8  and  C_9 
REMARK    6  A    between atoms: C_9  and  O_10 
REMARK    7  A    between atoms: C_9  and  C_11 
ROOT
HETATM    1  C   UNL     1     -40.798 -52.518  12.508  1.00  0.00     0.186 C 
ENDROOT
BRANCH   1   2
HETATM    2  C   UNL     1     -42.180 -51.876  12.290  1.00  0.00     0.170 C 
BRANCH   2   3
HETATM    3  N   UNL     1     -43.233 -52.874  11.971  1.00  0.00    -0.317 N 
HETATM    4  H   UNL     1     -43.633 -52.815  11.038  1.00  0.00     0.172 HD
BRANCH   3   5
HETATM    5  S   UNL     1     -44.360 -53.187  13.192  1.00  0.00     0.226 S 
HETATM    6  O   UNL     1     -43.646 -53.638  14.368  1.00  0.00    -0.206 OA
HETATM    7  O   UNL     1     -45.426 -53.954  12.594  1.00  0.00    -0.206 OA
BRANCH   5   8
HETATM    8  C   UNL     1     -44.981 -51.537  13.502  1.00  0.00     0.163 C 
BRANCH   8   9
HETATM    9  C   UNL     1     -46.498 -51.540  13.628  1.00  0.00     0.012 C 
HETATM   10  C   UNL     1     -46.939 -51.433  15.077  1.00  0.00     0.006 C 
ENDBRANCH   8   9
ENDBRANCH   5   8
ENDBRANCH   3   5
ENDBRANCH   2   3
ENDBRANCH   1   2
BRANCH   1  11
HETATM   11  O   UNL     1     -40.547 -53.433  11.429  1.00  0.00    -0.388 OA
HETATM   12  H   UNL     1     -41.322 -54.035  11.431  1.00  0.00     0.210 HD
ENDBRANCH   1  11
BRANCH   1  13
HETATM   13  C   UNL     1     -39.684 -51.489  12.563  1.00  0.00     0.039 A 
HETATM   14  C   UNL     1     -38.738 -51.526  13.587  1.00  0.00     0.028 A 
HETATM   15  C   UNL     1     -37.747 -50.553  13.619  1.00  0.00     0.003 A 
HETATM   16  C   UNL     1     -37.723 -49.574  12.633  1.00  0.00     0.017 A 
HETATM   17  C   UNL     1     -38.689 -49.616  11.643  1.00  0.00     0.088 A 
HETATM   18  N   UNL     1     -39.662 -50.553  11.576  1.00  0.00    -0.367 N 
ATOM     19  HN  UNL     1     -40.347 -50.557  10.820  1.00  0.00     0.165 HD
ENDBRANCH   1  13
TORSDOF 7
ENDMDL
MODEL 2
REMARK VINA RESULT:      -5.5      2.882      6.275
REMARK  7 active torsions:
REMARK  status: ('A' for Active; 'I' for Inactive)
REMARK    1  A    between atoms: C_2  and  C_3 
REMARK    2  A    between atoms: C_3  and  S_4 
REMARK    3  A    between atoms: S_4  and  N_7 
REMARK    4  A    between atoms: N_7  and  C_8 
REMARK    5  A    between atoms: C_8  and  C_9 
REMARK    6  A    between atoms: C_9  and  O_10 
REMARK    7  A    between atoms: C_9  and  C_11 
ROOT
HETATM    1  C   UNL     1     -41.424 -52.423  11.757  1.00  0.00     0.186 C 
ENDROOT
BRANCH   1   2
HETATM    2  C   UNL     1     -40.748 -51.293  12.555  1.00  0.00     0.170 C 
BRANCH   2   3
HETATM    3  N   UNL     1     -39.371 -51.000  12.083  1.00  0.00    -0.317 N 
HETATM    4  H   UNL     1     -39.200 -51.154  11.092  1.00  0.00     0.172 HD
BRANCH   3   5
HETATM    5  S   UNL     1     -38.112 -51.507  13.092  1.00  0.00     0.226 S 
HETATM    6  O   UNL     1     -36.880 -51.476  12.334  1.00  0.00    -0.206 OA
HETATM    7  O   UNL     1     -38.571 -52.693  13.774  1.00  0.00    -0.206 OA
BRANCH   5   8
HETATM    8  C   UNL     1     -38.082 -50.169  14.282  1.00  0.00     0.163 C 
BRANCH   8   9
HETATM    9  C   UNL     1     -37.866 -48.831  13.592  1.00  0.00     0.012 C 
HETATM   10  C   UNL     1     -37.209 -47.823  14.520  1.00  0.00     0.006 C 
ENDBRANCH   8   9
ENDBRANCH   5   8
ENDBRANCH   3   5
ENDBRANCH   2   3
ENDBRANCH   1   2
BRANCH   1  11
HETATM   11  O   UNL     1     -40.411 -53.355  11.343  1.00  0.00    -0.388 OA
HETATM   12  H   UNL     1     -39.579 -52.836  11.354  1.00  0.00     0.210 HD
ENDBRANCH   1  11
BRANCH   1  13
HETATM   13  C   UNL     1     -42.478 -53.154  12.566  1.00  0.00     0.039 A 
HETATM   14  C   UNL     1     -42.124 -53.854  13.718  1.00  0.00     0.028 A 
HETATM   15  C   UNL     1     -43.112 -54.533  14.421  1.00  0.00     0.003 A 
HETATM   16  C   UNL     1     -44.423 -54.494  13.960  1.00  0.00     0.017 A 
HETATM   17  C   UNL     1     -44.694 -53.765  12.815  1.00  0.00     0.088 A 
HETATM   18  N   UNL     1     -43.759 -53.085  12.112  1.00  0.00    -0.367 N 
ATOM     19  HN  UNL     1     -44.004 -52.546  11.281  1.00  0.00     0.165 HD
ENDBRANCH   1  13
TORSDOF 7
ENDMDL
MODEL 3
REMARK VINA RESULT:      -5.5      2.847      3.491
REMARK  7 active torsions:
REMARK  status: ('A' for Active; 'I' for Inactive)
REMARK    1  A    between atoms: C_2  and  C_3 
REMARK    2  A    between atoms: C_3  and  S_4 
REMARK    3  A    between atoms: S_4  and  N_7 
REMARK    4  A    between atoms: N_7  and  C_8 
REMARK    5  A    between atoms: C_8  and  C_9 
REMARK    6  A    between atoms: C_9  and  O_10 
REMARK    7  A    between atoms: C_9  and  C_11 
ROOT
HETATM    1  C   UNL     1     -41.509 -53.889  12.635  1.00  0.00     0.186 C 
ENDROOT
BRANCH   1   2
HETATM    2  C   UNL     1     -42.611 -52.846  12.901  1.00  0.00     0.170 C 
BRANCH   2   3
HETATM    3  N   UNL     1     -43.758 -52.973  11.967  1.00  0.00    -0.317 N 
HETATM    4  H   UNL     1     -43.766 -52.326  11.182  1.00  0.00     0.172 HD
BRANCH   3   5
HETATM    5  S   UNL     1     -45.273 -53.222  12.675  1.00  0.00     0.226 S 
HETATM    6  O   UNL     1     -45.339 -54.590  13.142  1.00  0.00    -0.206 OA
HETATM    7  O   UNL     1     -46.255 -52.663  11.777  1.00  0.00    -0.206 OA
BRANCH   5   8
HETATM    8  C   UNL     1     -45.157 -52.141  14.098  1.00  0.00     0.163 C 
BRANCH   8   9
HETATM    9  C   UNL     1     -46.463 -51.393  14.322  1.00  0.00     0.012 C 
HETATM   10  C   UNL     1     -47.118 -51.791  15.632  1.00  0.00     0.006 C 
ENDBRANCH   8   9
ENDBRANCH   5   8
ENDBRANCH   3   5
ENDBRANCH   2   3
ENDBRANCH   1   2
BRANCH   1  11
HETATM   11  O   UNL     1     -40.529 -53.302  11.762  1.00  0.00    -0.388 OA
HETATM   12  H   UNL     1     -39.926 -52.814  12.362  1.00  0.00     0.210 HD
ENDBRANCH   1  11
BRANCH   1  13
HETATM   13  C   UNL     1     -40.832 -54.354  13.910  1.00  0.00     0.039 A 
HETATM   14  C   UNL     1     -39.448 -54.520  13.954  1.00  0.00     0.028 A 
HETATM   15  C   UNL     1     -38.864 -54.971  15.131  1.00  0.00     0.003 A 
HETATM   16  C   UNL     1     -39.671 -55.242  16.230  1.00  0.00     0.017 A 
HETATM   17  C   UNL     1     -41.035 -55.039  16.108  1.00  0.00     0.088 A 
HETATM   18  N   UNL     1     -41.635 -54.592  14.982  1.00  0.00    -0.367 N 
ATOM     19  HN  UNL     1     -42.643 -54.440  14.938  1.00  0.00     0.165 HD
ENDBRANCH   1  13
TORSDOF 7
ENDMDL
MODEL 4
REMARK VINA RESULT:      -5.2      3.649      4.753
REMARK  7 active torsions:
REMARK  status: ('A' for Active; 'I' for Inactive)
REMARK    1  A    between atoms: C_2  and  C_3 
REMARK    2  A    between atoms: C_3  and  S_4 
REMARK    3  A    between atoms: S_4  and  N_7 
REMARK    4  A    between atoms: N_7  and  C_8 
REMARK    5  A    between atoms: C_8  and  C_9 
REMARK    6  A    between atoms: C_9  and  O_10 
REMARK    7  A    between atoms: C_9  and  C_11 
ROOT
HETATM    1  C   UNL     1     -40.978 -49.184  11.258  1.00  0.00     0.186 C 
ENDROOT
BRANCH   1   2
HETATM    2  C   UNL     1     -41.945 -50.061  12.075  1.00  0.00     0.170 C 
BRANCH   2   3
HETATM    3  N   UNL     1     -41.728 -51.514  11.854  1.00  0.00    -0.317 N 
HETATM    4  H   UNL     1     -42.511 -52.024  11.455  1.00  0.00     0.172 HD
BRANCH   3   5
HETATM    5  S   UNL     1     -40.913 -52.343  13.082  1.00  0.00     0.226 S 
HETATM    6  O   UNL     1     -41.340 -51.805  14.356  1.00  0.00    -0.206 OA
HETATM    7  O   UNL     1     -39.523 -52.406  12.696  1.00  0.00    -0.206 OA
BRANCH   5   8
HETATM    8  C   UNL     1     -41.607 -53.982  12.894  1.00  0.00     0.163 C 
BRANCH   8   9
HETATM    9  C   UNL     1     -42.890 -54.127  13.699  1.00  0.00     0.012 C 
HETATM   10  C   UNL     1     -44.120 -54.022  12.815  1.00  0.00     0.006 C 
ENDBRANCH   8   9
ENDBRANCH   5   8
ENDBRANCH   3   5
ENDBRANCH   2   3
ENDBRANCH   1   2
BRANCH   1  11
HETATM   11  O   UNL     1     -40.375 -50.000  10.239  1.00  0.00    -0.388 OA
HETATM   12  H   UNL     1     -40.992 -49.941   9.479  1.00  0.00     0.210 HD
ENDBRANCH   1  11
BRANCH   1  13
HETATM   13  C   UNL     1     -41.676 -48.005  10.608  1.00  0.00     0.039 A 
HETATM   14  C   UNL     1     -41.263 -46.701  10.882  1.00  0.00     0.028 A 
HETATM   15  C   UNL     1     -41.941 -45.644  10.288  1.00  0.00     0.003 A 
HETATM   16  C   UNL     1     -43.008 -45.912   9.439  1.00  0.00     0.017 A 
HETATM   17  C   UNL     1     -43.347 -47.234   9.208  1.00  0.00     0.088 A 
HETATM   18  N   UNL     1     -42.703 -48.287   9.761  1.00  0.00    -0.367 N 
ATOM     19  HN  UNL     1     -42.974 -49.248   9.552  1.00  0.00     0.165 HD
ENDBRANCH   1  13
TORSDOF 7
ENDMDL
MODEL 5
REMARK VINA RESULT:      -5.2      2.973      6.163
REMARK  7 active torsions:
REMARK  status: ('A' for Active; 'I' for Inactive)
REMARK    1  A    between atoms: C_2  and  C_3 
REMARK    2  A    between atoms: C_3  and  S_4 
REMARK    3  A    between atoms: S_4  and  N_7 
REMARK    4  A    between atoms: N_7  and  C_8 
REMARK    5  A    between atoms: C_8  and  C_9 
REMARK    6  A    between atoms: C_9  and  O_10 
REMARK    7  A    between atoms: C_9  and  C_11 
ROOT
HETATM    1  C   UNL     1     -40.969 -52.627  12.425  1.00  0.00     0.186 C 
ENDROOT
BRANCH   1   2
HETATM    2  C   UNL     1     -39.913 -52.590  13.545  1.00  0.00     0.170 C 
BRANCH   2   3
HETATM    3  N   UNL     1     -39.515 -51.208  13.913  1.00  0.00    -0.317 N 
HETATM    4  H   UNL     1     -40.201 -50.482  13.721  1.00  0.00     0.172 HD
BRANCH   3   5
HETATM    5  S   UNL     1     -37.922 -50.768  13.553  1.00  0.00     0.226 S 
HETATM    6  O   UNL     1     -37.391 -51.718  12.599  1.00  0.00    -0.206 OA
HETATM    7  O   UNL     1     -37.270 -50.487  14.810  1.00  0.00    -0.206 OA
BRANCH   5   8
HETATM    8  C   UNL     1     -38.188 -49.208  12.716  1.00  0.00     0.163 C 
BRANCH   8   9
HETATM    9  C   UNL     1     -39.234 -49.350  11.619  1.00  0.00     0.012 C 
HETATM   10  C   UNL     1     -40.261 -48.233  11.678  1.00  0.00     0.006 C 
ENDBRANCH   8   9
ENDBRANCH   5   8
ENDBRANCH   3   5
ENDBRANCH   2   3
ENDBRANCH   1   2
BRANCH   1  11
HETATM   11  O   UNL     1     -40.433 -53.373  11.319  1.00  0.00    -0.388 OA
HETATM   12  H   UNL     1     -41.206 -53.846  10.943  1.00  0.00     0.210 HD
ENDBRANCH   1  11
BRANCH   1  13
HETATM   13  C   UNL     1     -42.270 -53.264  12.876  1.00  0.00     0.039 A 
HETATM   14  C   UNL     1     -42.297 -54.098  13.993  1.00  0.00     0.028 A 
HETATM   15  C   UNL     1     -43.502 -54.684  14.363  1.00  0.00     0.003 A 
HETATM   16  C   UNL     1     -44.643 -54.424  13.614  1.00  0.00     0.017 A 
HETATM   17  C   UNL     1     -44.534 -53.573  12.527  1.00  0.00     0.088 A 
HETATM   18  N   UNL     1     -43.381 -52.979  12.145  1.00  0.00    -0.367 N 
ATOM     19  HN  UNL     1     -43.346 -52.345  11.345  1.00  0.00     0.165 HD
ENDBRANCH   1  13
TORSDOF 7
ENDMDL
MODEL 6
REMARK VINA RESULT:      -5.1      1.655      2.374
REMARK  7 active torsions:
REMARK  status: ('A' for Active; 'I' for Inactive)
REMARK    1  A    between atoms: C_2  and  C_3 
REMARK    2  A    between atoms: C_3  and  S_4 
REMARK    3  A    between atoms: S_4  and  N_7 
REMARK    4  A    between atoms: N_7  and  C_8 
REMARK    5  A    between atoms: C_8  and  C_9 
REMARK    6  A    between atoms: C_9  and  O_10 
REMARK    7  A    between atoms: C_9  and  C_11 
ROOT
HETATM    1  C   UNL     1     -40.754 -52.459  12.663  1.00  0.00     0.186 C 
ENDROOT
BRANCH   1   2
HETATM    2  C   UNL     1     -42.187 -51.898  12.602  1.00  0.00     0.170 C 
BRANCH   2   3
HETATM    3  N   UNL     1     -43.145 -52.838  11.966  1.00  0.00    -0.317 N 
HETATM    4  H   UNL     1     -43.314 -52.696  10.973  1.00  0.00     0.172 HD
BRANCH   3   5
HETATM    5  S   UNL     1     -44.531 -53.211  12.860  1.00  0.00     0.226 S 
HETATM    6  O   UNL     1     -44.891 -54.586  12.590  1.00  0.00    -0.206 OA
HETATM    7  O   UNL     1     -45.456 -52.118  12.676  1.00  0.00    -0.206 OA
BRANCH   5   8
HETATM    8  C   UNL     1     -43.888 -53.108  14.528  1.00  0.00     0.163 C 
BRANCH   8   9
HETATM    9  C   UNL     1     -43.626 -54.494  15.098  1.00  0.00     0.012 C 
HETATM   10  C   UNL     1     -42.141 -54.807  15.147  1.00  0.00     0.006 C 
ENDBRANCH   8   9
ENDBRANCH   5   8
ENDBRANCH   3   5
ENDBRANCH   2   3
ENDBRANCH   1   2
BRANCH   1  11
HETATM   11  O   UNL     1     -40.571 -53.359  11.558  1.00  0.00    -0.388 OA
HETATM   12  H   UNL     1     -41.437 -53.364  11.098  1.00  0.00     0.210 HD
ENDBRANCH   1  11
BRANCH   1  13
HETATM   13  C   UNL     1     -39.702 -51.368  12.601  1.00  0.00     0.039 A 
HETATM   14  C   UNL     1     -39.914 -50.225  11.830  1.00  0.00     0.028 A 
HETATM   15  C   UNL     1     -38.918 -49.258  11.777  1.00  0.00     0.003 A 
HETATM   16  C   UNL     1     -37.742 -49.453  12.491  1.00  0.00     0.017 A 
HETATM   17  C   UNL     1     -37.616 -50.608  13.243  1.00  0.00     0.088 A 
HETATM   18  N   UNL     1     -38.568 -51.565  13.326  1.00  0.00    -0.367 N 
ATOM     19  HN  UNL     1     -38.441 -52.395  13.905  1.00  0.00     0.165 HD
ENDBRANCH   1  13
TORSDOF 7
ENDMDL
MODEL 7
REMARK VINA RESULT:      -5.0      3.356      5.565
REMARK  7 active torsions:
REMARK  status: ('A' for Active; 'I' for Inactive)
REMARK    1  A    between atoms: C_2  and  C_3 
REMARK    2  A    between atoms: C_3  and  S_4 
REMARK    3  A    between atoms: S_4  and  N_7 
REMARK    4  A    between atoms: N_7  and  C_8 
REMARK    5  A    between atoms: C_8  and  C_9 
REMARK    6  A    between atoms: C_9  and  O_10 
REMARK    7  A    between atoms: C_9  and  C_11 
ROOT
HETATM    1  C   UNL     1     -40.799 -49.320  11.375  1.00  0.00     0.186 C 
ENDROOT
BRANCH   1   2
HETATM    2  C   UNL     1     -41.698 -50.199  12.263  1.00  0.00     0.170 C 
BRANCH   2   3
HETATM    3  N   UNL     1     -40.992 -50.710  13.466  1.00  0.00    -0.317 N 
HETATM    4  H   UNL     1     -40.317 -50.077  13.887  1.00  0.00     0.172 HD
BRANCH   3   5
HETATM    5  S   UNL     1     -40.489 -52.323  13.408  1.00  0.00     0.226 S 
HETATM    6  O   UNL     1     -40.465 -52.744  12.023  1.00  0.00    -0.206 OA
HETATM    7  O   UNL     1     -41.235 -53.033  14.419  1.00  0.00    -0.206 OA
BRANCH   5   8
HETATM    8  C   UNL     1     -38.801 -52.166  13.984  1.00  0.00     0.163 C 
BRANCH   8   9
HETATM    9  C   UNL     1     -38.239 -50.790  13.657  1.00  0.00     0.012 C 
HETATM   10  C   UNL     1     -37.429 -50.808  12.373  1.00  0.00     0.006 C 
ENDBRANCH   8   9
ENDBRANCH   5   8
ENDBRANCH   3   5
ENDBRANCH   2   3
ENDBRANCH   1   2
BRANCH   1  11
HETATM   11  O   UNL     1     -40.295 -50.127  10.297  1.00  0.00    -0.388 OA
HETATM   12  H   UNL     1     -39.493 -50.556  10.665  1.00  0.00     0.210 HD
ENDBRANCH   1  11
BRANCH   1  13
HETATM   13  C   UNL     1     -41.539 -48.126  10.803  1.00  0.00     0.039 A 
HETATM   14  C   UNL     1     -40.963 -46.856  10.833  1.00  0.00     0.028 A 
HETATM   15  C   UNL     1     -41.681 -45.782  10.323  1.00  0.00     0.003 A 
HETATM   16  C   UNL     1     -42.948 -45.999   9.797  1.00  0.00     0.017 A 
HETATM   17  C   UNL     1     -43.444 -47.292   9.793  1.00  0.00     0.088 A 
HETATM   18  N   UNL     1     -42.769 -48.362  10.271  1.00  0.00    -0.367 N 
ATOM     19  HN  UNL     1     -43.165 -49.302  10.235  1.00  0.00     0.165 HD
ENDBRANCH   1  13
TORSDOF 7
ENDMDL
MODEL 8
REMARK VINA RESULT:      -4.9      4.612      7.024
REMARK  7 active torsions:
REMARK  status: ('A' for Active; 'I' for Inactive)
REMARK    1  A    between atoms: C_2  and  C_3 
REMARK    2  A    between atoms: C_3  and  S_4 
REMARK    3  A    between atoms: S_4  and  N_7 
REMARK    4  A    between atoms: N_7  and  C_8 
REMARK    5  A    between atoms: C_8  and  C_9 
REMARK    6  A    between atoms: C_9  and  O_10 
REMARK    7  A    between atoms: C_9  and  C_11 
ROOT
HETATM    1  C   UNL     1     -41.207 -47.306  11.281  1.00  0.00     0.186 C 
ENDROOT
BRANCH   1   2
HETATM    2  C   UNL     1     -41.014 -48.764  11.735  1.00  0.00     0.170 C 
BRANCH   2   3
HETATM    3  N   UNL     1     -39.889 -49.438  11.038  1.00  0.00    -0.317 N 
HETATM    4  H   UNL     1     -40.145 -50.041  10.260  1.00  0.00     0.172 HD
BRANCH   3   5
HETATM    5  S   UNL     1     -38.665 -50.060  12.025  1.00  0.00     0.226 S 
HETATM    6  O   UNL     1     -37.388 -49.660  11.476  1.00  0.00    -0.206 OA
HETATM    7  O   UNL     1     -38.996 -51.441  12.286  1.00  0.00    -0.206 OA
BRANCH   5   8
HETATM    8  C   UNL     1     -38.951 -49.137  13.532  1.00  0.00     0.163 C 
BRANCH   8   9
HETATM    9  C   UNL     1     -37.855 -48.104  13.755  1.00  0.00     0.012 C 
HETATM   10  C   UNL     1     -37.133 -48.331  15.071  1.00  0.00     0.006 C 
ENDBRANCH   8   9
ENDBRANCH   5   8
ENDBRANCH   3   5
ENDBRANCH   2   3
ENDBRANCH   1   2
BRANCH   1  11
HETATM   11  O   UNL     1     -40.051 -46.908  10.526  1.00  0.00    -0.388 OA
HETATM   12  H   UNL     1     -40.330 -46.091  10.060  1.00  0.00     0.210 HD
ENDBRANCH   1  11
BRANCH   1  13
HETATM   13  C   UNL     1     -42.450 -47.123  10.431  1.00  0.00     0.039 A 
HETATM   14  C   UNL     1     -43.660 -47.699  10.816  1.00  0.00     0.028 A 
HETATM   15  C   UNL     1     -44.772 -47.532   9.999  1.00  0.00     0.003 A 
HETATM   16  C   UNL     1     -44.649 -46.797   8.826  1.00  0.00     0.017 A 
HETATM   17  C   UNL     1     -43.416 -46.247   8.522  1.00  0.00     0.088 A 
HETATM   18  N   UNL     1     -42.317 -46.381   9.298  1.00  0.00    -0.367 N 
ATOM     19  HN  UNL     1     -41.429 -45.946   9.046  1.00  0.00     0.165 HD
ENDBRANCH   1  13
TORSDOF 7
ENDMDL
MODEL 9
REMARK VINA RESULT:      -4.7      3.235      6.278
REMARK  7 active torsions:
REMARK  status: ('A' for Active; 'I' for Inactive)
REMARK    1  A    between atoms: C_2  and  C_3 
REMARK    2  A    between atoms: C_3  and  S_4 
REMARK    3  A    between atoms: S_4  and  N_7 
REMARK    4  A    between atoms: N_7  and  C_8 
REMARK    5  A    between atoms: C_8  and  C_9 
REMARK    6  A    between atoms: C_9  and  O_10 
REMARK    7  A    between atoms: C_9  and  C_11 
ROOT
HETATM    1  C   UNL     1     -41.461 -52.627  12.123  1.00  0.00     0.186 C 
ENDROOT
BRANCH   1   2
HETATM    2  C   UNL     1     -40.771 -51.316  12.543  1.00  0.00     0.170 C 
BRANCH   2   3
HETATM    3  N   UNL     1     -39.785 -50.840  11.539  1.00  0.00    -0.317 N 
HETATM    4  H   UNL     1     -39.585 -51.480  10.775  1.00  0.00     0.172 HD
BRANCH   3   5
HETATM    5  S   UNL     1     -38.425 -50.042  12.150  1.00  0.00     0.226 S 
HETATM    6  O   UNL     1     -38.839 -48.743  12.637  1.00  0.00    -0.206 OA
HETATM    7  O   UNL     1     -37.371 -50.204  11.177  1.00  0.00    -0.206 OA
BRANCH   5   8
HETATM    8  C   UNL     1     -38.034 -51.079  13.556  1.00  0.00     0.163 C 
BRANCH   8   9
HETATM    9  C   UNL     1     -38.122 -50.291  14.855  1.00  0.00     0.012 C 
HETATM   10  C   UNL     1     -36.745 -49.981  15.415  1.00  0.00     0.006 C 
ENDBRANCH   8   9
ENDBRANCH   5   8
ENDBRANCH   3   5
ENDBRANCH   2   3
ENDBRANCH   1   2
BRANCH   1  11
HETATM   11  O   UNL     1     -40.581 -53.341  11.240  1.00  0.00    -0.388 OA
HETATM   12  H   UNL     1     -39.800 -52.756  11.143  1.00  0.00     0.210 HD
ENDBRANCH   1  11
BRANCH   1  13
HETATM   13  C   UNL     1     -41.804 -53.507  13.310  1.00  0.00     0.039 A 
HETATM   14  C   UNL     1     -43.099 -53.995  13.478  1.00  0.00     0.028 A 
HETATM   15  C   UNL     1     -43.383 -54.777  14.590  1.00  0.00     0.003 A 
HETATM   16  C   UNL     1     -42.372 -55.054  15.502  1.00  0.00     0.017 A 
HETATM   17  C   UNL     1     -41.108 -54.543  15.256  1.00  0.00     0.088 A 
HETATM   18  N   UNL     1     -40.795 -53.787  14.180  1.00  0.00    -0.367 N 
ATOM     19  HN  UNL     1     -39.847 -53.442  14.027  1.00  0.00     0.165 HD
ENDBRANCH   1  13
TORSDOF 7
ENDMDL
