MODEL 1
REMARK VINA RESULT:      -6.0      0.000      0.000
REMARK  4 active torsions:
REMARK  status: ('A' for Active; 'I' for Inactive)
REMARK    1  A    between atoms: C_2  and  C_3 
REMARK    2  A    between atoms: C_2  and  C_14 
REMARK    3  A    between atoms: C_3  and  N_4 
REMARK       I    between atoms: N_4  and  C_5 
REMARK       I    between atoms: C_5  and  N_7 
REMARK    4  A    between atoms: N_7  and  C_8 
ROOT
HETATM    1  N   UNL     1     -41.613 -50.736  11.723  1.00  0.00    -0.342 N 
HETATM    2  C   UNL     1     -41.634 -52.047  12.118  1.00  0.00     0.316 C 
HETATM    3  O   UNL     1     -40.647 -52.768  12.125  1.00  0.00    -0.247 OA
HETATM    4  N   UNL     1     -42.894 -52.467  12.463  1.00  0.00    -0.338 N 
HETATM    5  H   UNL     1     -42.440 -50.174  11.853  1.00  0.00     0.164 HD
HETATM    6  H   UNL     1     -43.494 -51.754  12.851  1.00  0.00     0.164 HD
ENDROOT
BRANCH   1   7
HETATM    7  C   UNL     1     -40.380 -50.075  11.307  1.00  0.00     0.135 C 
BRANCH   7   8
HETATM    8  C   UNL     1     -40.469 -48.543  11.400  1.00  0.00     0.057 C 
HETATM    9  C   UNL     1     -40.525 -48.082  12.860  1.00  0.00     0.018 C 
BRANCH   8  10
HETATM   10  C   UNL     1     -41.680 -48.029  10.657  1.00  0.00     0.056 A 
HETATM   11  N   UNL     1     -41.925 -48.234   9.377  1.00  0.00    -0.357 N 
HETATM   12  C   UNL     1     -43.153 -47.689   9.031  1.00  0.00     0.012 A 
ATOM     13  HN  UNL     1     -41.301 -48.723   8.735  1.00  0.00     0.166 HD
HETATM   14  C   UNL     1     -43.646 -47.823   7.635  1.00  0.00     0.068 C 
HETATM   15  C   UNL     1     -43.821 -47.065  10.067  1.00  0.00     0.076 A 
HETATM   16  S   UNL     1     -42.894 -47.150  11.502  1.00  0.00    -0.086 SA
ENDBRANCH   8  10
ENDBRANCH   7   8
ENDBRANCH   1   7
BRANCH   4  17
HETATM   17  C   UNL     1     -43.096 -53.825  12.977  1.00  0.00     0.095 C 
HETATM   18  C   UNL     1     -44.530 -54.311  12.722  1.00  0.00     0.027 C 
HETATM   19  C   UNL     1     -45.607 -53.601  13.541  1.00  0.00     0.012 C 
HETATM   20  C   UNL     1     -45.380 -53.661  15.047  1.00  0.00     0.074 C 
HETATM   21  S   UNL     1     -43.791 -52.927  15.525  1.00  0.00    -0.167 SA
HETATM   22  C   UNL     1     -42.706 -53.936  14.458  1.00  0.00     0.099 C 
ENDBRANCH   4  17
TORSDOF 4
ENDMDL
MODEL 2
REMARK VINA RESULT:      -5.7      2.033      2.503
REMARK  4 active torsions:
REMARK  status: ('A' for Active; 'I' for Inactive)
REMARK    1  A    between atoms: C_2  and  C_3 
REMARK    2  A    between atoms: C_2  and  C_14 
REMARK    3  A    between atoms: C_3  and  N_4 
REMARK       I    between atoms: N_4  and  C_5 
REMARK       I    between atoms: C_5  and  N_7 
REMARK    4  A    between atoms: N_7  and  C_8 
ROOT
HETATM    1  N   UNL     1     -41.814 -49.901  11.519  1.00  0.00    -0.342 N 
HETATM    2  C   UNL     1     -40.855 -50.770  11.968  1.00  0.00     0.316 C 
HETATM    3  O   UNL     1     -39.656 -50.600  11.804  1.00  0.00    -0.247 OA
HETATM    4  N   UNL     1     -41.397 -51.871  12.583  1.00  0.00    -0.338 N 
HETATM    5  H   UNL     1     -42.773 -50.050  11.792  1.00  0.00     0.164 HD
HETATM    6  H   UNL     1     -42.275 -51.711  13.054  1.00  0.00     0.164 HD
ENDROOT
BRANCH   1   7
HETATM    7  C   UNL     1     -41.469 -48.662  10.829  1.00  0.00     0.135 C 
BRANCH   7   8
HETATM    8  C   UNL     1     -42.314 -47.467  11.301  1.00  0.00     0.057 C 
HETATM    9  C   UNL     1     -42.863 -47.704  12.712  1.00  0.00     0.018 C 
BRANCH   8  10
HETATM   10  C   UNL     1     -43.455 -47.206  10.347  1.00  0.00     0.056 A 
HETATM   11  N   UNL     1     -44.497 -47.998  10.179  1.00  0.00    -0.357 N 
HETATM   12  C   UNL     1     -45.392 -47.430   9.285  1.00  0.00     0.012 A 
ATOM     13  HN  UNL     1     -44.625 -48.899  10.641  1.00  0.00     0.166 HD
HETATM   14  C   UNL     1     -46.656 -48.142   8.962  1.00  0.00     0.068 C 
HETATM   15  C   UNL     1     -45.004 -46.205   8.778  1.00  0.00     0.076 A 
HETATM   16  S   UNL     1     -43.484 -45.755   9.421  1.00  0.00    -0.086 SA
ENDBRANCH   8  10
ENDBRANCH   7   8
ENDBRANCH   1   7
BRANCH   4  17
HETATM   17  C   UNL     1     -40.518 -52.876  13.188  1.00  0.00     0.095 C 
HETATM   18  C   UNL     1     -41.152 -54.273  13.139  1.00  0.00     0.027 C 
HETATM   19  C   UNL     1     -42.366 -54.464  14.048  1.00  0.00     0.012 C 
HETATM   20  C   UNL     1     -42.096 -54.152  15.515  1.00  0.00     0.074 C 
HETATM   21  S   UNL     1     -41.527 -52.445  15.753  1.00  0.00    -0.167 SA
HETATM   22  C   UNL     1     -40.101 -52.483  14.613  1.00  0.00     0.099 C 
ENDBRANCH   4  17
TORSDOF 4
ENDMDL
MODEL 3
REMARK VINA RESULT:      -5.7      1.568      2.024
REMARK  4 active torsions:
REMARK  status: ('A' for Active; 'I' for Inactive)
REMARK    1  A    between atoms: C_2  and  C_3 
REMARK    2  A    between atoms: C_2  and  C_14 
REMARK    3  A    between atoms: C_3  and  N_4 
REMARK       I    between atoms: N_4  and  C_5 
REMARK       I    between atoms: C_5  and  N_7 
REMARK    4  A    between atoms: N_7  and  C_8 
ROOT
HETATM    1  N   UNL     1     -40.443 -51.253  13.500  1.00  0.00    -0.342 N 
HETATM    2  C   UNL     1     -40.885 -52.515  13.205  1.00  0.00     0.316 C 
HETATM    3  O   UNL     1     -40.206 -53.354  12.630  1.00  0.00    -0.247 OA
HETATM    4  N   UNL     1     -42.187 -52.715  13.590  1.00  0.00    -0.338 N 
HETATM    5  H   UNL     1     -41.019 -50.658  14.076  1.00  0.00     0.164 HD
HETATM    6  H   UNL     1     -42.480 -52.193  14.402  1.00  0.00     0.164 HD
ENDROOT
BRANCH   1   7
HETATM    7  C   UNL     1     -39.089 -50.815  13.178  1.00  0.00     0.135 C 
BRANCH   7   8
HETATM    8  C   UNL     1     -38.954 -50.329  11.725  1.00  0.00     0.057 C 
HETATM    9  C   UNL     1     -37.513 -49.912  11.414  1.00  0.00     0.018 C 
BRANCH   8  10
HETATM   10  C   UNL     1     -39.888 -49.173  11.456  1.00  0.00     0.056 A 
HETATM   11  N   UNL     1     -40.858 -49.176  10.561  1.00  0.00    -0.357 N 
HETATM   12  C   UNL     1     -41.569 -47.987  10.621  1.00  0.00     0.012 A 
ATOM     13  HN  UNL     1     -41.056 -49.944   9.918  1.00  0.00     0.166 HD
HETATM   14  C   UNL     1     -42.728 -47.780   9.713  1.00  0.00     0.068 C 
HETATM   15  C   UNL     1     -41.114 -47.088  11.566  1.00  0.00     0.076 A 
HETATM   16  S   UNL     1     -39.764 -47.734  12.393  1.00  0.00    -0.086 SA
ENDBRANCH   8  10
ENDBRANCH   7   8
ENDBRANCH   1   7
BRANCH   4  17
HETATM   17  C   UNL     1     -42.806 -54.032  13.415  1.00  0.00     0.095 C 
HETATM   18  C   UNL     1     -44.089 -53.939  12.576  1.00  0.00     0.027 C 
HETATM   19  C   UNL     1     -45.259 -53.233  13.260  1.00  0.00     0.012 C 
HETATM   20  C   UNL     1     -45.650 -53.842  14.602  1.00  0.00     0.074 C 
HETATM   21  S   UNL     1     -44.271 -53.833  15.781  1.00  0.00    -0.167 SA
HETATM   22  C   UNL     1     -43.049 -54.730  14.762  1.00  0.00     0.099 C 
ENDBRANCH   4  17
TORSDOF 4
ENDMDL
MODEL 4
REMARK VINA RESULT:      -5.4      2.410      2.796
REMARK  4 active torsions:
REMARK  status: ('A' for Active; 'I' for Inactive)
REMARK    1  A    between atoms: C_2  and  C_3 
REMARK    2  A    between atoms: C_2  and  C_14 
REMARK    3  A    between atoms: C_3  and  N_4 
REMARK       I    between atoms: N_4  and  C_5 
REMARK       I    between atoms: C_5  and  N_7 
REMARK    4  A    between atoms: N_7  and  C_8 
ROOT
HETATM    1  N   UNL     1     -41.249 -50.848  12.449  1.00  0.00    -0.342 N 
HETATM    2  C   UNL     1     -41.959 -51.962  12.811  1.00  0.00     0.316 C 
HETATM    3  O   UNL     1     -41.442 -53.003  13.189  1.00  0.00    -0.247 OA
HETATM    4  N   UNL     1     -43.313 -51.789  12.659  1.00  0.00    -0.338 N 
HETATM    5  H   UNL     1     -41.748 -49.993  12.259  1.00  0.00     0.164 HD
HETATM    6  H   UNL     1     -43.643 -50.845  12.792  1.00  0.00     0.164 HD
ENDROOT
BRANCH   1   7
HETATM    7  C   UNL     1     -39.792 -50.804  12.524  1.00  0.00     0.135 C 
BRANCH   7   8
HETATM    8  C   UNL     1     -39.176 -49.841  11.497  1.00  0.00     0.057 C 
HETATM    9  C   UNL     1     -37.657 -50.026  11.410  1.00  0.00     0.018 C 
BRANCH   8  10
HETATM   10  C   UNL     1     -39.495 -48.406  11.847  1.00  0.00     0.056 A 
HETATM   11  N   UNL     1     -39.971 -47.511  11.003  1.00  0.00    -0.357 N 
HETATM   12  C   UNL     1     -40.219 -46.315  11.663  1.00  0.00     0.012 A 
ATOM     13  HN  UNL     1     -40.133 -47.673  10.009  1.00  0.00     0.166 HD
HETATM   14  C   UNL     1     -40.784 -45.166  10.908  1.00  0.00     0.068 C 
HETATM   15  C   UNL     1     -39.914 -46.325  13.010  1.00  0.00     0.076 A 
HETATM   16  S   UNL     1     -39.295 -47.853  13.464  1.00  0.00    -0.086 SA
ENDBRANCH   8  10
ENDBRANCH   7   8
ENDBRANCH   1   7
BRANCH   4  17
HETATM   17  C   UNL     1     -44.235 -52.854  13.064  1.00  0.00     0.095 C 
HETATM   18  C   UNL     1     -45.598 -52.704  12.374  1.00  0.00     0.027 C 
HETATM   19  C   UNL     1     -46.427 -51.506  12.835  1.00  0.00     0.012 C 
HETATM   20  C   UNL     1     -46.684 -51.473  14.338  1.00  0.00     0.074 C 
HETATM   21  S   UNL     1     -45.141 -51.441  15.292  1.00  0.00    -0.167 SA
HETATM   22  C   UNL     1     -44.369 -52.941  14.591  1.00  0.00     0.099 C 
ENDBRANCH   4  17
TORSDOF 4
ENDMDL
MODEL 5
REMARK VINA RESULT:      -5.4      1.863      2.556
REMARK  4 active torsions:
REMARK  status: ('A' for Active; 'I' for Inactive)
REMARK    1  A    between atoms: C_2  and  C_3 
REMARK    2  A    between atoms: C_2  and  C_14 
REMARK    3  A    between atoms: C_3  and  N_4 
REMARK       I    between atoms: N_4  and  C_5 
REMARK       I    between atoms: C_5  and  N_7 
REMARK    4  A    between atoms: N_7  and  C_8 
ROOT
HETATM    1  N   UNL     1     -42.192 -51.963  13.145  1.00  0.00    -0.342 N 
HETATM    2  C   UNL     1     -43.365 -52.665  13.054  1.00  0.00     0.316 C 
HETATM    3  O   UNL     1     -43.732 -53.244  12.042  1.00  0.00    -0.247 OA
HETATM    4  N   UNL     1     -44.098 -52.604  14.213  1.00  0.00    -0.338 N 
HETATM    5  H   UNL     1     -41.904 -51.609  14.044  1.00  0.00     0.164 HD
HETATM    6  H   UNL     1     -43.557 -52.523  15.060  1.00  0.00     0.164 HD
ENDROOT
BRANCH   1   7
HETATM    7  C   UNL     1     -41.253 -51.884  12.030  1.00  0.00     0.135 C 
BRANCH   7   8
HETATM    8  C   UNL     1     -40.187 -50.795  12.231  1.00  0.00     0.057 C 
HETATM    9  C   UNL     1     -39.909 -50.564  13.721  1.00  0.00     0.018 C 
BRANCH   8  10
HETATM   10  C   UNL     1     -40.614 -49.498  11.586  1.00  0.00     0.056 A 
HETATM   11  N   UNL     1     -41.655 -49.358  10.787  1.00  0.00    -0.357 N 
HETATM   12  C   UNL     1     -41.808 -48.027  10.427  1.00  0.00     0.012 A 
ATOM     13  HN  UNL     1     -42.259 -50.120  10.477  1.00  0.00     0.166 HD
HETATM   14  C   UNL     1     -42.936 -47.631   9.544  1.00  0.00     0.068 C 
HETATM   15  C   UNL     1     -40.863 -47.172  10.961  1.00  0.00     0.076 A 
HETATM   16  S   UNL     1     -39.753 -48.047  11.924  1.00  0.00    -0.086 SA
ENDBRANCH   8  10
ENDBRANCH   7   8
ENDBRANCH   1   7
BRANCH   4  17
HETATM   17  C   UNL     1     -45.352 -53.355  14.323  1.00  0.00     0.095 C 
HETATM   18  C   UNL     1     -46.554 -52.497  13.905  1.00  0.00     0.027 C 
HETATM   19  C   UNL     1     -46.895 -51.354  14.861  1.00  0.00     0.012 C 
HETATM   20  C   UNL     1     -47.148 -51.802  16.296  1.00  0.00     0.074 C 
HETATM   21  S   UNL     1     -45.716 -52.665  17.001  1.00  0.00    -0.167 SA
HETATM   22  C   UNL     1     -45.535 -53.958  15.723  1.00  0.00     0.099 C 
ENDBRANCH   4  17
TORSDOF 4
ENDMDL
MODEL 6
REMARK VINA RESULT:      -5.2      2.590      3.296
REMARK  4 active torsions:
REMARK  status: ('A' for Active; 'I' for Inactive)
REMARK    1  A    between atoms: C_2  and  C_3 
REMARK    2  A    between atoms: C_2  and  C_14 
REMARK    3  A    between atoms: C_3  and  N_4 
REMARK       I    between atoms: N_4  and  C_5 
REMARK       I    between atoms: C_5  and  N_7 
REMARK    4  A    between atoms: N_7  and  C_8 
ROOT
HETATM    1  N   UNL     1     -41.234 -50.836  12.432  1.00  0.00    -0.342 N 
HETATM    2  C   UNL     1     -41.947 -51.960  12.759  1.00  0.00     0.316 C 
HETATM    3  O   UNL     1     -41.434 -53.045  12.989  1.00  0.00    -0.247 OA
HETATM    4  N   UNL     1     -43.301 -51.736  12.756  1.00  0.00    -0.338 N 
HETATM    5  H   UNL     1     -41.718 -49.954  12.370  1.00  0.00     0.164 HD
HETATM    6  H   UNL     1     -43.583 -50.801  13.005  1.00  0.00     0.164 HD
ENDROOT
BRANCH   1   7
HETATM    7  C   UNL     1     -39.776 -50.840  12.369  1.00  0.00     0.135 C 
BRANCH   7   8
HETATM    8  C   UNL     1     -39.221 -49.717  11.478  1.00  0.00     0.057 C 
HETATM    9  C   UNL     1     -37.701 -49.838  11.322  1.00  0.00     0.018 C 
BRANCH   8  10
HETATM   10  C   UNL     1     -39.568 -48.360  12.044  1.00  0.00     0.056 A 
HETATM   11  N   UNL     1     -39.027 -47.831  13.125  1.00  0.00    -0.357 N 
HETATM   12  C   UNL     1     -39.515 -46.547  13.326  1.00  0.00     0.012 A 
ATOM     13  HN  UNL     1     -38.347 -48.297  13.726  1.00  0.00     0.166 HD
HETATM   14  C   UNL     1     -39.023 -45.749  14.479  1.00  0.00     0.068 C 
HETATM   15  C   UNL     1     -40.437 -46.126  12.387  1.00  0.00     0.076 A 
HETATM   16  S   UNL     1     -40.708 -47.359  11.232  1.00  0.00    -0.086 SA
ENDBRANCH   8  10
ENDBRANCH   7   8
ENDBRANCH   1   7
BRANCH   4  17
HETATM   17  C   UNL     1     -44.219 -52.810  13.150  1.00  0.00     0.095 C 
HETATM   18  C   UNL     1     -45.564 -52.689  12.420  1.00  0.00     0.027 C 
HETATM   19  C   UNL     1     -46.423 -51.497  12.842  1.00  0.00     0.012 C 
HETATM   20  C   UNL     1     -46.722 -51.448  14.336  1.00  0.00     0.074 C 
HETATM   21  S   UNL     1     -45.207 -51.380  15.332  1.00  0.00    -0.167 SA
HETATM   22  C   UNL     1     -44.395 -52.878  14.674  1.00  0.00     0.099 C 
ENDBRANCH   4  17
TORSDOF 4
ENDMDL
MODEL 7
REMARK VINA RESULT:      -5.1      3.082      3.824
REMARK  4 active torsions:
REMARK  status: ('A' for Active; 'I' for Inactive)
REMARK    1  A    between atoms: C_2  and  C_3 
REMARK    2  A    between atoms: C_2  and  C_14 
REMARK    3  A    between atoms: C_3  and  N_4 
REMARK       I    between atoms: N_4  and  C_5 
REMARK       I    between atoms: C_5  and  N_7 
REMARK    4  A    between atoms: N_7  and  C_8 
ROOT
HETATM    1  N   UNL     1     -42.573 -48.762  11.039  1.00  0.00    -0.342 N 
HETATM    2  C   UNL     1     -42.510 -49.342  12.279  1.00  0.00     0.316 C 
HETATM    3  O   UNL     1     -41.878 -48.874  13.215  1.00  0.00    -0.247 OA
HETATM    4  N   UNL     1     -43.199 -50.528  12.334  1.00  0.00    -0.338 N 
HETATM    5  H   UNL     1     -43.205 -49.145  10.354  1.00  0.00     0.164 HD
HETATM    6  H   UNL     1     -44.003 -50.587  11.728  1.00  0.00     0.164 HD
ENDROOT
BRANCH   1   7
HETATM    7  C   UNL     1     -41.909 -47.496  10.746  1.00  0.00     0.135 C 
BRANCH   7   8
HETATM    8  C   UNL     1     -42.902 -46.374  10.401  1.00  0.00     0.057 C 
HETATM    9  C   UNL     1     -43.299 -46.425   8.921  1.00  0.00     0.018 C 
BRANCH   8  10
HETATM   10  C   UNL     1     -42.317 -45.019  10.724  1.00  0.00     0.056 A 
HETATM   11  N   UNL     1     -43.020 -43.926  10.949  1.00  0.00    -0.357 N 
HETATM   12  C   UNL     1     -42.179 -42.876  11.287  1.00  0.00     0.012 A 
ATOM     13  HN  UNL     1     -44.036 -43.862  10.882  1.00  0.00     0.166 HD
HETATM   14  C   UNL     1     -42.760 -41.545  11.606  1.00  0.00     0.068 C 
HETATM   15  C   UNL     1     -40.835 -43.195  11.305  1.00  0.00     0.076 A 
HETATM   16  S   UNL     1     -40.612 -44.837  10.881  1.00  0.00    -0.086 SA
ENDBRANCH   8  10
ENDBRANCH   7   8
ENDBRANCH   1   7
BRANCH   4  17
HETATM   17  C   UNL     1     -43.299 -51.256  13.603  1.00  0.00     0.095 C 
HETATM   18  C   UNL     1     -43.015 -52.752  13.411  1.00  0.00     0.027 C 
HETATM   19  C   UNL     1     -44.085 -53.517  12.632  1.00  0.00     0.012 C 
HETATM   20  C   UNL     1     -45.484 -53.403  13.227  1.00  0.00     0.074 C 
HETATM   21  S   UNL     1     -46.042 -51.680  13.328  1.00  0.00    -0.167 SA
HETATM   22  C   UNL     1     -44.646 -51.009  14.297  1.00  0.00     0.099 C 
ENDBRANCH   4  17
TORSDOF 4
ENDMDL
MODEL 8
REMARK VINA RESULT:      -5.1      2.379      7.323
REMARK  4 active torsions:
REMARK  status: ('A' for Active; 'I' for Inactive)
REMARK    1  A    between atoms: C_2  and  C_3 
REMARK    2  A    between atoms: C_2  and  C_14 
REMARK    3  A    between atoms: C_3  and  N_4 
REMARK       I    between atoms: N_4  and  C_5 
REMARK       I    between atoms: C_5  and  N_7 
REMARK    4  A    between atoms: N_7  and  C_8 
ROOT
HETATM    1  N   UNL     1     -45.175 -51.375  12.674  1.00  0.00    -0.342 N 
HETATM    2  C   UNL     1     -43.864 -51.046  12.896  1.00  0.00     0.316 C 
HETATM    3  O   UNL     1     -43.028 -51.834  13.312  1.00  0.00    -0.247 OA
HETATM    4  N   UNL     1     -43.610 -49.721  12.639  1.00  0.00    -0.338 N 
HETATM    5  H   UNL     1     -45.777 -50.704  12.223  1.00  0.00     0.164 HD
HETATM    6  H   UNL     1     -44.178 -49.307  11.916  1.00  0.00     0.164 HD
ENDROOT
BRANCH   1   7
HETATM    7  C   UNL     1     -45.676 -52.730  12.887  1.00  0.00     0.135 C 
BRANCH   7   8
HETATM    8  C   UNL     1     -46.338 -52.906  14.263  1.00  0.00     0.057 C 
HETATM    9  C   UNL     1     -46.844 -51.566  14.807  1.00  0.00     0.018 C 
BRANCH   8  10
HETATM   10  C   UNL     1     -45.373 -53.524  15.248  1.00  0.00     0.056 A 
HETATM   11  N   UNL     1     -44.251 -54.137  14.924  1.00  0.00    -0.357 N 
HETATM   12  C   UNL     1     -43.568 -54.523  16.068  1.00  0.00     0.012 A 
ATOM     13  HN  UNL     1     -43.931 -54.303  13.969  1.00  0.00     0.166 HD
HETATM   14  C   UNL     1     -42.258 -55.214  15.941  1.00  0.00     0.068 C 
HETATM   15  C   UNL     1     -44.198 -54.199  17.254  1.00  0.00     0.076 A 
HETATM   16  S   UNL     1     -45.679 -53.405  16.937  1.00  0.00    -0.086 SA
ENDBRANCH   8  10
ENDBRANCH   7   8
ENDBRANCH   1   7
BRANCH   4  17
HETATM   17  C   UNL     1     -42.243 -49.205  12.755  1.00  0.00     0.095 C 
HETATM   18  C   UNL     1     -42.210 -47.883  13.535  1.00  0.00     0.027 C 
HETATM   19  C   UNL     1     -42.837 -46.691  12.812  1.00  0.00     0.012 C 
HETATM   20  C   UNL     1     -42.232 -46.412  11.440  1.00  0.00     0.074 C 
HETATM   21  S   UNL     1     -42.383 -47.838  10.328  1.00  0.00    -0.167 SA
HETATM   22  C   UNL     1     -41.562 -49.081  11.384  1.00  0.00     0.099 C 
ENDBRANCH   4  17
TORSDOF 4
ENDMDL
MODEL 9
REMARK VINA RESULT:      -5.1      2.373      6.965
REMARK  4 active torsions:
REMARK  status: ('A' for Active; 'I' for Inactive)
REMARK    1  A    between atoms: C_2  and  C_3 
REMARK    2  A    between atoms: C_2  and  C_14 
REMARK    3  A    between atoms: C_3  and  N_4 
REMARK       I    between atoms: N_4  and  C_5 
REMARK       I    between atoms: C_5  and  N_7 
REMARK    4  A    between atoms: N_7  and  C_8 
ROOT
HETATM    1  N   UNL     1     -43.814 -51.763  12.839  1.00  0.00    -0.342 N 
HETATM    2  C   UNL     1     -42.483 -51.672  12.528  1.00  0.00     0.316 C 
HETATM    3  O   UNL     1     -41.821 -52.608  12.103  1.00  0.00    -0.247 OA
HETATM    4  N   UNL     1     -41.971 -50.425  12.788  1.00  0.00    -0.338 N 
HETATM    5  H   UNL     1     -44.317 -50.921  13.074  1.00  0.00     0.164 HD
HETATM    6  H   UNL     1     -42.624 -49.663  12.688  1.00  0.00     0.164 HD
ENDROOT
BRANCH   1   7
HETATM    7  C   UNL     1     -44.568 -52.998  12.649  1.00  0.00     0.135 C 
BRANCH   7   8
HETATM    8  C   UNL     1     -46.064 -52.831  12.963  1.00  0.00     0.057 C 
HETATM    9  C   UNL     1     -46.664 -51.658  12.181  1.00  0.00     0.018 C 
BRANCH   8  10
HETATM   10  C   UNL     1     -46.282 -52.621  14.443  1.00  0.00     0.056 A 
HETATM   11  N   UNL     1     -47.058 -51.693  14.968  1.00  0.00    -0.357 N 
HETATM   12  C   UNL     1     -47.092 -51.821  16.350  1.00  0.00     0.012 A 
ATOM     13  HN  UNL     1     -47.561 -50.983  14.436  1.00  0.00     0.166 HD
HETATM   14  C   UNL     1     -47.927 -50.889  17.152  1.00  0.00     0.068 C 
HETATM   15  C   UNL     1     -46.323 -52.853  16.853  1.00  0.00     0.076 A 
HETATM   16  S   UNL     1     -45.533 -53.676  15.578  1.00  0.00    -0.086 SA
ENDBRANCH   8  10
ENDBRANCH   7   8
ENDBRANCH   1   7
BRANCH   4  17
HETATM   17  C   UNL     1     -40.577 -50.125  12.451  1.00  0.00     0.095 C 
HETATM   18  C   UNL     1     -39.910 -49.275  13.542  1.00  0.00     0.027 C 
HETATM   19  C   UNL     1     -40.427 -47.840  13.649  1.00  0.00     0.012 C 
HETATM   20  C   UNL     1     -40.330 -47.049  12.350  1.00  0.00     0.074 C 
HETATM   21  S   UNL     1     -41.253 -47.839  11.002  1.00  0.00    -0.167 SA
HETATM   22  C   UNL     1     -40.453 -49.479  11.063  1.00  0.00     0.099 C 
ENDBRANCH   4  17
TORSDOF 4
ENDMDL
