MODEL 1
REMARK VINA RESULT:      -7.0      0.000      0.000
REMARK  8 active torsions:
REMARK  status: ('A' for Active; 'I' for Inactive)
REMARK    1  A    between atoms: N_1  and  C_12 
REMARK    2  A    between atoms: N_3  and  C_8 
REMARK    3  A    between atoms: N_5  and  C_20 
REMARK    4  A    between atoms: C_16  and  C_20 
REMARK    5  A    between atoms: C_19  and  C_28 
REMARK    6  A    between atoms: C_19  and  C_29 
REMARK    7  A    between atoms: C_28  and  O_30 
REMARK    8  A    between atoms: C_29  and  O_31 
ROOT
HETATM    1  N   UNL     1     -40.549 -51.629  12.703  1.00  0.00    -0.322 N 
HETATM    2  C   UNL     1     -40.960 -49.691  11.795  1.00  0.00     0.122 A 
HETATM    3  C   UNL     1     -39.916 -50.492  12.254  1.00  0.00     0.140 A 
HETATM    4  N   UNL     1     -42.182 -50.323  11.940  1.00  0.00    -0.346 N 
ATOM      5  HN  UNL     1     -43.101 -49.973  11.669  1.00  0.00     0.167 HD
HETATM    6  C   UNL     1     -40.653 -48.406  11.284  1.00  0.00     0.137 A 
HETATM    7  C   UNL     1     -41.897 -51.469  12.502  1.00  0.00     0.185 A 
HETATM    8  N   UNL     1     -38.610 -50.176  12.254  1.00  0.00    -0.336 N 
ATOM      9  HN  UNL     1     -37.865 -50.785  12.592  1.00  0.00     0.168 HD
HETATM   10  N   UNL     1     -39.339 -48.056  11.274  1.00  0.00    -0.337 N 
ATOM     11  HN  UNL     1     -39.050 -47.145  10.918  1.00  0.00     0.168 HD
HETATM   12  C   UNL     1     -38.419 -48.937  11.743  1.00  0.00     0.183 A 
ENDROOT
BRANCH   6  13
HETATM   13  N   UNL     1     -41.617 -47.523  10.857  1.00  0.00    -0.340 N 
HETATM   14  C   UNL     1     -42.532 -47.856   9.789  1.00  0.00     0.254 C 
HETATM   15  N   UNL     1     -43.308 -46.656   9.655  1.00  0.00    -0.326 N 
HETATM   16  C   UNL     1     -42.696 -45.563  10.249  1.00  0.00     0.239 C 
HETATM   17  C   UNL     1     -41.480 -46.082  11.008  1.00  0.00     0.229 C 
HETATM   18  O   UNL     1     -43.067 -44.402  10.153  1.00  0.00    -0.271 OA
BRANCH  15  19
HETATM   19  C   UNL     1     -44.371 -46.530   8.661  1.00  0.00     0.245 C 
BRANCH  19  20
HETATM   20  C   UNL     1     -45.600 -47.420   8.876  1.00  0.00     0.403 C 
HETATM   21  F   UNL     1     -45.617 -48.001  10.096  1.00  0.00    -0.169 F 
HETATM   22  F   UNL     1     -46.734 -46.683   8.774  1.00  0.00    -0.169 F 
HETATM   23  F   UNL     1     -45.676 -48.397   7.945  1.00  0.00    -0.169 F 
ENDBRANCH  19  20
ENDBRANCH  15  19
ENDBRANCH   6  13
BRANCH   1  24
HETATM   24  C   UNL     1     -40.070 -52.831  13.322  1.00  0.00     0.094 C 
HETATM   25  C   UNL     1     -41.143 -53.754  13.961  1.00  0.00     0.039 C 
HETATM   26  C   UNL     1     -40.011 -54.216  14.954  1.00  0.00     0.006 C 
HETATM   27  C   UNL     1     -39.480 -52.743  14.757  1.00  0.00     0.039 C 
BRANCH  26  28
HETATM   28  C   UNL     1     -40.463 -54.545  16.374  1.00  0.00     0.175 C 
BRANCH  28  29
HETATM   29  O   UNL     1     -40.749 -55.939  16.469  1.00  0.00    -0.400 OA
HETATM   30  H   UNL     1     -40.242 -56.282  17.229  1.00  0.00     0.209 HD
ENDBRANCH  28  29
ENDBRANCH  26  28
BRANCH  26  31
HETATM   31  C   UNL     1     -39.051 -55.306  14.431  1.00  0.00     0.175 C 
BRANCH  31  32
HETATM   32  O   UNL     1     -38.183 -55.734  15.473  1.00  0.00    -0.400 OA
HETATM   33  H   UNL     1     -37.981 -54.940  16.010  1.00  0.00     0.209 HD
ENDBRANCH  31  32
ENDBRANCH  26  31
ENDBRANCH   1  24
TORSDOF 8
ENDMDL
MODEL 2
REMARK VINA RESULT:      -6.7      3.293      4.025
REMARK  8 active torsions:
REMARK  status: ('A' for Active; 'I' for Inactive)
REMARK    1  A    between atoms: N_1  and  C_12 
REMARK    2  A    between atoms: N_3  and  C_8 
REMARK    3  A    between atoms: N_5  and  C_20 
REMARK    4  A    between atoms: C_16  and  C_20 
REMARK    5  A    between atoms: C_19  and  C_28 
REMARK    6  A    between atoms: C_19  and  C_29 
REMARK    7  A    between atoms: C_28  and  O_30 
REMARK    8  A    between atoms: C_29  and  O_31 
ROOT
HETATM    1  N   UNL     1     -42.602 -51.148  12.875  1.00  0.00    -0.322 N 
HETATM    2  C   UNL     1     -42.121 -49.293  11.836  1.00  0.00     0.122 A 
HETATM    3  C   UNL     1     -41.577 -50.524  12.201  1.00  0.00     0.140 A 
HETATM    4  N   UNL     1     -43.435 -49.180  12.253  1.00  0.00    -0.346 N 
ATOM      5  HN  UNL     1     -44.072 -48.397  12.101  1.00  0.00     0.167 HD
HETATM    6  C   UNL     1     -41.303 -48.371  11.139  1.00  0.00     0.137 A 
HETATM    7  C   UNL     1     -43.680 -50.299  12.884  1.00  0.00     0.185 A 
HETATM    8  N   UNL     1     -40.328 -50.948  11.948  1.00  0.00    -0.336 N 
ATOM      9  HN  UNL     1     -39.957 -51.858  12.224  1.00  0.00     0.168 HD
HETATM   10  N   UNL     1     -40.031 -48.772  10.870  1.00  0.00    -0.337 N 
ATOM     11  HN  UNL     1     -39.389 -48.156  10.371  1.00  0.00     0.168 HD
HETATM   12  C   UNL     1     -39.629 -50.004  11.276  1.00  0.00     0.183 A 
ENDROOT
BRANCH   6  13
HETATM   13  N   UNL     1     -41.732 -47.115  10.782  1.00  0.00    -0.340 N 
HETATM   14  C   UNL     1     -41.618 -45.989  11.681  1.00  0.00     0.254 C 
HETATM   15  N   UNL     1     -42.215 -44.924  10.928  1.00  0.00    -0.326 N 
HETATM   16  C   UNL     1     -42.989 -45.390   9.876  1.00  0.00     0.239 C 
HETATM   17  C   UNL     1     -42.772 -46.896   9.787  1.00  0.00     0.229 C 
HETATM   18  O   UNL     1     -43.721 -44.707   9.175  1.00  0.00    -0.271 OA
BRANCH  15  19
HETATM   19  C   UNL     1     -42.333 -43.570  11.463  1.00  0.00     0.245 C 
BRANCH  19  20
HETATM   20  C   UNL     1     -41.040 -42.748  11.504  1.00  0.00     0.403 C 
HETATM   21  F   UNL     1     -40.411 -42.823  12.698  1.00  0.00    -0.169 F 
HETATM   22  F   UNL     1     -40.167 -43.202  10.569  1.00  0.00    -0.169 F 
HETATM   23  F   UNL     1     -41.270 -41.444  11.233  1.00  0.00    -0.169 F 
ENDBRANCH  19  20
ENDBRANCH  15  19
ENDBRANCH   6  13
BRANCH   1  24
HETATM   24  C   UNL     1     -42.704 -52.417  13.536  1.00  0.00     0.094 C 
HETATM   25  C   UNL     1     -43.687 -53.444  12.914  1.00  0.00     0.039 C 
HETATM   26  C   UNL     1     -43.851 -54.020  14.371  1.00  0.00     0.006 C 
HETATM   27  C   UNL     1     -43.599 -52.523  14.803  1.00  0.00     0.039 C 
BRANCH  26  28
HETATM   28  C   UNL     1     -45.235 -54.559  14.723  1.00  0.00     0.175 C 
BRANCH  28  29
HETATM   29  O   UNL     1     -45.500 -55.726  13.946  1.00  0.00    -0.400 OA
HETATM   30  H   UNL     1     -46.386 -56.043  14.202  1.00  0.00     0.209 HD
ENDBRANCH  28  29
ENDBRANCH  26  28
BRANCH  26  31
HETATM   31  C   UNL     1     -42.757 -55.003  14.841  1.00  0.00     0.175 C 
BRANCH  31  32
HETATM   32  O   UNL     1     -43.289 -55.901  15.807  1.00  0.00    -0.400 OA
HETATM   33  H   UNL     1     -43.753 -56.604  15.308  1.00  0.00     0.209 HD
ENDBRANCH  31  32
ENDBRANCH  26  31
ENDBRANCH   1  24
TORSDOF 8
ENDMDL
MODEL 3
REMARK VINA RESULT:      -6.7      3.847      7.993
REMARK  8 active torsions:
REMARK  status: ('A' for Active; 'I' for Inactive)
REMARK    1  A    between atoms: N_1  and  C_12 
REMARK    2  A    between atoms: N_3  and  C_8 
REMARK    3  A    between atoms: N_5  and  C_20 
REMARK    4  A    between atoms: C_16  and  C_20 
REMARK    5  A    between atoms: C_19  and  C_28 
REMARK    6  A    between atoms: C_19  and  C_29 
REMARK    7  A    between atoms: C_28  and  O_30 
REMARK    8  A    between atoms: C_29  and  O_31 
ROOT
HETATM    1  N   UNL     1     -41.750 -48.569  11.924  1.00  0.00    -0.322 N 
HETATM    2  C   UNL     1     -42.624 -50.465  12.550  1.00  0.00     0.122 A 
HETATM    3  C   UNL     1     -41.523 -49.926  11.886  1.00  0.00     0.140 A 
HETATM    4  N   UNL     1     -43.479 -49.473  12.994  1.00  0.00    -0.346 N 
ATOM      5  HN  UNL     1     -44.344 -49.587  13.523  1.00  0.00     0.167 HD
HETATM    6  C   UNL     1     -42.722 -51.873  12.663  1.00  0.00     0.137 A 
HETATM    7  C   UNL     1     -42.933 -48.357  12.586  1.00  0.00     0.185 A 
HETATM    8  N   UNL     1     -40.509 -50.615  11.336  1.00  0.00    -0.336 N 
ATOM      9  HN  UNL     1     -39.712 -50.192  10.858  1.00  0.00     0.168 HD
HETATM   10  N   UNL     1     -41.712 -52.598  12.113  1.00  0.00    -0.337 N 
ATOM     11  HN  UNL     1     -41.721 -53.617  12.160  1.00  0.00     0.168 HD
HETATM   12  C   UNL     1     -40.691 -51.946  11.501  1.00  0.00     0.183 A 
ENDROOT
BRANCH   6  13
HETATM   13  N   UNL     1     -43.794 -52.500  13.254  1.00  0.00    -0.340 N 
HETATM   14  C   UNL     1     -44.413 -51.981  14.452  1.00  0.00     0.254 C 
HETATM   15  N   UNL     1     -45.431 -52.954  14.727  1.00  0.00    -0.326 N 
HETATM   16  C   UNL     1     -45.216 -54.148  14.054  1.00  0.00     0.239 C 
HETATM   17  C   UNL     1     -44.048 -53.926  13.100  1.00  0.00     0.229 C 
HETATM   18  O   UNL     1     -45.845 -55.182  14.224  1.00  0.00    -0.271 OA
BRANCH  15  19
HETATM   19  C   UNL     1     -46.317 -52.840  15.882  1.00  0.00     0.245 C 
BRANCH  19  20
HETATM   20  C   UNL     1     -47.093 -51.524  16.007  1.00  0.00     0.403 C 
HETATM   21  F   UNL     1     -46.392 -50.565  16.652  1.00  0.00    -0.169 F 
HETATM   22  F   UNL     1     -47.389 -51.036  14.776  1.00  0.00    -0.169 F 
HETATM   23  F   UNL     1     -48.264 -51.696  16.659  1.00  0.00    -0.169 F 
ENDBRANCH  19  20
ENDBRANCH  15  19
ENDBRANCH   6  13
BRANCH   1  24
HETATM   24  C   UNL     1     -41.029 -47.444  11.402  1.00  0.00     0.094 C 
HETATM   25  C   UNL     1     -40.861 -46.229  12.353  1.00  0.00     0.039 C 
HETATM   26  C   UNL     1     -40.811 -45.343  11.050  1.00  0.00     0.006 C 
HETATM   27  C   UNL     1     -41.779 -46.449  10.473  1.00  0.00     0.039 C 
BRANCH  26  28
HETATM   28  C   UNL     1     -41.429 -43.953  11.165  1.00  0.00     0.175 C 
BRANCH  28  29
HETATM   29  O   UNL     1     -40.510 -42.984  10.666  1.00  0.00    -0.400 OA
HETATM   30  H   UNL     1     -40.955 -42.117  10.717  1.00  0.00     0.209 HD
ENDBRANCH  28  29
ENDBRANCH  26  28
BRANCH  26  31
HETATM   31  C   UNL     1     -39.446 -45.266  10.332  1.00  0.00     0.175 C 
BRANCH  31  32
HETATM   32  O   UNL     1     -39.629 -44.889   8.973  1.00  0.00    -0.400 OA
HETATM   33  H   UNL     1     -40.264 -45.529   8.591  1.00  0.00     0.209 HD
ENDBRANCH  31  32
ENDBRANCH  26  31
ENDBRANCH   1  24
TORSDOF 8
ENDMDL
MODEL 4
REMARK VINA RESULT:      -6.5      3.761      4.599
REMARK  8 active torsions:
REMARK  status: ('A' for Active; 'I' for Inactive)
REMARK    1  A    between atoms: N_1  and  C_12 
REMARK    2  A    between atoms: N_3  and  C_8 
REMARK    3  A    between atoms: N_5  and  C_20 
REMARK    4  A    between atoms: C_16  and  C_20 
REMARK    5  A    between atoms: C_19  and  C_28 
REMARK    6  A    between atoms: C_19  and  C_29 
REMARK    7  A    between atoms: C_28  and  O_30 
REMARK    8  A    between atoms: C_29  and  O_31 
ROOT
HETATM    1  N   UNL     1     -38.669 -48.344  14.915  1.00  0.00    -0.322 N 
HETATM    2  C   UNL     1     -39.805 -48.085  13.074  1.00  0.00     0.122 A 
HETATM    3  C   UNL     1     -38.719 -48.776  13.610  1.00  0.00     0.140 A 
HETATM    4  N   UNL     1     -40.406 -47.278  14.023  1.00  0.00    -0.346 N 
ATOM      5  HN  UNL     1     -41.227 -46.683  13.905  1.00  0.00     0.167 HD
HETATM    6  C   UNL     1     -40.123 -48.278  11.707  1.00  0.00     0.137 A 
HETATM    7  C   UNL     1     -39.689 -47.446  15.103  1.00  0.00     0.185 A 
HETATM    8  N   UNL     1     -37.925 -49.640  12.956  1.00  0.00    -0.336 N 
ATOM      9  HN  UNL     1     -37.138 -50.136  13.376  1.00  0.00     0.168 HD
HETATM   10  N   UNL     1     -39.334 -49.146  11.018  1.00  0.00    -0.337 N 
ATOM     11  HN  UNL     1     -39.508 -49.330  10.030  1.00  0.00     0.168 HD
HETATM   12  C   UNL     1     -38.311 -49.762  11.665  1.00  0.00     0.183 A 
ENDROOT
BRANCH   6  13
HETATM   13  N   UNL     1     -41.141 -47.604  11.075  1.00  0.00    -0.340 N 
HETATM   14  C   UNL     1     -41.897 -48.205  10.000  1.00  0.00     0.254 C 
HETATM   15  N   UNL     1     -42.798 -47.152   9.624  1.00  0.00    -0.326 N 
HETATM   16  C   UNL     1     -42.388 -45.914  10.093  1.00  0.00     0.239 C 
HETATM   17  C   UNL     1     -41.198 -46.150  11.017  1.00  0.00     0.229 C 
HETATM   18  O   UNL     1     -42.887 -44.839   9.793  1.00  0.00    -0.271 OA
BRANCH  15  19
HETATM   19  C   UNL     1     -43.764 -47.313   8.541  1.00  0.00     0.245 C 
BRANCH  19  20
HETATM   20  C   UNL     1     -45.225 -47.500   8.966  1.00  0.00     0.403 C 
HETATM   21  F   UNL     1     -45.952 -46.367   8.847  1.00  0.00    -0.169 F 
HETATM   22  F   UNL     1     -45.823 -48.435   8.186  1.00  0.00    -0.169 F 
HETATM   23  F   UNL     1     -45.321 -47.927  10.244  1.00  0.00    -0.169 F 
ENDBRANCH  19  20
ENDBRANCH  15  19
ENDBRANCH   6  13
BRANCH   1  24
HETATM   24  C   UNL     1     -37.780 -48.633  16.004  1.00  0.00     0.094 C 
HETATM   25  C   UNL     1     -37.904 -47.723  17.256  1.00  0.00     0.039 C 
HETATM   26  C   UNL     1     -36.377 -48.025  17.503  1.00  0.00     0.006 C 
HETATM   27  C   UNL     1     -36.319 -48.108  15.927  1.00  0.00     0.039 C 
BRANCH  26  28
HETATM   28  C   UNL     1     -35.562 -46.886  18.111  1.00  0.00     0.175 C 
BRANCH  28  29
HETATM   29  O   UNL     1     -34.183 -47.249  18.130  1.00  0.00    -0.400 OA
HETATM   30  H   UNL     1     -33.798 -46.950  17.285  1.00  0.00     0.209 HD
ENDBRANCH  28  29
ENDBRANCH  26  28
BRANCH  26  31
HETATM   31  C   UNL     1     -36.053 -49.356  18.215  1.00  0.00     0.175 C 
BRANCH  31  32
HETATM   32  O   UNL     1     -34.807 -49.865  17.756  1.00  0.00    -0.400 OA
HETATM   33  H   UNL     1     -34.141 -49.618  18.430  1.00  0.00     0.209 HD
ENDBRANCH  31  32
ENDBRANCH  26  31
ENDBRANCH   1  24
TORSDOF 8
ENDMDL
MODEL 5
REMARK VINA RESULT:      -6.2      3.824      9.038
REMARK  8 active torsions:
REMARK  status: ('A' for Active; 'I' for Inactive)
REMARK    1  A    between atoms: N_1  and  C_12 
REMARK    2  A    between atoms: N_3  and  C_8 
REMARK    3  A    between atoms: N_5  and  C_20 
REMARK    4  A    between atoms: C_16  and  C_20 
REMARK    5  A    between atoms: C_19  and  C_28 
REMARK    6  A    between atoms: C_19  and  C_29 
REMARK    7  A    between atoms: C_28  and  O_30 
REMARK    8  A    between atoms: C_29  and  O_31 
ROOT
HETATM    1  N   UNL     1     -41.282 -45.045  11.470  1.00  0.00    -0.322 N 
HETATM    2  C   UNL     1     -41.183 -47.220  11.386  1.00  0.00     0.122 A 
HETATM    3  C   UNL     1     -41.720 -46.116  10.726  1.00  0.00     0.140 A 
HETATM    4  N   UNL     1     -40.430 -46.835  12.480  1.00  0.00    -0.346 N 
ATOM      5  HN  UNL     1     -39.913 -47.436  13.123  1.00  0.00     0.167 HD
HETATM    6  C   UNL     1     -41.473 -48.513  10.888  1.00  0.00     0.137 A 
HETATM    7  C   UNL     1     -40.528 -45.532  12.508  1.00  0.00     0.185 A 
HETATM    8  N   UNL     1     -42.495 -46.143   9.629  1.00  0.00    -0.336 N 
ATOM      9  HN  UNL     1     -42.871 -45.317   9.163  1.00  0.00     0.168 HD
HETATM   10  N   UNL     1     -42.259 -48.574   9.779  1.00  0.00    -0.337 N 
ATOM     11  HN  UNL     1     -42.506 -49.474   9.369  1.00  0.00     0.168 HD
HETATM   12  C   UNL     1     -42.709 -47.418   9.227  1.00  0.00     0.183 A 
ENDROOT
BRANCH   6  13
HETATM   13  N   UNL     1     -41.034 -49.664  11.499  1.00  0.00    -0.340 N 
HETATM   14  C   UNL     1     -41.847 -50.370  12.463  1.00  0.00     0.254 C 
HETATM   15  N   UNL     1     -40.995 -51.454  12.860  1.00  0.00    -0.326 N 
HETATM   16  C   UNL     1     -39.668 -51.231  12.525  1.00  0.00     0.239 C 
HETATM   17  C   UNL     1     -39.621 -49.968  11.673  1.00  0.00     0.229 C 
HETATM   18  O   UNL     1     -38.721 -51.920  12.877  1.00  0.00    -0.271 OA
BRANCH  15  19
HETATM   19  C   UNL     1     -41.410 -52.440  13.854  1.00  0.00     0.245 C 
BRANCH  19  20
HETATM   20  C   UNL     1     -41.815 -53.814  13.309  1.00  0.00     0.403 C 
HETATM   21  F   UNL     1     -40.868 -54.361  12.514  1.00  0.00    -0.169 F 
HETATM   22  F   UNL     1     -42.020 -54.681  14.331  1.00  0.00    -0.169 F 
HETATM   23  F   UNL     1     -42.967 -53.750  12.604  1.00  0.00    -0.169 F 
ENDBRANCH  19  20
ENDBRANCH  15  19
ENDBRANCH   6  13
BRANCH   1  24
HETATM   24  C   UNL     1     -41.495 -43.630  11.364  1.00  0.00     0.094 C 
HETATM   25  C   UNL     1     -40.421 -42.718  12.015  1.00  0.00     0.039 C 
HETATM   26  C   UNL     1     -41.578 -41.667  12.215  1.00  0.00     0.006 C 
HETATM   27  C   UNL     1     -42.484 -42.953  12.354  1.00  0.00     0.039 C 
BRANCH  26  28
HETATM   28  C   UNL     1     -41.491 -40.811  13.476  1.00  0.00     0.175 C 
BRANCH  28  29
HETATM   29  O   UNL     1     -42.362 -39.689  13.347  1.00  0.00    -0.400 OA
HETATM   30  H   UNL     1     -42.915 -39.848  12.559  1.00  0.00     0.209 HD
ENDBRANCH  28  29
ENDBRANCH  26  28
BRANCH  26  31
HETATM   31  C   UNL     1     -41.918 -40.788  10.992  1.00  0.00     0.175 C 
BRANCH  31  32
HETATM   32  O   UNL     1     -40.992 -39.713  10.890  1.00  0.00    -0.400 OA
HETATM   33  H   UNL     1     -40.518 -39.834  10.042  1.00  0.00     0.209 HD
ENDBRANCH  31  32
ENDBRANCH  26  31
ENDBRANCH   1  24
TORSDOF 8
ENDMDL
MODEL 6
REMARK VINA RESULT:      -6.1      5.464      6.777
REMARK  8 active torsions:
REMARK  status: ('A' for Active; 'I' for Inactive)
REMARK    1  A    between atoms: N_1  and  C_12 
REMARK    2  A    between atoms: N_3  and  C_8 
REMARK    3  A    between atoms: N_5  and  C_20 
REMARK    4  A    between atoms: C_16  and  C_20 
REMARK    5  A    between atoms: C_19  and  C_28 
REMARK    6  A    between atoms: C_19  and  C_29 
REMARK    7  A    between atoms: C_28  and  O_30 
REMARK    8  A    between atoms: C_29  and  O_31 
ROOT
HETATM    1  N   UNL     1     -39.241 -51.362  15.491  1.00  0.00    -0.322 N 
HETATM    2  C   UNL     1     -41.090 -52.175  14.671  1.00  0.00     0.122 A 
HETATM    3  C   UNL     1     -39.728 -52.448  14.800  1.00  0.00     0.140 A 
HETATM    4  N   UNL     1     -41.423 -50.978  15.279  1.00  0.00    -0.346 N 
ATOM      5  HN  UNL     1     -42.348 -50.552  15.351  1.00  0.00     0.167 HD
HETATM    6  C   UNL     1     -41.901 -53.097  13.965  1.00  0.00     0.137 A 
HETATM    7  C   UNL     1     -40.291 -50.515  15.741  1.00  0.00     0.185 A 
HETATM    8  N   UNL     1     -39.084 -53.526  14.324  1.00  0.00    -0.336 N 
ATOM      9  HN  UNL     1     -38.086 -53.703  14.437  1.00  0.00     0.168 HD
HETATM   10  N   UNL     1     -41.276 -54.198  13.469  1.00  0.00    -0.337 N 
ATOM     11  HN  UNL     1     -41.802 -54.902  12.951  1.00  0.00     0.168 HD
HETATM   12  C   UNL     1     -39.942 -54.347  13.674  1.00  0.00     0.183 A 
ENDROOT
BRANCH   6  13
HETATM   13  N   UNL     1     -43.242 -52.891  13.740  1.00  0.00    -0.340 N 
HETATM   14  C   UNL     1     -44.225 -53.082  14.783  1.00  0.00     0.254 C 
HETATM   15  N   UNL     1     -45.459 -52.806  14.105  1.00  0.00    -0.326 N 
HETATM   16  C   UNL     1     -45.326 -52.856  12.725  1.00  0.00     0.239 C 
HETATM   17  C   UNL     1     -43.840 -53.008  12.419  1.00  0.00     0.229 C 
HETATM   18  O   UNL     1     -46.245 -52.807  11.921  1.00  0.00    -0.271 OA
BRANCH  15  19
HETATM   19  C   UNL     1     -46.749 -52.891  14.783  1.00  0.00     0.245 C 
BRANCH  19  20
HETATM   20  C   UNL     1     -46.956 -51.928  15.957  1.00  0.00     0.403 C 
HETATM   21  F   UNL     1     -46.490 -52.421  17.126  1.00  0.00    -0.169 F 
HETATM   22  F   UNL     1     -46.297 -50.764  15.730  1.00  0.00    -0.169 F 
HETATM   23  F   UNL     1     -48.261 -51.619  16.125  1.00  0.00    -0.169 F 
ENDBRANCH  19  20
ENDBRANCH  15  19
ENDBRANCH   6  13
BRANCH   1  24
HETATM   24  C   UNL     1     -37.925 -50.994  15.925  1.00  0.00     0.094 C 
HETATM   25  C   UNL     1     -37.839 -49.878  17.001  1.00  0.00     0.039 C 
HETATM   26  C   UNL     1     -36.433 -49.528  16.383  1.00  0.00     0.006 C 
HETATM   27  C   UNL     1     -37.097 -50.022  15.039  1.00  0.00     0.039 C 
BRANCH  26  28
HETATM   28  C   UNL     1     -36.048 -48.050  16.397  1.00  0.00     0.175 C 
BRANCH  28  29
HETATM   29  O   UNL     1     -34.632 -47.930  16.284  1.00  0.00    -0.400 OA
HETATM   30  H   UNL     1     -34.356 -47.226  16.901  1.00  0.00     0.209 HD
ENDBRANCH  28  29
ENDBRANCH  26  28
BRANCH  26  31
HETATM   31  C   UNL     1     -35.247 -50.396  16.855  1.00  0.00     0.175 C 
BRANCH  31  32
HETATM   32  O   UNL     1     -34.771 -49.931  18.112  1.00  0.00    -0.400 OA
HETATM   33  H   UNL     1     -34.237 -49.131  17.929  1.00  0.00     0.209 HD
ENDBRANCH  31  32
ENDBRANCH  26  31
ENDBRANCH   1  24
TORSDOF 8
ENDMDL
MODEL 7
REMARK VINA RESULT:      -6.0      3.465      7.988
REMARK  8 active torsions:
REMARK  status: ('A' for Active; 'I' for Inactive)
REMARK    1  A    between atoms: N_1  and  C_12 
REMARK    2  A    between atoms: N_3  and  C_8 
REMARK    3  A    between atoms: N_5  and  C_20 
REMARK    4  A    between atoms: C_16  and  C_20 
REMARK    5  A    between atoms: C_19  and  C_28 
REMARK    6  A    between atoms: C_19  and  C_29 
REMARK    7  A    between atoms: C_28  and  O_30 
REMARK    8  A    between atoms: C_29  and  O_31 
ROOT
HETATM    1  N   UNL     1     -41.425 -47.794  13.287  1.00  0.00    -0.322 N 
HETATM    2  C   UNL     1     -41.649 -49.948  13.043  1.00  0.00     0.122 A 
HETATM    3  C   UNL     1     -41.048 -48.831  12.465  1.00  0.00     0.140 A 
HETATM    4  N   UNL     1     -42.350 -49.608  14.187  1.00  0.00    -0.346 N 
ATOM      5  HN  UNL     1     -42.864 -50.230  14.811  1.00  0.00     0.167 HD
HETATM    6  C   UNL     1     -41.485 -51.206  12.415  1.00  0.00     0.137 A 
HETATM    7  C   UNL     1     -42.207 -48.312  14.289  1.00  0.00     0.185 A 
HETATM    8  N   UNL     1     -40.297 -48.819  11.351  1.00  0.00    -0.336 N 
ATOM      9  HN  UNL     1     -39.865 -47.985  10.952  1.00  0.00     0.168 HD
HETATM   10  N   UNL     1     -40.733 -51.225  11.283  1.00  0.00    -0.337 N 
ATOM     11  HN  UNL     1     -40.575 -52.099  10.781  1.00  0.00     0.168 HD
HETATM   12  C   UNL     1     -40.194 -50.064  10.830  1.00  0.00     0.183 A 
ENDROOT
BRANCH   6  13
HETATM   13  N   UNL     1     -42.081 -52.355  12.879  1.00  0.00    -0.340 N 
HETATM   14  C   UNL     1     -43.486 -52.621  12.668  1.00  0.00     0.254 C 
HETATM   15  N   UNL     1     -43.674 -53.874  13.342  1.00  0.00    -0.326 N 
HETATM   16  C   UNL     1     -42.643 -54.157  14.226  1.00  0.00     0.239 C 
HETATM   17  C   UNL     1     -41.567 -53.098  14.021  1.00  0.00     0.229 C 
HETATM   18  O   UNL     1     -42.629 -55.079  15.028  1.00  0.00    -0.271 OA
BRANCH  15  19
HETATM   19  C   UNL     1     -44.976 -54.532  13.401  1.00  0.00     0.245 C 
BRANCH  19  20
HETATM   20  C   UNL     1     -46.006 -53.904  14.346  1.00  0.00     0.403 C 
HETATM   21  F   UNL     1     -45.435 -53.285  15.403  1.00  0.00    -0.169 F 
HETATM   22  F   UNL     1     -46.735 -52.968  13.688  1.00  0.00    -0.169 F 
HETATM   23  F   UNL     1     -46.875 -54.824  14.819  1.00  0.00    -0.169 F 
ENDBRANCH  19  20
ENDBRANCH  15  19
ENDBRANCH   6  13
BRANCH   1  24
HETATM   24  C   UNL     1     -41.179 -46.381  13.250  1.00  0.00     0.094 C 
HETATM   25  C   UNL     1     -41.777 -45.608  12.043  1.00  0.00     0.039 C 
HETATM   26  C   UNL     1     -40.581 -44.599  12.225  1.00  0.00     0.006 C 
HETATM   27  C   UNL     1     -39.805 -45.881  12.723  1.00  0.00     0.039 C 
BRANCH  26  28
HETATM   28  C   UNL     1     -40.030 -43.980  10.943  1.00  0.00     0.175 C 
BRANCH  28  29
HETATM   29  O   UNL     1     -40.697 -42.746  10.689  1.00  0.00    -0.400 OA
HETATM   30  H   UNL     1     -41.578 -42.808  11.104  1.00  0.00     0.209 HD
ENDBRANCH  28  29
ENDBRANCH  26  28
BRANCH  26  31
HETATM   31  C   UNL     1     -40.764 -43.514  13.309  1.00  0.00     0.175 C 
BRANCH  31  32
HETATM   32  O   UNL     1     -39.606 -42.692  13.377  1.00  0.00    -0.400 OA
HETATM   33  H   UNL     1     -39.733 -41.977  12.720  1.00  0.00     0.209 HD
ENDBRANCH  31  32
ENDBRANCH  26  31
ENDBRANCH   1  24
TORSDOF 8
ENDMDL
MODEL 8
REMARK VINA RESULT:      -6.0      5.088      9.720
REMARK  8 active torsions:
REMARK  status: ('A' for Active; 'I' for Inactive)
REMARK    1  A    between atoms: N_1  and  C_12 
REMARK    2  A    between atoms: N_3  and  C_8 
REMARK    3  A    between atoms: N_5  and  C_20 
REMARK    4  A    between atoms: C_16  and  C_20 
REMARK    5  A    between atoms: C_19  and  C_28 
REMARK    6  A    between atoms: C_19  and  C_29 
REMARK    7  A    between atoms: C_28  and  O_30 
REMARK    8  A    between atoms: C_29  and  O_31 
ROOT
HETATM    1  N   UNL     1     -41.678 -50.441  12.455  1.00  0.00    -0.322 N 
HETATM    2  C   UNL     1     -41.322 -52.365  13.415  1.00  0.00     0.122 A 
HETATM    3  C   UNL     1     -42.263 -51.670  12.656  1.00  0.00     0.140 A 
HETATM    4  N   UNL     1     -40.197 -51.595  13.650  1.00  0.00    -0.346 N 
ATOM      5  HN  UNL     1     -39.354 -51.863  14.158  1.00  0.00     0.167 HD
HETATM    6  C   UNL     1     -41.628 -53.683  13.831  1.00  0.00     0.137 A 
HETATM    7  C   UNL     1     -40.455 -50.448  13.077  1.00  0.00     0.185 A 
HETATM    8  N   UNL     1     -43.459 -52.132  12.254  1.00  0.00    -0.336 N 
ATOM      9  HN  UNL     1     -44.127 -51.602  11.694  1.00  0.00     0.168 HD
HETATM   10  N   UNL     1     -42.834 -54.177  13.442  1.00  0.00    -0.337 N 
ATOM     11  HN  UNL     1     -43.117 -55.121  13.708  1.00  0.00     0.168 HD
HETATM   12  C   UNL     1     -43.656 -53.397  12.694  1.00  0.00     0.183 A 
ENDROOT
BRANCH   6  13
HETATM   13  N   UNL     1     -40.789 -54.429  14.624  1.00  0.00    -0.340 N 
HETATM   14  C   UNL     1     -41.008 -54.564  16.047  1.00  0.00     0.254 C 
HETATM   15  N   UNL     1     -39.895 -55.369  16.461  1.00  0.00    -0.326 N 
HETATM   16  C   UNL     1     -38.876 -55.385  15.521  1.00  0.00     0.239 C 
HETATM   17  C   UNL     1     -39.396 -54.674  14.277  1.00  0.00     0.229 C 
HETATM   18  O   UNL     1     -37.765 -55.867  15.686  1.00  0.00    -0.271 OA
BRANCH  15  19
HETATM   19  C   UNL     1     -39.697 -55.753  17.856  1.00  0.00     0.245 C 
BRANCH  19  20
HETATM   20  C   UNL     1     -39.991 -57.218  18.198  1.00  0.00     0.403 C 
HETATM   21  F   UNL     1     -38.988 -57.804  18.890  1.00  0.00    -0.169 F 
HETATM   22  F   UNL     1     -41.104 -57.305  18.968  1.00  0.00    -0.169 F 
HETATM   23  F   UNL     1     -40.218 -57.953  17.087  1.00  0.00    -0.169 F 
ENDBRANCH  19  20
ENDBRANCH  15  19
ENDBRANCH   6  13
BRANCH   1  24
HETATM   24  C   UNL     1     -42.117 -49.250  11.787  1.00  0.00     0.094 C 
HETATM   25  C   UNL     1     -41.159 -48.667  10.713  1.00  0.00     0.039 C 
HETATM   26  C   UNL     1     -41.782 -47.263  11.063  1.00  0.00     0.006 C 
HETATM   27  C   UNL     1     -41.931 -47.885  12.507  1.00  0.00     0.039 C 
BRANCH  26  28
HETATM   28  C   UNL     1     -40.831 -46.072  10.979  1.00  0.00     0.175 C 
BRANCH  28  29
HETATM   29  O   UNL     1     -40.821 -45.569   9.644  1.00  0.00    -0.400 OA
HETATM   30  H   UNL     1     -41.280 -46.226   9.089  1.00  0.00     0.209 HD
ENDBRANCH  28  29
ENDBRANCH  26  28
BRANCH  26  31
HETATM   31  C   UNL     1     -43.126 -46.926  10.382  1.00  0.00     0.175 C 
BRANCH  31  32
HETATM   32  O   UNL     1     -43.388 -45.531  10.482  1.00  0.00    -0.400 OA
HETATM   33  H   UNL     1     -42.789 -45.089   9.847  1.00  0.00     0.209 HD
ENDBRANCH  31  32
ENDBRANCH  26  31
ENDBRANCH   1  24
TORSDOF 8
ENDMDL
MODEL 9
REMARK VINA RESULT:      -6.0      3.704      4.420
REMARK  8 active torsions:
REMARK  status: ('A' for Active; 'I' for Inactive)
REMARK    1  A    between atoms: N_1  and  C_12 
REMARK    2  A    between atoms: N_3  and  C_8 
REMARK    3  A    between atoms: N_5  and  C_20 
REMARK    4  A    between atoms: C_16  and  C_20 
REMARK    5  A    between atoms: C_19  and  C_28 
REMARK    6  A    between atoms: C_19  and  C_29 
REMARK    7  A    between atoms: C_28  and  O_30 
REMARK    8  A    between atoms: C_29  and  O_31 
ROOT
HETATM    1  N   UNL     1     -42.957 -50.679  13.005  1.00  0.00    -0.322 N 
HETATM    2  C   UNL     1     -41.842 -48.863  12.545  1.00  0.00     0.122 A 
HETATM    3  C   UNL     1     -41.874 -50.232  12.282  1.00  0.00     0.140 A 
HETATM    4  N   UNL     1     -42.879 -48.486  13.380  1.00  0.00    -0.346 N 
ATOM      5  HN  UNL     1     -43.100 -47.548  13.713  1.00  0.00     0.167 HD
HETATM    6  C   UNL     1     -40.807 -48.088  11.968  1.00  0.00     0.137 A 
HETATM    7  C   UNL     1     -43.510 -49.600  13.647  1.00  0.00     0.185 A 
HETATM    8  N   UNL     1     -41.013 -50.915  11.510  1.00  0.00    -0.336 N 
ATOM      9  HN  UNL     1     -41.063 -51.918  11.331  1.00  0.00     0.168 HD
HETATM   10  N   UNL     1     -39.917 -48.752  11.183  1.00  0.00    -0.337 N 
ATOM     11  HN  UNL     1     -39.148 -48.252  10.737  1.00  0.00     0.168 HD
HETATM   12  C   UNL     1     -40.069 -50.089  11.001  1.00  0.00     0.183 A 
ENDROOT
BRANCH   6  13
HETATM   13  N   UNL     1     -40.661 -46.742  12.209  1.00  0.00    -0.340 N 
HETATM   14  C   UNL     1     -41.226 -45.746  11.327  1.00  0.00     0.254 C 
HETATM   15  N   UNL     1     -40.798 -44.515  11.927  1.00  0.00    -0.326 N 
HETATM   16  C   UNL     1     -39.749 -44.698  12.816  1.00  0.00     0.239 C 
HETATM   17  C   UNL     1     -39.548 -46.201  12.976  1.00  0.00     0.229 C 
HETATM   18  O   UNL     1     -39.104 -43.806  13.346  1.00  0.00    -0.271 OA
BRANCH  15  19
HETATM   19  C   UNL     1     -41.135 -43.216  11.351  1.00  0.00     0.245 C 
BRANCH  19  20
HETATM   20  C   UNL     1     -42.579 -42.744  11.558  1.00  0.00     0.403 C 
HETATM   21  F   UNL     1     -43.148 -43.275  12.663  1.00  0.00    -0.169 F 
HETATM   22  F   UNL     1     -42.613 -41.396  11.706  1.00  0.00    -0.169 F 
HETATM   23  F   UNL     1     -43.359 -43.048  10.498  1.00  0.00    -0.169 F 
ENDBRANCH  19  20
ENDBRANCH  15  19
ENDBRANCH   6  13
BRANCH   1  24
HETATM   24  C   UNL     1     -43.528 -51.980  13.202  1.00  0.00     0.094 C 
HETATM   25  C   UNL     1     -45.051 -52.114  12.932  1.00  0.00     0.039 C 
HETATM   26  C   UNL     1     -45.036 -53.275  13.997  1.00  0.00     0.006 C 
HETATM   27  C   UNL     1     -43.878 -52.424  14.650  1.00  0.00     0.039 C 
BRANCH  26  28
HETATM   28  C   UNL     1     -46.291 -53.407  14.857  1.00  0.00     0.175 C 
BRANCH  28  29
HETATM   29  O   UNL     1     -47.040 -54.542  14.428  1.00  0.00    -0.400 OA
HETATM   30  H   UNL     1     -46.402 -55.184  14.066  1.00  0.00     0.209 HD
ENDBRANCH  28  29
ENDBRANCH  26  28
BRANCH  26  31
HETATM   31  C   UNL     1     -44.587 -54.662  13.487  1.00  0.00     0.175 C 
BRANCH  31  32
HETATM   32  O   UNL     1     -44.512 -55.580  14.570  1.00  0.00    -0.400 OA
HETATM   33  H   UNL     1     -44.088 -55.102  15.311  1.00  0.00     0.209 HD
ENDBRANCH  31  32
ENDBRANCH  26  31
ENDBRANCH   1  24
TORSDOF 8
ENDMDL
