MODEL 1
REMARK VINA RESULT:      -6.4      0.000      0.000
REMARK  6 active torsions:
REMARK  status: ('A' for Active; 'I' for Inactive)
REMARK    1  A    between atoms: N_4  and  C_5 
REMARK    2  A    between atoms: C_5  and  C_6 
REMARK    3  A    between atoms: C_6  and  O_9 
REMARK       I    between atoms: N_12  and  C_13 
REMARK       I    between atoms: C_13  and  N_15 
REMARK    4  A    between atoms: N_15  and  C_16 
REMARK    5  A    between atoms: C_16  and  C_17 
REMARK    6  A    between atoms: C_17  and  C_20 
ROOT
HETATM    1  C   UNL     1     -43.822 -47.445   9.987  1.00  0.00     0.034 C 
HETATM    2  C   UNL     1     -43.378 -47.696  11.433  1.00  0.00     0.113 C 
HETATM    3  C   UNL     1     -42.844 -46.392  12.097  1.00  0.00     0.297 C 
HETATM    4  N   UNL     1     -41.554 -45.917  11.520  1.00  0.00     0.095 N 
HETATM    5  C   UNL     1     -40.566 -47.020  11.626  1.00  0.00     0.292 C 
HETATM    6  C   UNL     1     -41.043 -48.335  10.981  1.00  0.00     0.158 C 
HETATM    7  N   UNL     1     -42.342 -48.752  11.497  1.00  0.00    -0.327 N 
HETATM    8  C   UNL     1     -42.379 -49.871  12.310  1.00  0.00     0.318 C 
HETATM    9  O   UNL     1     -41.382 -50.508  12.634  1.00  0.00    -0.247 OA
HETATM   10  N   UNL     1     -43.640 -50.246  12.700  1.00  0.00    -0.342 N 
HETATM   11  H   UNL     1     -44.317 -50.086  11.975  1.00  0.00     0.164 HD
ENDROOT
BRANCH  10  12
HETATM   12  C   UNL     1     -43.809 -51.479  13.473  1.00  0.00     0.138 C 
BRANCH  12  13
HETATM   13  C   UNL     1     -45.295 -51.913  13.665  1.00  0.00    -0.004 C 
HETATM   14  C   UNL     1     -46.122 -51.355  12.483  1.00  0.00     0.021 C 
HETATM   15  C   UNL     1     -45.412 -53.456  13.623  1.00  0.00     0.021 C 
BRANCH  13  16
HETATM   16  C   UNL     1     -45.808 -51.429  15.038  1.00  0.00    -0.046 A 
HETATM   17  C   UNL     1     -45.011 -50.712  15.941  1.00  0.00     0.025 A 
HETATM   18  C   UNL     1     -45.557 -50.278  17.145  1.00  0.00     0.088 A 
HETATM   19  N   UNL     1     -46.829 -50.504  17.523  1.00  0.00    -0.375 N 
HETATM   20  C   UNL     1     -47.591 -51.198  16.657  1.00  0.00     0.088 A 
ATOM     21  HN  UNL     1     -47.196 -50.168  18.414  1.00  0.00     0.164 HD
HETATM   22  C   UNL     1     -47.135 -51.671  15.433  1.00  0.00     0.025 A 
ENDBRANCH  13  16
ENDBRANCH  12  13
ENDBRANCH  10  12
BRANCH   4  23
HETATM   23  C   UNL     1     -41.105 -44.695  12.243  1.00  0.00     0.309 C 
BRANCH  23  24
HETATM   24  C   UNL     1     -41.091 -43.350  11.444  1.00  0.00     0.077 C 
HETATM   25  C   UNL     1     -42.508 -42.849  11.150  1.00  0.00     0.047 C 
HETATM   26  C   UNL     1     -40.321 -42.278  12.225  1.00  0.00     0.047 C 
BRANCH  24  27
HETATM   27  O   UNL     1     -40.360 -43.499  10.220  1.00  0.00    -0.389 OA
HETATM   28  H   UNL     1     -39.727 -44.227  10.340  1.00  0.00     0.210 HD
ENDBRANCH  24  27
ENDBRANCH  23  24
ENDBRANCH   4  23
TORSDOF 6
ENDMDL
MODEL 2
REMARK VINA RESULT:      -6.2      1.727      2.426
REMARK  6 active torsions:
REMARK  status: ('A' for Active; 'I' for Inactive)
REMARK    1  A    between atoms: N_4  and  C_5 
REMARK    2  A    between atoms: C_5  and  C_6 
REMARK    3  A    between atoms: C_6  and  O_9 
REMARK       I    between atoms: N_12  and  C_13 
REMARK       I    between atoms: C_13  and  N_15 
REMARK    4  A    between atoms: N_15  and  C_16 
REMARK    5  A    between atoms: C_16  and  C_17 
REMARK    6  A    between atoms: C_17  and  C_20 
ROOT
HETATM    1  C   UNL     1     -42.915 -47.617   9.458  1.00  0.00     0.034 C 
HETATM    2  C   UNL     1     -42.747 -47.870  10.960  1.00  0.00     0.113 C 
HETATM    3  C   UNL     1     -42.721 -46.535  11.762  1.00  0.00     0.297 C 
HETATM    4  N   UNL     1     -41.502 -45.715  11.511  1.00  0.00     0.095 N 
HETATM    5  C   UNL     1     -40.312 -46.550  11.815  1.00  0.00     0.292 C 
HETATM    6  C   UNL     1     -40.286 -47.884  11.045  1.00  0.00     0.158 C 
HETATM    7  N   UNL     1     -41.516 -48.645  11.236  1.00  0.00    -0.327 N 
HETATM    8  C   UNL     1     -41.442 -49.802  11.990  1.00  0.00     0.318 C 
HETATM    9  O   UNL     1     -40.411 -50.203  12.520  1.00  0.00    -0.247 OA
HETATM   10  N   UNL     1     -42.619 -50.503  12.069  1.00  0.00    -0.342 N 
HETATM   11  H   UNL     1     -43.140 -50.452  11.211  1.00  0.00     0.164 HD
ENDROOT
BRANCH  10  12
HETATM   12  C   UNL     1     -42.632 -51.800  12.751  1.00  0.00     0.138 C 
BRANCH  12  13
HETATM   13  C   UNL     1     -43.348 -51.785  14.136  1.00  0.00    -0.004 C 
HETATM   14  C   UNL     1     -42.287 -52.021  15.236  1.00  0.00     0.021 C 
HETATM   15  C   UNL     1     -43.983 -50.398  14.396  1.00  0.00     0.021 C 
BRANCH  13  16
HETATM   16  C   UNL     1     -44.475 -52.841  14.153  1.00  0.00    -0.046 A 
HETATM   17  C   UNL     1     -44.276 -54.175  13.775  1.00  0.00     0.025 A 
HETATM   18  C   UNL     1     -45.333 -55.077  13.853  1.00  0.00     0.088 A 
HETATM   19  N   UNL     1     -46.572 -54.754  14.274  1.00  0.00    -0.375 N 
HETATM   20  C   UNL     1     -46.762 -53.471  14.630  1.00  0.00     0.088 A 
ATOM     21  HN  UNL     1     -47.323 -55.443  14.319  1.00  0.00     0.164 HD
HETATM   22  C   UNL     1     -45.768 -52.501  14.587  1.00  0.00     0.025 A 
ENDBRANCH  13  16
ENDBRANCH  12  13
ENDBRANCH  10  12
BRANCH   4  23
HETATM   23  C   UNL     1     -41.547 -44.485  12.349  1.00  0.00     0.309 C 
BRANCH  23  24
HETATM   24  C   UNL     1     -41.525 -43.107  11.606  1.00  0.00     0.077 C 
HETATM   25  C   UNL     1     -42.933 -42.648  11.219  1.00  0.00     0.047 C 
HETATM   26  C   UNL     1     -40.864 -42.041  12.489  1.00  0.00     0.047 C 
BRANCH  24  27
HETATM   27  O   UNL     1     -40.694 -43.177  10.441  1.00  0.00    -0.389 OA
HETATM   28  H   UNL     1     -39.811 -42.852  10.686  1.00  0.00     0.210 HD
ENDBRANCH  24  27
ENDBRANCH  23  24
ENDBRANCH   4  23
TORSDOF 6
ENDMDL
MODEL 3
REMARK VINA RESULT:      -6.2      2.885      4.043
REMARK  6 active torsions:
REMARK  status: ('A' for Active; 'I' for Inactive)
REMARK    1  A    between atoms: N_4  and  C_5 
REMARK    2  A    between atoms: C_5  and  C_6 
REMARK    3  A    between atoms: C_6  and  O_9 
REMARK       I    between atoms: N_12  and  C_13 
REMARK       I    between atoms: C_13  and  N_15 
REMARK    4  A    between atoms: N_15  and  C_16 
REMARK    5  A    between atoms: C_16  and  C_17 
REMARK    6  A    between atoms: C_17  and  C_20 
ROOT
HETATM    1  C   UNL     1     -39.458 -48.242  12.631  1.00  0.00     0.034 C 
HETATM    2  C   UNL     1     -40.561 -49.285  12.422  1.00  0.00     0.113 C 
HETATM    3  C   UNL     1     -41.258 -49.106  11.041  1.00  0.00     0.297 C 
HETATM    4  N   UNL     1     -42.073 -47.861  10.944  1.00  0.00     0.095 N 
HETATM    5  C   UNL     1     -43.063 -47.869  12.051  1.00  0.00     0.292 C 
HETATM    6  C   UNL     1     -42.425 -48.041  13.443  1.00  0.00     0.158 C 
HETATM    7  N   UNL     1     -41.569 -49.221  13.505  1.00  0.00    -0.327 N 
HETATM    8  C   UNL     1     -42.006 -50.290  14.266  1.00  0.00     0.318 C 
HETATM    9  O   UNL     1     -43.077 -50.304  14.864  1.00  0.00    -0.247 OA
HETATM   10  N   UNL     1     -41.120 -51.335  14.337  1.00  0.00    -0.342 N 
HETATM   11  H   UNL     1     -40.168 -51.015  14.356  1.00  0.00     0.164 HD
ENDROOT
BRANCH  10  12
HETATM   12  C   UNL     1     -41.430 -52.476  15.203  1.00  0.00     0.138 C 
BRANCH  12  13
HETATM   13  C   UNL     1     -41.726 -53.799  14.433  1.00  0.00    -0.004 C 
HETATM   14  C   UNL     1     -40.806 -53.858  13.192  1.00  0.00     0.021 C 
HETATM   15  C   UNL     1     -41.386 -55.021  15.319  1.00  0.00     0.021 C 
BRANCH  13  16
HETATM   16  C   UNL     1     -43.226 -53.869  14.072  1.00  0.00    -0.046 A 
HETATM   17  C   UNL     1     -44.180 -54.483  14.895  1.00  0.00     0.025 A 
HETATM   18  C   UNL     1     -45.520 -54.474  14.518  1.00  0.00     0.088 A 
HETATM   19  N   UNL     1     -45.983 -53.907  13.388  1.00  0.00    -0.375 N 
HETATM   20  C   UNL     1     -45.064 -53.325  12.596  1.00  0.00     0.088 A 
ATOM     21  HN  UNL     1     -46.974 -53.918  13.145  1.00  0.00     0.164 HD
HETATM   22  C   UNL     1     -43.707 -53.283  12.889  1.00  0.00     0.025 A 
ENDBRANCH  13  16
ENDBRANCH  12  13
ENDBRANCH  10  12
BRANCH   4  23
HETATM   23  C   UNL     1     -42.730 -47.798   9.610  1.00  0.00     0.309 C 
BRANCH  23  24
HETATM   24  C   UNL     1     -43.264 -46.406   9.135  1.00  0.00     0.077 C 
HETATM   25  C   UNL     1     -44.791 -46.390   9.025  1.00  0.00     0.047 C 
HETATM   26  C   UNL     1     -42.809 -45.306  10.103  1.00  0.00     0.047 C 
BRANCH  24  27
HETATM   27  O   UNL     1     -42.678 -46.044   7.877  1.00  0.00    -0.389 OA
HETATM   28  H   UNL     1     -41.728 -46.240   7.926  1.00  0.00     0.210 HD
ENDBRANCH  24  27
ENDBRANCH  23  24
ENDBRANCH   4  23
TORSDOF 6
ENDMDL
MODEL 4
REMARK VINA RESULT:      -6.1      4.175      8.204
REMARK  6 active torsions:
REMARK  status: ('A' for Active; 'I' for Inactive)
REMARK    1  A    between atoms: N_4  and  C_5 
REMARK    2  A    between atoms: C_5  and  C_6 
REMARK    3  A    between atoms: C_6  and  O_9 
REMARK       I    between atoms: N_12  and  C_13 
REMARK       I    between atoms: C_13  and  N_15 
REMARK    4  A    between atoms: N_15  and  C_16 
REMARK    5  A    between atoms: C_16  and  C_17 
REMARK    6  A    between atoms: C_17  and  C_20 
ROOT
HETATM    1  C   UNL     1     -40.494 -49.795  15.720  1.00  0.00     0.034 C 
HETATM    2  C   UNL     1     -40.581 -50.249  14.258  1.00  0.00     0.113 C 
HETATM    3  C   UNL     1     -40.528 -51.801  14.141  1.00  0.00     0.297 C 
HETATM    4  N   UNL     1     -39.201 -52.379  14.502  1.00  0.00     0.095 N 
HETATM    5  C   UNL     1     -38.170 -51.738  13.648  1.00  0.00     0.292 C 
HETATM    6  C   UNL     1     -38.176 -50.199  13.728  1.00  0.00     0.158 C 
HETATM    7  N   UNL     1     -39.498 -49.647  13.448  1.00  0.00    -0.327 N 
HETATM    8  C   UNL     1     -39.665 -48.959  12.260  1.00  0.00     0.318 C 
HETATM    9  O   UNL     1     -38.775 -48.813  11.429  1.00  0.00    -0.247 OA
HETATM   10  N   UNL     1     -40.911 -48.408  12.095  1.00  0.00    -0.342 N 
HETATM   11  H   UNL     1     -41.290 -48.078  12.965  1.00  0.00     0.164 HD
ENDROOT
BRANCH  10  12
HETATM   12  C   UNL     1     -41.169 -47.565  10.924  1.00  0.00     0.138 C 
BRANCH  12  13
HETATM   13  C   UNL     1     -42.527 -46.802  10.974  1.00  0.00    -0.004 C 
HETATM   14  C   UNL     1     -43.122 -46.958  12.394  1.00  0.00     0.021 C 
HETATM   15  C   UNL     1     -42.302 -45.290  10.731  1.00  0.00     0.021 C 
BRANCH  13  16
HETATM   16  C   UNL     1     -43.466 -47.332   9.869  1.00  0.00    -0.046 A 
HETATM   17  C   UNL     1     -44.851 -47.458  10.041  1.00  0.00     0.025 A 
HETATM   18  C   UNL     1     -45.636 -47.909   8.984  1.00  0.00     0.088 A 
HETATM   19  N   UNL     1     -45.152 -48.248   7.773  1.00  0.00    -0.375 N 
HETATM   20  C   UNL     1     -43.821 -48.133   7.614  1.00  0.00     0.088 A 
ATOM     21  HN  UNL     1     -45.759 -48.574   7.021  1.00  0.00     0.164 HD
HETATM   22  C   UNL     1     -42.958 -47.691   8.609  1.00  0.00     0.025 A 
ENDBRANCH  13  16
ENDBRANCH  12  13
ENDBRANCH  10  12
BRANCH   4  23
HETATM   23  C   UNL     1     -39.235 -53.856  14.321  1.00  0.00     0.309 C 
BRANCH  23  24
HETATM   24  C   UNL     1     -38.986 -54.743  15.586  1.00  0.00     0.077 C 
HETATM   25  C   UNL     1     -38.462 -53.917  16.764  1.00  0.00     0.047 C 
HETATM   26  C   UNL     1     -40.280 -55.456  15.997  1.00  0.00     0.047 C 
BRANCH  24  27
HETATM   27  O   UNL     1     -38.070 -55.804  15.285  1.00  0.00    -0.389 OA
HETATM   28  H   UNL     1     -37.993 -56.363  16.076  1.00  0.00     0.210 HD
ENDBRANCH  24  27
ENDBRANCH  23  24
ENDBRANCH   4  23
TORSDOF 6
ENDMDL
MODEL 5
REMARK VINA RESULT:      -6.1      1.967      2.863
REMARK  6 active torsions:
REMARK  status: ('A' for Active; 'I' for Inactive)
REMARK    1  A    between atoms: N_4  and  C_5 
REMARK    2  A    between atoms: C_5  and  C_6 
REMARK    3  A    between atoms: C_6  and  O_9 
REMARK       I    between atoms: N_12  and  C_13 
REMARK       I    between atoms: C_13  and  N_15 
REMARK    4  A    between atoms: N_15  and  C_16 
REMARK    5  A    between atoms: C_16  and  C_17 
REMARK    6  A    between atoms: C_17  and  C_20 
ROOT
HETATM    1  C   UNL     1     -43.500 -47.530  10.005  1.00  0.00     0.034 C 
HETATM    2  C   UNL     1     -42.933 -48.017  11.344  1.00  0.00     0.113 C 
HETATM    3  C   UNL     1     -43.044 -46.918  12.442  1.00  0.00     0.297 C 
HETATM    4  N   UNL     1     -42.150 -45.749  12.205  1.00  0.00     0.095 N 
HETATM    5  C   UNL     1     -40.757 -46.249  12.082  1.00  0.00     0.292 C 
HETATM    6  C   UNL     1     -40.590 -47.338  11.005  1.00  0.00     0.158 C 
HETATM    7  N   UNL     1     -41.522 -48.444  11.201  1.00  0.00    -0.327 N 
HETATM    8  C   UNL     1     -41.000 -49.656  11.614  1.00  0.00     0.318 C 
HETATM    9  O   UNL     1     -39.809 -49.839  11.843  1.00  0.00    -0.247 OA
HETATM   10  N   UNL     1     -41.922 -50.667  11.710  1.00  0.00    -0.342 N 
HETATM   11  H   UNL     1     -42.624 -50.599  10.994  1.00  0.00     0.164 HD
ENDROOT
BRANCH  10  12
HETATM   12  C   UNL     1     -41.465 -52.021  12.033  1.00  0.00     0.138 C 
BRANCH  12  13
HETATM   13  C   UNL     1     -42.053 -52.594  13.359  1.00  0.00    -0.004 C 
HETATM   14  C   UNL     1     -41.683 -54.093  13.448  1.00  0.00     0.021 C 
HETATM   15  C   UNL     1     -41.414 -51.886  14.578  1.00  0.00     0.021 C 
BRANCH  13  16
HETATM   16  C   UNL     1     -43.577 -52.348  13.405  1.00  0.00    -0.046 A 
HETATM   17  C   UNL     1     -44.175 -51.433  14.282  1.00  0.00     0.025 A 
HETATM   18  C   UNL     1     -45.552 -51.240  14.238  1.00  0.00     0.088 A 
HETATM   19  N   UNL     1     -46.380 -51.887  13.395  1.00  0.00    -0.375 N 
HETATM   20  C   UNL     1     -45.804 -52.769  12.558  1.00  0.00     0.088 A 
ATOM     21  HN  UNL     1     -47.386 -51.718  13.390  1.00  0.00     0.164 HD
HETATM   22  C   UNL     1     -44.439 -53.028  12.528  1.00  0.00     0.025 A 
ENDBRANCH  13  16
ENDBRANCH  12  13
ENDBRANCH  10  12
BRANCH   4  23
HETATM   23  C   UNL     1     -42.296 -44.776  13.322  1.00  0.00     0.309 C 
BRANCH  23  24
HETATM   24  C   UNL     1     -42.414 -43.261  12.947  1.00  0.00     0.077 C 
HETATM   25  C   UNL     1     -41.094 -42.516  13.169  1.00  0.00     0.047 C 
HETATM   26  C   UNL     1     -42.846 -43.110  11.483  1.00  0.00     0.047 C 
BRANCH  24  27
HETATM   27  O   UNL     1     -43.462 -42.636  13.699  1.00  0.00    -0.389 OA
HETATM   28  H   UNL     1     -43.237 -41.696  13.796  1.00  0.00     0.210 HD
ENDBRANCH  24  27
ENDBRANCH  23  24
ENDBRANCH   4  23
TORSDOF 6
ENDMDL
MODEL 6
REMARK VINA RESULT:      -6.1      2.683      8.177
REMARK  6 active torsions:
REMARK  status: ('A' for Active; 'I' for Inactive)
REMARK    1  A    between atoms: N_4  and  C_5 
REMARK    2  A    between atoms: C_5  and  C_6 
REMARK    3  A    between atoms: C_6  and  O_9 
REMARK       I    between atoms: N_12  and  C_13 
REMARK       I    between atoms: C_13  and  N_15 
REMARK    4  A    between atoms: N_15  and  C_16 
REMARK    5  A    between atoms: C_16  and  C_17 
REMARK    6  A    between atoms: C_17  and  C_20 
ROOT
HETATM    1  C   UNL     1     -42.722 -50.522  15.581  1.00  0.00     0.034 C 
HETATM    2  C   UNL     1     -43.067 -50.538  14.087  1.00  0.00     0.113 C 
HETATM    3  C   UNL     1     -44.246 -51.509  13.786  1.00  0.00     0.297 C 
HETATM    4  N   UNL     1     -43.896 -52.946  13.975  1.00  0.00     0.095 N 
HETATM    5  C   UNL     1     -42.717 -53.250  13.124  1.00  0.00     0.292 C 
HETATM    6  C   UNL     1     -41.517 -52.319  13.384  1.00  0.00     0.158 C 
HETATM    7  N   UNL     1     -41.888 -50.912  13.272  1.00  0.00    -0.327 N 
HETATM    8  C   UNL     1     -41.399 -50.205  12.188  1.00  0.00     0.318 C 
HETATM    9  O   UNL     1     -40.697 -50.702  11.314  1.00  0.00    -0.247 OA
HETATM   10  N   UNL     1     -41.730 -48.873  12.185  1.00  0.00    -0.342 N 
HETATM   11  H   UNL     1     -41.744 -48.491  13.114  1.00  0.00     0.164 HD
ENDROOT
BRANCH  10  12
HETATM   12  C   UNL     1     -41.176 -48.004  11.144  1.00  0.00     0.138 C 
BRANCH  12  13
HETATM   13  C   UNL     1     -42.102 -46.814  10.746  1.00  0.00    -0.004 C 
HETATM   14  C   UNL     1     -42.700 -46.210  12.038  1.00  0.00     0.021 C 
HETATM   15  C   UNL     1     -41.278 -45.702  10.054  1.00  0.00     0.021 C 
BRANCH  13  16
HETATM   16  C   UNL     1     -43.182 -47.300   9.755  1.00  0.00    -0.046 A 
HETATM   17  C   UNL     1     -44.546 -47.339  10.073  1.00  0.00     0.025 A 
HETATM   18  C   UNL     1     -45.463 -47.754   9.112  1.00  0.00     0.088 A 
HETATM   19  N   UNL     1     -45.130 -48.138   7.865  1.00  0.00    -0.375 N 
HETATM   20  C   UNL     1     -43.818 -48.107   7.565  1.00  0.00     0.088 A 
ATOM     21  HN  UNL     1     -45.831 -48.436   7.186  1.00  0.00     0.164 HD
HETATM   22  C   UNL     1     -42.831 -47.706   8.456  1.00  0.00     0.025 A 
ENDBRANCH  13  16
ENDBRANCH  12  13
ENDBRANCH  10  12
BRANCH   4  23
HETATM   23  C   UNL     1     -45.068 -53.795  13.626  1.00  0.00     0.309 C 
BRANCH  23  24
HETATM   24  C   UNL     1     -46.116 -54.075  14.754  1.00  0.00     0.077 C 
HETATM   25  C   UNL     1     -45.469 -54.082  16.141  1.00  0.00     0.047 C 
HETATM   26  C   UNL     1     -47.230 -53.021  14.715  1.00  0.00     0.047 C 
BRANCH  24  27
HETATM   27  O   UNL     1     -46.788 -55.319  14.519  1.00  0.00    -0.389 OA
HETATM   28  H   UNL     1     -46.132 -55.950  14.178  1.00  0.00     0.210 HD
ENDBRANCH  24  27
ENDBRANCH  23  24
ENDBRANCH   4  23
TORSDOF 6
ENDMDL
MODEL 7
REMARK VINA RESULT:      -6.0      4.384      8.484
REMARK  6 active torsions:
REMARK  status: ('A' for Active; 'I' for Inactive)
REMARK    1  A    between atoms: N_4  and  C_5 
REMARK    2  A    between atoms: C_5  and  C_6 
REMARK    3  A    between atoms: C_6  and  O_9 
REMARK       I    between atoms: N_12  and  C_13 
REMARK       I    between atoms: C_13  and  N_15 
REMARK    4  A    between atoms: N_15  and  C_16 
REMARK    5  A    between atoms: C_16  and  C_17 
REMARK    6  A    between atoms: C_17  and  C_20 
ROOT
HETATM    1  C   UNL     1     -42.916 -52.901  17.016  1.00  0.00     0.034 C 
HETATM    2  C   UNL     1     -42.151 -52.154  15.918  1.00  0.00     0.113 C 
HETATM    3  C   UNL     1     -43.114 -51.632  14.810  1.00  0.00     0.297 C 
HETATM    4  N   UNL     1     -43.722 -52.720  13.991  1.00  0.00     0.095 N 
HETATM    5  C   UNL     1     -42.623 -53.533  13.412  1.00  0.00     0.292 C 
HETATM    6  C   UNL     1     -41.641 -54.078  14.468  1.00  0.00     0.158 C 
HETATM    7  N   UNL     1     -41.109 -53.014  15.313  1.00  0.00    -0.327 N 
HETATM    8  C   UNL     1     -39.776 -52.680  15.159  1.00  0.00     0.318 C 
HETATM    9  O   UNL     1     -39.033 -53.210  14.339  1.00  0.00    -0.247 OA
HETATM   10  N   UNL     1     -39.326 -51.723  16.033  1.00  0.00    -0.342 N 
HETATM   11  H   UNL     1     -39.757 -51.813  16.937  1.00  0.00     0.164 HD
ENDROOT
BRANCH  10  12
HETATM   12  C   UNL     1     -37.905 -51.369  16.035  1.00  0.00     0.138 C 
BRANCH  12  13
HETATM   13  C   UNL     1     -37.611 -49.908  15.575  1.00  0.00    -0.004 C 
HETATM   14  C   UNL     1     -38.516 -48.951  16.385  1.00  0.00     0.021 C 
HETATM   15  C   UNL     1     -36.143 -49.533  15.890  1.00  0.00     0.021 C 
BRANCH  13  16
HETATM   16  C   UNL     1     -37.821 -49.787  14.050  1.00  0.00    -0.046 A 
HETATM   17  C   UNL     1     -37.223 -50.655  13.127  1.00  0.00     0.025 A 
HETATM   18  C   UNL     1     -37.491 -50.504  11.769  1.00  0.00     0.088 A 
HETATM   19  N   UNL     1     -38.302 -49.557  11.259  1.00  0.00    -0.375 N 
HETATM   20  C   UNL     1     -38.870 -48.721  12.148  1.00  0.00     0.088 A 
ATOM     21  HN  UNL     1     -38.476 -49.478  10.257  1.00  0.00     0.164 HD
HETATM   22  C   UNL     1     -38.664 -48.795  13.520  1.00  0.00     0.025 A 
ENDBRANCH  13  16
ENDBRANCH  12  13
ENDBRANCH  10  12
BRANCH   4  23
HETATM   23  C   UNL     1     -44.590 -52.125  12.938  1.00  0.00     0.309 C 
BRANCH  23  24
HETATM   24  C   UNL     1     -46.136 -52.307  13.092  1.00  0.00     0.077 C 
HETATM   25  C   UNL     1     -46.685 -51.515  14.282  1.00  0.00     0.047 C 
HETATM   26  C   UNL     1     -46.852 -51.863  11.810  1.00  0.00     0.047 C 
BRANCH  24  27
HETATM   27  O   UNL     1     -46.470 -53.694  13.230  1.00  0.00    -0.389 OA
HETATM   28  H   UNL     1     -46.491 -53.900  14.180  1.00  0.00     0.210 HD
ENDBRANCH  24  27
ENDBRANCH  23  24
ENDBRANCH   4  23
TORSDOF 6
ENDMDL
MODEL 8
REMARK VINA RESULT:      -6.0      2.613      3.683
REMARK  6 active torsions:
REMARK  status: ('A' for Active; 'I' for Inactive)
REMARK    1  A    between atoms: N_4  and  C_5 
REMARK    2  A    between atoms: C_5  and  C_6 
REMARK    3  A    between atoms: C_6  and  O_9 
REMARK       I    between atoms: N_12  and  C_13 
REMARK       I    between atoms: C_13  and  N_15 
REMARK    4  A    between atoms: N_15  and  C_16 
REMARK    5  A    between atoms: C_16  and  C_17 
REMARK    6  A    between atoms: C_17  and  C_20 
ROOT
HETATM    1  C   UNL     1     -42.124 -48.147  15.049  1.00  0.00     0.034 C 
HETATM    2  C   UNL     1     -41.377 -49.123  14.134  1.00  0.00     0.113 C 
HETATM    3  C   UNL     1     -40.472 -48.368  13.115  1.00  0.00     0.297 C 
HETATM    4  N   UNL     1     -41.241 -47.606  12.090  1.00  0.00     0.095 N 
HETATM    5  C   UNL     1     -42.156 -48.551  11.401  1.00  0.00     0.292 C 
HETATM    6  C   UNL     1     -43.078 -49.324  12.364  1.00  0.00     0.158 C 
HETATM    7  N   UNL     1     -42.321 -50.005  13.410  1.00  0.00    -0.327 N 
HETATM    8  C   UNL     1     -42.260 -51.386  13.360  1.00  0.00     0.318 C 
HETATM    9  O   UNL     1     -42.785 -52.057  12.478  1.00  0.00    -0.247 OA
HETATM   10  N   UNL     1     -41.593 -51.961  14.412  1.00  0.00    -0.342 N 
HETATM   11  H   UNL     1     -41.747 -51.460  15.269  1.00  0.00     0.164 HD
ENDROOT
BRANCH  10  12
HETATM   12  C   UNL     1     -41.560 -53.422  14.521  1.00  0.00     0.138 C 
BRANCH  12  13
HETATM   13  C   UNL     1     -42.409 -53.993  15.697  1.00  0.00    -0.004 C 
HETATM   14  C   UNL     1     -41.728 -55.285  16.208  1.00  0.00     0.021 C 
HETATM   15  C   UNL     1     -42.436 -52.989  16.875  1.00  0.00     0.021 C 
BRANCH  13  16
HETATM   16  C   UNL     1     -43.862 -54.225  15.230  1.00  0.00    -0.046 A 
HETATM   17  C   UNL     1     -44.187 -55.000  14.108  1.00  0.00     0.025 A 
HETATM   18  C   UNL     1     -45.523 -55.194  13.771  1.00  0.00     0.088 A 
HETATM   19  N   UNL     1     -46.559 -54.675  14.458  1.00  0.00    -0.375 N 
HETATM   20  C   UNL     1     -46.244 -53.925  15.530  1.00  0.00     0.088 A 
ATOM     21  HN  UNL     1     -47.527 -54.840  14.181  1.00  0.00     0.164 HD
HETATM   22  C   UNL     1     -44.941 -53.678  15.944  1.00  0.00     0.025 A 
ENDBRANCH  13  16
ENDBRANCH  12  13
ENDBRANCH  10  12
BRANCH   4  23
HETATM   23  C   UNL     1     -40.296 -46.955  11.141  1.00  0.00     0.309 C 
BRANCH  23  24
HETATM   24  C   UNL     1     -40.685 -45.541  10.594  1.00  0.00     0.077 C 
HETATM   25  C   UNL     1     -41.285 -44.654  11.688  1.00  0.00     0.047 C 
HETATM   26  C   UNL     1     -39.456 -44.849   9.992  1.00  0.00     0.047 C 
BRANCH  24  27
HETATM   27  O   UNL     1     -41.604 -45.660   9.500  1.00  0.00    -0.389 OA
HETATM   28  H   UNL     1     -42.151 -44.856   9.484  1.00  0.00     0.210 HD
ENDBRANCH  24  27
ENDBRANCH  23  24
ENDBRANCH   4  23
TORSDOF 6
ENDMDL
MODEL 9
REMARK VINA RESULT:      -5.9      4.236      8.534
REMARK  6 active torsions:
REMARK  status: ('A' for Active; 'I' for Inactive)
REMARK    1  A    between atoms: N_4  and  C_5 
REMARK    2  A    between atoms: C_5  and  C_6 
REMARK    3  A    between atoms: C_6  and  O_9 
REMARK       I    between atoms: N_12  and  C_13 
REMARK       I    between atoms: C_13  and  N_15 
REMARK    4  A    between atoms: N_15  and  C_16 
REMARK    5  A    between atoms: C_16  and  C_17 
REMARK    6  A    between atoms: C_17  and  C_20 
ROOT
HETATM    1  C   UNL     1     -40.850 -54.501  14.989  1.00  0.00     0.034 C 
HETATM    2  C   UNL     1     -40.875 -52.983  14.777  1.00  0.00     0.113 C 
HETATM    3  C   UNL     1     -42.334 -52.440  14.728  1.00  0.00     0.297 C 
HETATM    4  N   UNL     1     -43.088 -52.872  13.517  1.00  0.00     0.095 N 
HETATM    5  C   UNL     1     -42.317 -52.454  12.318  1.00  0.00     0.292 C 
HETATM    6  C   UNL     1     -40.864 -52.967  12.315  1.00  0.00     0.158 C 
HETATM    7  N   UNL     1     -40.157 -52.605  13.539  1.00  0.00    -0.327 N 
HETATM    8  C   UNL     1     -39.157 -51.653  13.443  1.00  0.00     0.318 C 
HETATM    9  O   UNL     1     -38.856 -51.089  12.397  1.00  0.00    -0.247 OA
HETATM   10  N   UNL     1     -38.489 -51.414  14.617  1.00  0.00    -0.342 N 
HETATM   11  H   UNL     1     -38.385 -52.251  15.163  1.00  0.00     0.164 HD
ENDROOT
BRANCH  10  12
HETATM   12  C   UNL     1     -37.339 -50.506  14.611  1.00  0.00     0.138 C 
BRANCH  12  13
HETATM   13  C   UNL     1     -37.245 -49.588  15.867  1.00  0.00    -0.004 C 
HETATM   14  C   UNL     1     -37.952 -50.298  17.045  1.00  0.00     0.021 C 
HETATM   15  C   UNL     1     -35.765 -49.384  16.272  1.00  0.00     0.021 C 
BRANCH  13  16
HETATM   16  C   UNL     1     -37.851 -48.203  15.550  1.00  0.00    -0.046 A 
HETATM   17  C   UNL     1     -38.131 -47.774  14.246  1.00  0.00     0.025 A 
HETATM   18  C   UNL     1     -38.712 -46.526  14.043  1.00  0.00     0.088 A 
HETATM   19  N   UNL     1     -39.031 -45.671  15.034  1.00  0.00    -0.375 N 
HETATM   20  C   UNL     1     -38.755 -46.083  16.285  1.00  0.00     0.088 A 
ATOM     21  HN  UNL     1     -39.458 -44.764  14.847  1.00  0.00     0.164 HD
HETATM   22  C   UNL     1     -38.178 -47.310  16.585  1.00  0.00     0.025 A 
ENDBRANCH  13  16
ENDBRANCH  12  13
ENDBRANCH  10  12
BRANCH   4  23
HETATM   23  C   UNL     1     -44.451 -52.274  13.538  1.00  0.00     0.309 C 
BRANCH  23  24
HETATM   24  C   UNL     1     -45.668 -53.248  13.399  1.00  0.00     0.077 C 
HETATM   25  C   UNL     1     -45.265 -54.701  13.664  1.00  0.00     0.047 C 
HETATM   26  C   UNL     1     -46.785 -52.842  14.367  1.00  0.00     0.047 C 
BRANCH  24  27
HETATM   27  O   UNL     1     -46.258 -53.133  12.097  1.00  0.00    -0.389 OA
HETATM   28  H   UNL     1     -47.048 -53.699  12.080  1.00  0.00     0.210 HD
ENDBRANCH  24  27
ENDBRANCH  23  24
ENDBRANCH   4  23
TORSDOF 6
ENDMDL
