MODEL 1
REMARK VINA RESULT:      -6.1      0.000      0.000
REMARK  7 active torsions:
REMARK  status: ('A' for Active; 'I' for Inactive)
REMARK    1  A    between atoms: O_2  and  C_3 
REMARK    2  A    between atoms: C_3  and  C_4 
REMARK    3  A    between atoms: C_4  and  N_5 
REMARK    4  A    between atoms: C_8  and  C_13 
REMARK       I    between atoms: C_13  and  N_15 
REMARK    5  A    between atoms: N_15  and  C_16 
REMARK    6  A    between atoms: N_15  and  C_20 
REMARK    7  A    between atoms: C_16  and  C_17 
REMARK       I    between atoms: C_17  and  N_19 
ROOT
HETATM    1  C   UNL     1     -42.427 -49.566  12.536  1.00  0.00     0.272 C 
HETATM    2  O   UNL     1     -43.474 -50.156  12.801  1.00  0.00    -0.266 OA
HETATM    3  N   UNL     1     -41.170 -50.169  12.737  1.00  0.00    -0.333 N 
ENDROOT
BRANCH   1   4
HETATM    4  C   UNL     1     -42.548 -48.191  11.854  1.00  0.00     0.116 C 
HETATM    5  N   UNL     1     -43.050 -48.119  10.657  1.00  0.00    -0.290 N 
HETATM    6  N   UNL     1     -43.070 -46.861  10.047  1.00  0.00    -0.255 N 
ATOM      7  HN  UNL     1     -43.415 -48.945  10.182  1.00  0.00     0.187 HD
HETATM    8  C   UNL     1     -42.765 -45.679  10.706  1.00  0.00     0.262 C 
HETATM    9  C   UNL     1     -42.157 -45.831  12.043  1.00  0.00     0.078 C 
HETATM   10  O   UNL     1     -42.918 -44.550  10.250  1.00  0.00    -0.267 OA
HETATM   11  C   UNL     1     -41.979 -47.036  12.584  1.00  0.00     0.042 C 
BRANCH   6  12
HETATM   12  C   UNL     1     -43.453 -46.809   8.630  1.00  0.00     0.178 C 
BRANCH  12  13
HETATM   13  C   UNL     1     -44.638 -47.725   8.274  1.00  0.00     0.189 C 
BRANCH  13  14
HETATM   14  O   UNL     1     -45.560 -47.813   9.366  1.00  0.00    -0.394 OA
HETATM   15  C   UNL     1     -46.784 -47.150   9.077  1.00  0.00     0.201 C 
ENDBRANCH  13  14
ENDBRANCH  12  13
ENDBRANCH   6  12
ENDBRANCH   1   4
BRANCH   3  16
HETATM   16  C   UNL     1     -41.170 -51.496  13.404  1.00  0.00     0.229 C 
BRANCH  16  17
HETATM   17  C   UNL     1     -40.785 -52.710  12.540  1.00  0.00     0.233 C 
HETATM   18  O   UNL     1     -40.182 -53.680  12.990  1.00  0.00    -0.272 OA
HETATM   19  N   UNL     1     -41.269 -52.735  11.264  1.00  0.00    -0.369 N 
HETATM   20  H   UNL     1     -42.131 -52.227  11.080  1.00  0.00     0.159 HD
HETATM   21  H   UNL     1     -41.170 -53.625  10.792  1.00  0.00     0.159 HD
ENDBRANCH  16  17
ENDBRANCH   3  16
BRANCH   3  22
HETATM   22  C   UNL     1     -39.883 -49.467  12.636  1.00  0.00     0.088 C 
HETATM   23  C   UNL     1     -39.090 -49.757  11.352  1.00  0.00     0.025 C 
HETATM   24  C   UNL     1     -37.615 -49.766  11.761  1.00  0.00     0.002 C 
HETATM   25  C   UNL     1     -37.577 -49.355  13.227  1.00  0.00     0.002 C 
HETATM   26  C   UNL     1     -38.923 -49.789  13.782  1.00  0.00     0.025 C 
ENDBRANCH   3  22
TORSDOF 7
ENDMDL
MODEL 2
REMARK VINA RESULT:      -6.0      2.862      4.514
REMARK  7 active torsions:
REMARK  status: ('A' for Active; 'I' for Inactive)
REMARK    1  A    between atoms: O_2  and  C_3 
REMARK    2  A    between atoms: C_3  and  C_4 
REMARK    3  A    between atoms: C_4  and  N_5 
REMARK    4  A    between atoms: C_8  and  C_13 
REMARK       I    between atoms: C_13  and  N_15 
REMARK    5  A    between atoms: N_15  and  C_16 
REMARK    6  A    between atoms: N_15  and  C_20 
REMARK    7  A    between atoms: C_16  and  C_17 
REMARK       I    between atoms: C_17  and  N_19 
ROOT
HETATM    1  C   UNL     1     -42.026 -51.921  12.540  1.00  0.00     0.272 C 
HETATM    2  O   UNL     1     -41.095 -52.665  12.233  1.00  0.00    -0.266 OA
HETATM    3  N   UNL     1     -43.228 -52.425  13.074  1.00  0.00    -0.333 N 
ENDROOT
BRANCH   1   4
HETATM    4  C   UNL     1     -41.776 -50.405  12.441  1.00  0.00     0.116 C 
HETATM    5  N   UNL     1     -42.256 -49.747  11.427  1.00  0.00    -0.290 N 
HETATM    6  N   UNL     1     -41.940 -48.388  11.339  1.00  0.00    -0.255 N 
ATOM      7  HN  UNL     1     -42.838 -50.204  10.724  1.00  0.00     0.187 HD
HETATM    8  C   UNL     1     -41.317 -47.674  12.352  1.00  0.00     0.262 C 
HETATM    9  C   UNL     1     -40.756 -48.482  13.453  1.00  0.00     0.078 C 
HETATM   10  O   UNL     1     -41.162 -46.456  12.373  1.00  0.00    -0.267 OA
HETATM   11  C   UNL     1     -40.905 -49.807  13.477  1.00  0.00     0.042 C 
BRANCH   6  12
HETATM   12  C   UNL     1     -42.313 -47.692  10.102  1.00  0.00     0.178 C 
BRANCH  12  13
HETATM   13  C   UNL     1     -43.792 -47.265  10.052  1.00  0.00     0.189 C 
BRANCH  13  14
HETATM   14  O   UNL     1     -44.408 -47.705   8.837  1.00  0.00    -0.394 OA
HETATM   15  C   UNL     1     -43.460 -47.850   7.787  1.00  0.00     0.201 C 
ENDBRANCH  13  14
ENDBRANCH  12  13
ENDBRANCH   6  12
ENDBRANCH   1   4
BRANCH   3  16
HETATM   16  C   UNL     1     -43.363 -53.903  13.123  1.00  0.00     0.229 C 
BRANCH  16  17
HETATM   17  C   UNL     1     -43.044 -54.587  14.464  1.00  0.00     0.233 C 
HETATM   18  O   UNL     1     -43.889 -55.196  15.116  1.00  0.00    -0.272 OA
HETATM   19  N   UNL     1     -41.734 -54.615  14.845  1.00  0.00    -0.369 N 
HETATM   20  H   UNL     1     -41.032 -54.575  14.110  1.00  0.00     0.159 HD
HETATM   21  H   UNL     1     -41.532 -55.236  15.619  1.00  0.00     0.159 HD
ENDBRANCH  16  17
ENDBRANCH   3  16
BRANCH   3  22
HETATM   22  C   UNL     1     -44.448 -51.632  13.277  1.00  0.00     0.088 C 
HETATM   23  C   UNL     1     -44.733 -51.250  14.739  1.00  0.00     0.025 C 
HETATM   24  C   UNL     1     -46.254 -51.297  14.897  1.00  0.00     0.002 C 
HETATM   25  C   UNL     1     -46.820 -51.572  13.510  1.00  0.00     0.002 C 
HETATM   26  C   UNL     1     -45.718 -52.332  12.791  1.00  0.00     0.025 C 
ENDBRANCH   3  22
TORSDOF 7
ENDMDL
MODEL 3
REMARK VINA RESULT:      -6.0      3.504      6.058
REMARK  7 active torsions:
REMARK  status: ('A' for Active; 'I' for Inactive)
REMARK    1  A    between atoms: O_2  and  C_3 
REMARK    2  A    between atoms: C_3  and  C_4 
REMARK    3  A    between atoms: C_4  and  N_5 
REMARK    4  A    between atoms: C_8  and  C_13 
REMARK       I    between atoms: C_13  and  N_15 
REMARK    5  A    between atoms: N_15  and  C_16 
REMARK    6  A    between atoms: N_15  and  C_20 
REMARK    7  A    between atoms: C_16  and  C_17 
REMARK       I    between atoms: C_17  and  N_19 
ROOT
HETATM    1  C   UNL     1     -41.255 -52.425  12.727  1.00  0.00     0.272 C 
HETATM    2  O   UNL     1     -40.482 -53.023  11.980  1.00  0.00    -0.266 OA
HETATM    3  N   UNL     1     -40.991 -51.112  13.164  1.00  0.00    -0.333 N 
ENDROOT
BRANCH   1   4
HETATM    4  C   UNL     1     -42.590 -53.117  13.060  1.00  0.00     0.116 C 
HETATM    5  N   UNL     1     -43.686 -52.677  12.516  1.00  0.00    -0.290 N 
HETATM    6  N   UNL     1     -44.882 -53.288  12.906  1.00  0.00    -0.255 N 
ATOM      7  HN  UNL     1     -43.674 -51.919  11.834  1.00  0.00     0.187 HD
HETATM    8  C   UNL     1     -44.945 -54.438  13.680  1.00  0.00     0.262 C 
HETATM    9  C   UNL     1     -43.675 -54.859  14.304  1.00  0.00     0.078 C 
HETATM   10  O   UNL     1     -45.963 -55.084  13.913  1.00  0.00    -0.267 OA
HETATM   11  C   UNL     1     -42.543 -54.194  14.074  1.00  0.00     0.042 C 
BRANCH   6  12
HETATM   12  C   UNL     1     -46.131 -52.669  12.447  1.00  0.00     0.178 C 
BRANCH  12  13
HETATM   13  C   UNL     1     -46.643 -51.547  13.369  1.00  0.00     0.189 C 
BRANCH  13  14
HETATM   14  O   UNL     1     -45.635 -51.162  14.310  1.00  0.00    -0.394 OA
HETATM   15  C   UNL     1     -46.105 -51.244  15.649  1.00  0.00     0.201 C 
ENDBRANCH  13  14
ENDBRANCH  12  13
ENDBRANCH   6  12
ENDBRANCH   1   4
BRANCH   3  16
HETATM   16  C   UNL     1     -39.673 -50.541  12.785  1.00  0.00     0.229 C 
BRANCH  16  17
HETATM   17  C   UNL     1     -39.651 -49.574  11.588  1.00  0.00     0.233 C 
HETATM   18  O   UNL     1     -39.025 -48.518  11.599  1.00  0.00    -0.272 OA
HETATM   19  N   UNL     1     -40.248 -50.005  10.438  1.00  0.00    -0.369 N 
HETATM   20  H   UNL     1     -40.301 -51.010  10.286  1.00  0.00     0.159 HD
HETATM   21  H   UNL     1     -40.046 -49.443   9.621  1.00  0.00     0.159 HD
ENDBRANCH  16  17
ENDBRANCH   3  16
BRANCH   3  22
HETATM   22  C   UNL     1     -41.754 -50.409  14.204  1.00  0.00     0.088 C 
HETATM   23  C   UNL     1     -42.748 -49.361  13.676  1.00  0.00     0.025 C 
HETATM   24  C   UNL     1     -42.733 -48.218  14.693  1.00  0.00     0.002 C 
HETATM   25  C   UNL     1     -41.845 -48.679  15.841  1.00  0.00     0.002 C 
HETATM   26  C   UNL     1     -40.874 -49.659  15.204  1.00  0.00     0.025 C 
ENDBRANCH   3  22
TORSDOF 7
ENDMDL
MODEL 4
REMARK VINA RESULT:      -5.6      1.790      3.053
REMARK  7 active torsions:
REMARK  status: ('A' for Active; 'I' for Inactive)
REMARK    1  A    between atoms: O_2  and  C_3 
REMARK    2  A    between atoms: C_3  and  C_4 
REMARK    3  A    between atoms: C_4  and  N_5 
REMARK    4  A    between atoms: C_8  and  C_13 
REMARK       I    between atoms: C_13  and  N_15 
REMARK    5  A    between atoms: N_15  and  C_16 
REMARK    6  A    between atoms: N_15  and  C_20 
REMARK    7  A    between atoms: C_16  and  C_17 
REMARK       I    between atoms: C_17  and  N_19 
ROOT
HETATM    1  C   UNL     1     -40.958 -49.683  11.300  1.00  0.00     0.272 C 
HETATM    2  O   UNL     1     -39.956 -50.071  10.701  1.00  0.00    -0.266 OA
HETATM    3  N   UNL     1     -41.557 -50.457  12.312  1.00  0.00    -0.333 N 
ENDROOT
BRANCH   1   4
HETATM    4  C   UNL     1     -41.454 -48.258  10.993  1.00  0.00     0.116 C 
HETATM    5  N   UNL     1     -42.334 -48.082  10.052  1.00  0.00    -0.290 N 
HETATM    6  N   UNL     1     -42.698 -46.765   9.756  1.00  0.00    -0.255 N 
ATOM      7  HN  UNL     1     -42.741 -48.871   9.549  1.00  0.00     0.187 HD
HETATM    8  C   UNL     1     -42.325 -45.670  10.523  1.00  0.00     0.262 C 
HETATM    9  C   UNL     1     -41.291 -45.928  11.545  1.00  0.00     0.078 C 
HETATM   10  O   UNL     1     -42.748 -44.526  10.384  1.00  0.00    -0.267 OA
HETATM   11  C   UNL     1     -40.807 -47.155  11.738  1.00  0.00     0.042 C 
BRANCH   6  12
HETATM   12  C   UNL     1     -43.537 -46.551   8.571  1.00  0.00     0.178 C 
BRANCH  12  13
HETATM   13  C   UNL     1     -44.321 -47.802   8.132  1.00  0.00     0.189 C 
BRANCH  13  14
HETATM   14  O   UNL     1     -45.434 -48.037   9.002  1.00  0.00    -0.394 OA
HETATM   15  C   UNL     1     -46.312 -46.920   9.047  1.00  0.00     0.201 C 
ENDBRANCH  13  14
ENDBRANCH  12  13
ENDBRANCH   6  12
ENDBRANCH   1   4
BRANCH   3  16
HETATM   16  C   UNL     1     -40.999 -51.817  12.525  1.00  0.00     0.229 C 
BRANCH  16  17
HETATM   17  C   UNL     1     -39.839 -51.944  13.529  1.00  0.00     0.233 C 
HETATM   18  O   UNL     1     -38.662 -51.988  13.182  1.00  0.00    -0.272 OA
HETATM   19  N   UNL     1     -40.161 -51.863  14.854  1.00  0.00    -0.369 N 
HETATM   20  H   UNL     1     -40.999 -51.343  15.101  1.00  0.00     0.159 HD
HETATM   21  H   UNL     1     -39.368 -51.750  15.474  1.00  0.00     0.159 HD
ENDBRANCH  16  17
ENDBRANCH   3  16
BRANCH   3  22
HETATM   22  C   UNL     1     -42.856 -50.160  12.932  1.00  0.00     0.088 C 
HETATM   23  C   UNL     1     -42.775 -49.426  14.280  1.00  0.00     0.025 C 
HETATM   24  C   UNL     1     -43.921 -49.979  15.129  1.00  0.00     0.002 C 
HETATM   25  C   UNL     1     -44.714 -50.911  14.223  1.00  0.00     0.002 C 
HETATM   26  C   UNL     1     -43.701 -51.405  13.203  1.00  0.00     0.025 C 
ENDBRANCH   3  22
TORSDOF 7
ENDMDL
MODEL 5
REMARK VINA RESULT:      -5.6      3.433      6.150
REMARK  7 active torsions:
REMARK  status: ('A' for Active; 'I' for Inactive)
REMARK    1  A    between atoms: O_2  and  C_3 
REMARK    2  A    between atoms: C_3  and  C_4 
REMARK    3  A    between atoms: C_4  and  N_5 
REMARK    4  A    between atoms: C_8  and  C_13 
REMARK       I    between atoms: C_13  and  N_15 
REMARK    5  A    between atoms: N_15  and  C_16 
REMARK    6  A    between atoms: N_15  and  C_20 
REMARK    7  A    between atoms: C_16  and  C_17 
REMARK       I    between atoms: C_17  and  N_19 
ROOT
HETATM    1  C   UNL     1     -42.901 -44.609  10.398  1.00  0.00     0.272 C 
HETATM    2  O   UNL     1     -43.578 -43.930   9.628  1.00  0.00    -0.266 OA
HETATM    3  N   UNL     1     -42.675 -45.980  10.169  1.00  0.00    -0.333 N 
ENDROOT
BRANCH   1   4
HETATM    4  C   UNL     1     -42.201 -43.873  11.555  1.00  0.00     0.116 C 
HETATM    5  N   UNL     1     -42.867 -43.619  12.642  1.00  0.00    -0.290 N 
HETATM    6  N   UNL     1     -42.214 -42.882  13.635  1.00  0.00    -0.255 N 
ATOM      7  HN  UNL     1     -43.827 -43.943  12.766  1.00  0.00     0.187 HD
HETATM    8  C   UNL     1     -40.861 -42.578  13.605  1.00  0.00     0.262 C 
HETATM    9  C   UNL     1     -40.172 -42.850  12.329  1.00  0.00     0.078 C 
HETATM   10  O   UNL     1     -40.226 -42.069  14.525  1.00  0.00    -0.267 OA
HETATM   11  C   UNL     1     -40.818 -43.408  11.305  1.00  0.00     0.042 C 
BRANCH   6  12
HETATM   12  C   UNL     1     -43.022 -42.428  14.773  1.00  0.00     0.178 C 
BRANCH  12  13
HETATM   13  C   UNL     1     -43.787 -41.118  14.508  1.00  0.00     0.189 C 
BRANCH  13  14
HETATM   14  O   UNL     1     -44.524 -41.199  13.283  1.00  0.00    -0.394 OA
HETATM   15  C   UNL     1     -44.223 -40.115  12.414  1.00  0.00     0.201 C 
ENDBRANCH  13  14
ENDBRANCH  12  13
ENDBRANCH   6  12
ENDBRANCH   1   4
BRANCH   3  16
HETATM   16  C   UNL     1     -43.402 -46.589   9.025  1.00  0.00     0.229 C 
BRANCH  16  17
HETATM   17  C   UNL     1     -44.900 -46.880   9.227  1.00  0.00     0.233 C 
HETATM   18  O   UNL     1     -45.308 -47.867   9.833  1.00  0.00    -0.272 OA
HETATM   19  N   UNL     1     -45.774 -45.912   8.824  1.00  0.00    -0.369 N 
HETATM   20  H   UNL     1     -45.436 -44.953   8.805  1.00  0.00     0.159 HD
HETATM   21  H   UNL     1     -46.725 -46.041   9.147  1.00  0.00     0.159 HD
ENDBRANCH  16  17
ENDBRANCH   3  16
BRANCH   3  22
HETATM   22  C   UNL     1     -42.052 -46.897  11.134  1.00  0.00     0.088 C 
HETATM   23  C   UNL     1     -41.651 -48.264  10.557  1.00  0.00     0.025 C 
HETATM   24  C   UNL     1     -41.904 -49.281  11.672  1.00  0.00     0.002 C 
HETATM   25  C   UNL     1     -42.314 -48.477  12.899  1.00  0.00     0.002 C 
HETATM   26  C   UNL     1     -42.943 -47.214  12.335  1.00  0.00     0.025 C 
ENDBRANCH   3  22
TORSDOF 7
ENDMDL
MODEL 6
REMARK VINA RESULT:      -5.6      2.543      3.296
REMARK  7 active torsions:
REMARK  status: ('A' for Active; 'I' for Inactive)
REMARK    1  A    between atoms: O_2  and  C_3 
REMARK    2  A    between atoms: C_3  and  C_4 
REMARK    3  A    between atoms: C_4  and  N_5 
REMARK    4  A    between atoms: C_8  and  C_13 
REMARK       I    between atoms: C_13  and  N_15 
REMARK    5  A    between atoms: N_15  and  C_16 
REMARK    6  A    between atoms: N_15  and  C_20 
REMARK    7  A    between atoms: C_16  and  C_17 
REMARK       I    between atoms: C_17  and  N_19 
ROOT
HETATM    1  C   UNL     1     -43.991 -50.866  13.903  1.00  0.00     0.272 C 
HETATM    2  O   UNL     1     -45.157 -50.808  14.291  1.00  0.00    -0.266 OA
HETATM    3  N   UNL     1     -43.306 -52.092  13.806  1.00  0.00    -0.333 N 
ENDROOT
BRANCH   1   4
HETATM    4  C   UNL     1     -43.352 -49.558  13.402  1.00  0.00     0.116 C 
HETATM    5  N   UNL     1     -43.245 -49.355  12.122  1.00  0.00    -0.290 N 
HETATM    6  N   UNL     1     -42.589 -48.189  11.713  1.00  0.00    -0.255 N 
ATOM      7  HN  UNL     1     -43.623 -50.017  11.444  1.00  0.00     0.187 HD
HETATM    8  C   UNL     1     -42.222 -47.167  12.576  1.00  0.00     0.262 C 
HETATM    9  C   UNL     1     -42.325 -47.477  14.016  1.00  0.00     0.078 C 
HETATM   10  O   UNL     1     -41.786 -46.070  12.236  1.00  0.00    -0.267 OA
HETATM   11  C   UNL     1     -42.800 -48.651  14.433  1.00  0.00     0.042 C 
BRANCH   6  12
HETATM   12  C   UNL     1     -42.296 -48.052  10.281  1.00  0.00     0.178 C 
BRANCH  12  13
HETATM   13  C   UNL     1     -43.455 -47.452   9.465  1.00  0.00     0.189 C 
BRANCH  13  14
HETATM   14  O   UNL     1     -44.715 -47.755  10.073  1.00  0.00    -0.394 OA
HETATM   15  C   UNL     1     -45.806 -47.321   9.270  1.00  0.00     0.201 C 
ENDBRANCH  13  14
ENDBRANCH  12  13
ENDBRANCH   6  12
ENDBRANCH   1   4
BRANCH   3  16
HETATM   16  C   UNL     1     -44.017 -53.291  14.320  1.00  0.00     0.229 C 
BRANCH  16  17
HETATM   17  C   UNL     1     -45.099 -53.902  13.412  1.00  0.00     0.233 C 
HETATM   18  O   UNL     1     -44.833 -54.619  12.451  1.00  0.00    -0.272 OA
HETATM   19  N   UNL     1     -46.397 -53.730  13.800  1.00  0.00    -0.369 N 
HETATM   20  H   UNL     1     -46.575 -53.598  14.792  1.00  0.00     0.159 HD
HETATM   21  H   UNL     1     -47.066 -54.304  13.301  1.00  0.00     0.159 HD
ENDBRANCH  16  17
ENDBRANCH   3  16
BRANCH   3  22
HETATM   22  C   UNL     1     -41.866 -52.226  13.546  1.00  0.00     0.088 C 
HETATM   23  C   UNL     1     -41.437 -53.591  12.983  1.00  0.00     0.025 C 
HETATM   24  C   UNL     1     -40.068 -53.887  13.598  1.00  0.00     0.002 C 
HETATM   25  C   UNL     1     -39.677 -52.646  14.389  1.00  0.00     0.002 C 
HETATM   26  C   UNL     1     -41.000 -52.014  14.787  1.00  0.00     0.025 C 
ENDBRANCH   3  22
TORSDOF 7
ENDMDL
MODEL 7
REMARK VINA RESULT:      -5.3      3.874      6.383
REMARK  7 active torsions:
REMARK  status: ('A' for Active; 'I' for Inactive)
REMARK    1  A    between atoms: O_2  and  C_3 
REMARK    2  A    between atoms: C_3  and  C_4 
REMARK    3  A    between atoms: C_4  and  N_5 
REMARK    4  A    between atoms: C_8  and  C_13 
REMARK       I    between atoms: C_13  and  N_15 
REMARK    5  A    between atoms: N_15  and  C_16 
REMARK    6  A    between atoms: N_15  and  C_20 
REMARK    7  A    between atoms: C_16  and  C_17 
REMARK       I    between atoms: C_17  and  N_19 
ROOT
HETATM    1  C   UNL     1     -41.495 -52.304  12.844  1.00  0.00     0.272 C 
HETATM    2  O   UNL     1     -41.654 -52.434  11.631  1.00  0.00    -0.266 OA
HETATM    3  N   UNL     1     -40.431 -51.546  13.371  1.00  0.00    -0.333 N 
ENDROOT
BRANCH   1   4
HETATM    4  C   UNL     1     -42.581 -52.891  13.763  1.00  0.00     0.116 C 
HETATM    5  N   UNL     1     -43.500 -52.105  14.242  1.00  0.00    -0.290 N 
HETATM    6  N   UNL     1     -44.420 -52.667  15.132  1.00  0.00    -0.255 N 
ATOM      7  HN  UNL     1     -43.547 -51.121  13.981  1.00  0.00     0.187 HD
HETATM    8  C   UNL     1     -44.522 -54.028  15.380  1.00  0.00     0.262 C 
HETATM    9  C   UNL     1     -43.425 -54.860  14.846  1.00  0.00     0.078 C 
HETATM   10  O   UNL     1     -45.411 -54.569  16.033  1.00  0.00    -0.267 OA
HETATM   11  C   UNL     1     -42.443 -54.319  14.124  1.00  0.00     0.042 C 
BRANCH   6  12
HETATM   12  C   UNL     1     -45.332 -51.747  15.823  1.00  0.00     0.178 C 
BRANCH  12  13
HETATM   13  C   UNL     1     -46.675 -51.544  15.098  1.00  0.00     0.189 C 
BRANCH  13  14
HETATM   14  O   UNL     1     -47.764 -52.004  15.906  1.00  0.00    -0.394 OA
HETATM   15  C   UNL     1     -47.952 -51.186  17.053  1.00  0.00     0.201 C 
ENDBRANCH  13  14
ENDBRANCH  12  13
ENDBRANCH   6  12
ENDBRANCH   1   4
BRANCH   3  16
HETATM   16  C   UNL     1     -39.440 -51.026  12.393  1.00  0.00     0.229 C 
BRANCH  16  17
HETATM   17  C   UNL     1     -39.831 -49.760  11.611  1.00  0.00     0.233 C 
HETATM   18  O   UNL     1     -39.563 -48.628  12.003  1.00  0.00    -0.272 OA
HETATM   19  N   UNL     1     -40.375 -49.946  10.373  1.00  0.00    -0.369 N 
HETATM   20  H   UNL     1     -40.131 -50.801   9.877  1.00  0.00     0.159 HD
HETATM   21  H   UNL     1     -40.436 -49.108   9.808  1.00  0.00     0.159 HD
ENDBRANCH  16  17
ENDBRANCH   3  16
BRANCH   3  22
HETATM   22  C   UNL     1     -40.058 -51.506  14.792  1.00  0.00     0.088 C 
HETATM   23  C   UNL     1     -39.273 -50.254  15.216  1.00  0.00     0.025 C 
HETATM   24  C   UNL     1     -38.268 -50.726  16.269  1.00  0.00     0.002 C 
HETATM   25  C   UNL     1     -38.576 -52.195  16.526  1.00  0.00     0.002 C 
HETATM   26  C   UNL     1     -39.194 -52.688  15.229  1.00  0.00     0.025 C 
ENDBRANCH   3  22
TORSDOF 7
ENDMDL
MODEL 8
REMARK VINA RESULT:      -5.3      2.931      4.468
REMARK  7 active torsions:
REMARK  status: ('A' for Active; 'I' for Inactive)
REMARK    1  A    between atoms: O_2  and  C_3 
REMARK    2  A    between atoms: C_3  and  C_4 
REMARK    3  A    between atoms: C_4  and  N_5 
REMARK    4  A    between atoms: C_8  and  C_13 
REMARK       I    between atoms: C_13  and  N_15 
REMARK    5  A    between atoms: N_15  and  C_16 
REMARK    6  A    between atoms: N_15  and  C_20 
REMARK    7  A    between atoms: C_16  and  C_17 
REMARK       I    between atoms: C_17  and  N_19 
ROOT
HETATM    1  C   UNL     1     -44.307 -51.733  13.189  1.00  0.00     0.272 C 
HETATM    2  O   UNL     1     -45.522 -51.845  13.032  1.00  0.00    -0.266 OA
HETATM    3  N   UNL     1     -43.438 -52.829  13.026  1.00  0.00    -0.333 N 
ENDROOT
BRANCH   1   4
HETATM    4  C   UNL     1     -43.758 -50.317  13.441  1.00  0.00     0.116 C 
HETATM    5  N   UNL     1     -43.429 -49.574  12.426  1.00  0.00    -0.290 N 
HETATM    6  N   UNL     1     -42.864 -48.326  12.705  1.00  0.00    -0.255 N 
ATOM      7  HN  UNL     1     -43.576 -49.888  11.467  1.00  0.00     0.187 HD
HETATM    8  C   UNL     1     -42.812 -47.768  13.973  1.00  0.00     0.262 C 
HETATM    9  C   UNL     1     -43.156 -48.676  15.086  1.00  0.00     0.078 C 
HETATM   10  O   UNL     1     -42.466 -46.619  14.233  1.00  0.00    -0.267 OA
HETATM   11  C   UNL     1     -43.546 -49.929  14.853  1.00  0.00     0.042 C 
BRANCH   6  12
HETATM   12  C   UNL     1     -42.314 -47.571  11.572  1.00  0.00     0.178 C 
BRANCH  12  13
HETATM   13  C   UNL     1     -40.909 -48.033  11.142  1.00  0.00     0.189 C 
BRANCH  13  14
HETATM   14  O   UNL     1     -40.862 -49.457  11.004  1.00  0.00    -0.394 OA
HETATM   15  C   UNL     1     -39.799 -50.025  11.758  1.00  0.00     0.201 C 
ENDBRANCH  13  14
ENDBRANCH  12  13
ENDBRANCH   6  12
ENDBRANCH   1   4
BRANCH   3  16
HETATM   16  C   UNL     1     -44.075 -54.150  12.787  1.00  0.00     0.229 C 
BRANCH  16  17
HETATM   17  C   UNL     1     -44.787 -54.806  13.983  1.00  0.00     0.233 C 
HETATM   18  O   UNL     1     -44.179 -55.297  14.930  1.00  0.00    -0.272 OA
HETATM   19  N   UNL     1     -46.148 -54.698  14.024  1.00  0.00    -0.369 N 
HETATM   20  H   UNL     1     -46.569 -53.903  13.550  1.00  0.00     0.159 HD
HETATM   21  H   UNL     1     -46.565 -54.959  14.909  1.00  0.00     0.159 HD
ENDBRANCH  16  17
ENDBRANCH   3  16
BRANCH   3  22
HETATM   22  C   UNL     1     -42.013 -52.826  13.386  1.00  0.00     0.088 C 
HETATM   23  C   UNL     1     -41.179 -53.933  12.723  1.00  0.00     0.025 C 
HETATM   24  C   UNL     1     -40.142 -54.359  13.764  1.00  0.00     0.002 C 
HETATM   25  C   UNL     1     -40.308 -53.411  14.945  1.00  0.00     0.002 C 
HETATM   26  C   UNL     1     -41.764 -52.979  14.886  1.00  0.00     0.025 C 
ENDBRANCH   3  22
TORSDOF 7
ENDMDL
MODEL 9
REMARK VINA RESULT:      -5.3      4.082      7.172
REMARK  7 active torsions:
REMARK  status: ('A' for Active; 'I' for Inactive)
REMARK    1  A    between atoms: O_2  and  C_3 
REMARK    2  A    between atoms: C_3  and  C_4 
REMARK    3  A    between atoms: C_4  and  N_5 
REMARK    4  A    between atoms: C_8  and  C_13 
REMARK       I    between atoms: C_13  and  N_15 
REMARK    5  A    between atoms: N_15  and  C_16 
REMARK    6  A    between atoms: N_15  and  C_20 
REMARK    7  A    between atoms: C_16  and  C_17 
REMARK       I    between atoms: C_17  and  N_19 
ROOT
HETATM    1  C   UNL     1     -42.779 -51.495  13.469  1.00  0.00     0.272 C 
HETATM    2  O   UNL     1     -43.141 -50.524  12.806  1.00  0.00    -0.266 OA
HETATM    3  N   UNL     1     -41.469 -51.595  13.974  1.00  0.00    -0.333 N 
ENDROOT
BRANCH   1   4
HETATM    4  C   UNL     1     -43.852 -52.536  13.836  1.00  0.00     0.116 C 
HETATM    5  N   UNL     1     -44.438 -52.461  14.995  1.00  0.00    -0.290 N 
HETATM    6  N   UNL     1     -45.351 -53.471  15.315  1.00  0.00    -0.255 N 
ATOM      7  HN  UNL     1     -44.241 -51.698  15.642  1.00  0.00     0.187 HD
HETATM    8  C   UNL     1     -45.798 -54.423  14.411  1.00  0.00     0.262 C 
HETATM    9  C   UNL     1     -45.063 -54.485  13.132  1.00  0.00     0.078 C 
HETATM   10  O   UNL     1     -46.706 -55.224  14.611  1.00  0.00    -0.267 OA
HETATM   11  C   UNL     1     -44.075 -53.630  12.865  1.00  0.00     0.042 C 
BRANCH   6  12
HETATM   12  C   UNL     1     -45.864 -53.499  16.691  1.00  0.00     0.178 C 
BRANCH  12  13
HETATM   13  C   UNL     1     -44.861 -54.059  17.716  1.00  0.00     0.189 C 
BRANCH  13  14
HETATM   14  O   UNL     1     -43.612 -54.368  17.089  1.00  0.00    -0.394 OA
HETATM   15  C   UNL     1     -42.807 -55.210  17.905  1.00  0.00     0.201 C 
ENDBRANCH  13  14
ENDBRANCH  12  13
ENDBRANCH   6  12
ENDBRANCH   1   4
BRANCH   3  16
HETATM   16  C   UNL     1     -40.514 -50.536  13.556  1.00  0.00     0.229 C 
BRANCH  16  17
HETATM   17  C   UNL     1     -39.743 -50.772  12.245  1.00  0.00     0.233 C 
HETATM   18  O   UNL     1     -38.596 -51.211  12.220  1.00  0.00    -0.272 OA
HETATM   19  N   UNL     1     -40.440 -50.607  11.083  1.00  0.00    -0.369 N 
HETATM   20  H   UNL     1     -41.447 -50.744  11.118  1.00  0.00     0.159 HD
HETATM   21  H   UNL     1     -39.972 -50.958  10.257  1.00  0.00     0.159 HD
ENDBRANCH  16  17
ENDBRANCH   3  16
BRANCH   3  22
HETATM   22  C   UNL     1     -40.904 -52.800  14.598  1.00  0.00     0.088 C 
HETATM   23  C   UNL     1     -39.702 -52.545  15.522  1.00  0.00     0.025 C 
HETATM   24  C   UNL     1     -38.766 -53.740  15.333  1.00  0.00     0.002 C 
HETATM   25  C   UNL     1     -39.496 -54.714  14.418  1.00  0.00     0.002 C 
HETATM   26  C   UNL     1     -40.420 -53.839  13.587  1.00  0.00     0.025 C 
ENDBRANCH   3  22
TORSDOF 7
ENDMDL
