MODEL 1
REMARK VINA RESULT:      -6.5      0.000      0.000
REMARK  4 active torsions:
REMARK  status: ('A' for Active; 'I' for Inactive)
REMARK    1  A    between atoms: O_2  and  C_3 
REMARK    2  A    between atoms: C_6  and  N_7 
REMARK       I    between atoms: N_7  and  C_8 
REMARK       I    between atoms: C_8  and  N_10 
REMARK    3  A    between atoms: N_10  and  C_11 
REMARK    4  A    between atoms: N_14  and  S_17 
ROOT
HETATM    1  N   UNL     1     -41.789 -49.451  11.067  1.00  0.00    -0.308 N 
HETATM    2  C   UNL     1     -41.669 -50.153  12.245  1.00  0.00     0.321 C 
HETATM    3  O   UNL     1     -41.083 -49.767  13.247  1.00  0.00    -0.247 OA
HETATM    4  N   UNL     1     -42.344 -51.355  12.198  1.00  0.00    -0.338 N 
HETATM    5  H   UNL     1     -42.049 -49.971  10.244  1.00  0.00     0.170 HD
HETATM    6  H   UNL     1     -42.263 -51.836  11.315  1.00  0.00     0.164 HD
ENDROOT
BRANCH   1   7
HETATM    7  C   UNL     1     -41.387 -48.109  10.890  1.00  0.00     0.051 A 
HETATM    8  C   UNL     1     -40.187 -47.600  11.382  1.00  0.00     0.035 A 
HETATM    9  C   UNL     1     -39.836 -46.277  11.127  1.00  0.00     0.058 A 
HETATM   10  C   UNL     1     -40.709 -45.497  10.392  1.00  0.00     0.141 A 
HETATM   11  N   UNL     1     -41.906 -45.931   9.942  1.00  0.00    -0.345 N 
HETATM   12  C   UNL     1     -42.218 -47.223  10.209  1.00  0.00     0.119 A 
ATOM     13  HN  UNL     1     -42.541 -45.319   9.430  1.00  0.00     0.167 HD
BRANCH  10  14
HETATM   14  O   UNL     1     -40.282 -44.215  10.110  1.00  0.00    -0.341 OA
HETATM   15  C   UNL     1     -40.604 -43.284  11.136  1.00  0.00     0.211 C 
ENDBRANCH  10  14
ENDBRANCH   1   7
BRANCH   4  16
HETATM   16  C   UNL     1     -42.406 -52.205  13.394  1.00  0.00     0.089 C 
HETATM   17  C   UNL     1     -42.764 -53.647  13.011  1.00  0.00     0.045 C 
HETATM   18  C   UNL     1     -44.236 -53.803  12.616  1.00  0.00     0.137 C 
HETATM   19  N   UNL     1     -45.149 -53.221  13.633  1.00  0.00    -0.311 N 
HETATM   20  C   UNL     1     -44.832 -51.800  13.918  1.00  0.00     0.137 C 
HETATM   21  C   UNL     1     -43.410 -51.687  14.442  1.00  0.00     0.045 C 
BRANCH  19  22
HETATM   22  S   UNL     1     -45.568 -54.180  14.974  1.00  0.00     0.224 S 
HETATM   23  O   UNL     1     -46.567 -55.140  14.559  1.00  0.00    -0.206 OA
HETATM   24  O   UNL     1     -44.350 -54.602  15.636  1.00  0.00    -0.206 OA
HETATM   25  C   UNL     1     -46.343 -52.986  16.036  1.00  0.00     0.186 C 
ENDBRANCH  19  22
ENDBRANCH   4  16
TORSDOF 4
ENDMDL
MODEL 2
REMARK VINA RESULT:      -6.2      3.913      8.279
REMARK  4 active torsions:
REMARK  status: ('A' for Active; 'I' for Inactive)
REMARK    1  A    between atoms: O_2  and  C_3 
REMARK    2  A    between atoms: C_6  and  N_7 
REMARK       I    between atoms: N_7  and  C_8 
REMARK       I    between atoms: C_8  and  N_10 
REMARK    3  A    between atoms: N_10  and  C_11 
REMARK    4  A    between atoms: N_14  and  S_17 
ROOT
HETATM    1  N   UNL     1     -41.194 -50.918  11.672  1.00  0.00    -0.308 N 
HETATM    2  C   UNL     1     -42.116 -49.996  12.112  1.00  0.00     0.321 C 
HETATM    3  O   UNL     1     -42.723 -50.046  13.173  1.00  0.00    -0.247 OA
HETATM    4  N   UNL     1     -42.255 -48.945  11.228  1.00  0.00    -0.338 N 
HETATM    5  H   UNL     1     -40.972 -50.916  10.689  1.00  0.00     0.170 HD
HETATM    6  H   UNL     1     -42.243 -49.223  10.258  1.00  0.00     0.164 HD
ENDROOT
BRANCH   1   7
HETATM    7  C   UNL     1     -40.691 -51.981  12.453  1.00  0.00     0.051 A 
HETATM    8  C   UNL     1     -41.261 -53.252  12.472  1.00  0.00     0.035 A 
HETATM    9  C   UNL     1     -40.680 -54.265  13.230  1.00  0.00     0.058 A 
HETATM   10  C   UNL     1     -39.544 -53.967  13.961  1.00  0.00     0.141 A 
HETATM   11  N   UNL     1     -38.988 -52.738  14.016  1.00  0.00    -0.345 N 
HETATM   12  C   UNL     1     -39.580 -51.775  13.267  1.00  0.00     0.119 A 
ATOM     13  HN  UNL     1     -38.168 -52.544  14.591  1.00  0.00     0.167 HD
BRANCH  10  14
HETATM   14  O   UNL     1     -38.970 -55.022  14.640  1.00  0.00    -0.341 OA
HETATM   15  C   UNL     1     -39.011 -54.862  16.053  1.00  0.00     0.211 C 
ENDBRANCH  10  14
ENDBRANCH   1   7
BRANCH   4  16
HETATM   16  C   UNL     1     -43.130 -47.816  11.568  1.00  0.00     0.089 C 
HETATM   17  C   UNL     1     -43.471 -47.004  10.311  1.00  0.00     0.045 C 
HETATM   18  C   UNL     1     -42.292 -46.161   9.816  1.00  0.00     0.137 C 
HETATM   19  N   UNL     1     -41.700 -45.341  10.903  1.00  0.00    -0.311 N 
HETATM   20  C   UNL     1     -41.300 -46.166  12.070  1.00  0.00     0.137 C 
HETATM   21  C   UNL     1     -42.516 -46.885  12.630  1.00  0.00     0.045 C 
BRANCH  19  22
HETATM   22  S   UNL     1     -42.422 -43.841  11.258  1.00  0.00     0.224 S 
HETATM   23  O   UNL     1     -43.315 -43.494  10.175  1.00  0.00    -0.206 OA
HETATM   24  O   UNL     1     -42.881 -43.866  12.631  1.00  0.00    -0.206 OA
HETATM   25  C   UNL     1     -41.020 -42.751  11.204  1.00  0.00     0.186 C 
ENDBRANCH  19  22
ENDBRANCH   4  16
TORSDOF 4
ENDMDL
MODEL 3
REMARK VINA RESULT:      -6.2      3.149      8.736
REMARK  4 active torsions:
REMARK  status: ('A' for Active; 'I' for Inactive)
REMARK    1  A    between atoms: O_2  and  C_3 
REMARK    2  A    between atoms: C_6  and  N_7 
REMARK       I    between atoms: N_7  and  C_8 
REMARK       I    between atoms: C_8  and  N_10 
REMARK    3  A    between atoms: N_10  and  C_11 
REMARK    4  A    between atoms: N_14  and  S_17 
ROOT
HETATM    1  N   UNL     1     -42.902 -51.894  12.647  1.00  0.00    -0.308 N 
HETATM    2  C   UNL     1     -43.204 -50.606  13.024  1.00  0.00     0.321 C 
HETATM    3  O   UNL     1     -43.708 -50.275  14.090  1.00  0.00    -0.247 OA
HETATM    4  N   UNL     1     -42.821 -49.686  12.069  1.00  0.00    -0.338 N 
HETATM    5  H   UNL     1     -42.751 -52.064  11.665  1.00  0.00     0.170 HD
HETATM    6  H   UNL     1     -42.992 -49.987  11.121  1.00  0.00     0.164 HD
ENDROOT
BRANCH   1   7
HETATM    7  C   UNL     1     -42.983 -53.017  13.498  1.00  0.00     0.051 A 
HETATM    8  C   UNL     1     -44.128 -53.803  13.621  1.00  0.00     0.035 A 
HETATM    9  C   UNL     1     -44.117 -54.924  14.446  1.00  0.00     0.058 A 
HETATM   10  C   UNL     1     -42.955 -55.220  15.136  1.00  0.00     0.141 A 
HETATM   11  N   UNL     1     -41.842 -54.458  15.090  1.00  0.00    -0.345 N 
HETATM   12  C   UNL     1     -41.886 -53.373  14.279  1.00  0.00     0.119 A 
ATOM     13  HN  UNL     1     -41.012 -54.687  15.637  1.00  0.00     0.167 HD
BRANCH  10  14
HETATM   14  O   UNL     1     -42.977 -56.379  15.885  1.00  0.00    -0.341 OA
HETATM   15  C   UNL     1     -41.883 -56.477  16.788  1.00  0.00     0.211 C 
ENDBRANCH  10  14
ENDBRANCH   1   7
BRANCH   4  16
HETATM   16  C   UNL     1     -42.980 -48.250  12.332  1.00  0.00     0.089 C 
HETATM   17  C   UNL     1     -43.338 -47.504  11.040  1.00  0.00     0.045 C 
HETATM   18  C   UNL     1     -42.147 -47.371  10.087  1.00  0.00     0.137 C 
HETATM   19  N   UNL     1     -40.948 -46.821  10.769  1.00  0.00    -0.311 N 
HETATM   20  C   UNL     1     -40.574 -47.616  11.966  1.00  0.00     0.137 C 
HETATM   21  C   UNL     1     -41.723 -47.617  12.959  1.00  0.00     0.045 C 
BRANCH  19  22
HETATM   22  S   UNL     1     -40.817 -45.132  10.920  1.00  0.00     0.224 S 
HETATM   23  O   UNL     1     -41.988 -44.525  10.328  1.00  0.00    -0.206 OA
HETATM   24  O   UNL     1     -40.416 -44.822  12.277  1.00  0.00    -0.206 OA
HETATM   25  C   UNL     1     -39.418 -44.790   9.880  1.00  0.00     0.186 C 
ENDBRANCH  19  22
ENDBRANCH   4  16
TORSDOF 4
ENDMDL
MODEL 4
REMARK VINA RESULT:      -6.0      3.655      4.452
REMARK  4 active torsions:
REMARK  status: ('A' for Active; 'I' for Inactive)
REMARK    1  A    between atoms: O_2  and  C_3 
REMARK    2  A    between atoms: C_6  and  N_7 
REMARK       I    between atoms: N_7  and  C_8 
REMARK       I    between atoms: C_8  and  N_10 
REMARK    3  A    between atoms: N_10  and  C_11 
REMARK    4  A    between atoms: N_14  and  S_17 
ROOT
HETATM    1  N   UNL     1     -41.269 -50.474  13.102  1.00  0.00    -0.308 N 
HETATM    2  C   UNL     1     -41.478 -51.834  13.065  1.00  0.00     0.321 C 
HETATM    3  O   UNL     1     -42.214 -52.420  12.282  1.00  0.00    -0.247 OA
HETATM    4  N   UNL     1     -40.707 -52.499  13.997  1.00  0.00    -0.338 N 
HETATM    5  H   UNL     1     -40.867 -50.092  13.943  1.00  0.00     0.170 HD
HETATM    6  H   UNL     1     -40.640 -52.023  14.884  1.00  0.00     0.164 HD
ENDROOT
BRANCH   1   7
HETATM    7  C   UNL     1     -41.752 -49.564  12.137  1.00  0.00     0.051 A 
HETATM    8  C   UNL     1     -42.944 -48.857  12.283  1.00  0.00     0.035 A 
HETATM    9  C   UNL     1     -43.332 -47.939  11.311  1.00  0.00     0.058 A 
HETATM   10  C   UNL     1     -42.514 -47.765  10.209  1.00  0.00     0.141 A 
HETATM   11  N   UNL     1     -41.380 -48.467   9.999  1.00  0.00    -0.345 N 
HETATM   12  C   UNL     1     -41.032 -49.353  10.964  1.00  0.00     0.119 A 
ATOM     13  HN  UNL     1     -40.815 -48.337   9.159  1.00  0.00     0.167 HD
BRANCH  10  14
HETATM   14  O   UNL     1     -42.911 -46.796   9.310  1.00  0.00    -0.341 OA
HETATM   15  C   UNL     1     -43.790 -47.293   8.309  1.00  0.00     0.211 C 
ENDBRANCH  10  14
ENDBRANCH   1   7
BRANCH   4  16
HETATM   16  C   UNL     1     -40.727 -53.966  14.048  1.00  0.00     0.089 C 
HETATM   17  C   UNL     1     -41.853 -54.456  14.969  1.00  0.00     0.045 C 
HETATM   18  C   UNL     1     -41.537 -54.240  16.452  1.00  0.00     0.137 C 
HETATM   19  N   UNL     1     -40.201 -54.775  16.820  1.00  0.00    -0.311 N 
HETATM   20  C   UNL     1     -39.123 -54.216  15.968  1.00  0.00     0.137 C 
HETATM   21  C   UNL     1     -39.386 -54.565  14.513  1.00  0.00     0.045 C 
BRANCH  19  22
HETATM   22  S   UNL     1     -40.078 -56.430  17.195  1.00  0.00     0.224 S 
HETATM   23  O   UNL     1     -41.272 -57.098  16.726  1.00  0.00    -0.206 OA
HETATM   24  O   UNL     1     -38.760 -56.891  16.811  1.00  0.00    -0.206 OA
HETATM   25  C   UNL     1     -40.114 -56.395  18.971  1.00  0.00     0.186 C 
ENDBRANCH  19  22
ENDBRANCH   4  16
TORSDOF 4
ENDMDL
MODEL 5
REMARK VINA RESULT:      -5.9      3.132      3.552
REMARK  4 active torsions:
REMARK  status: ('A' for Active; 'I' for Inactive)
REMARK    1  A    between atoms: O_2  and  C_3 
REMARK    2  A    between atoms: C_6  and  N_7 
REMARK       I    between atoms: N_7  and  C_8 
REMARK       I    between atoms: C_8  and  N_10 
REMARK    3  A    between atoms: N_10  and  C_11 
REMARK    4  A    between atoms: N_14  and  S_17 
ROOT
HETATM    1  N   UNL     1     -42.570 -49.598  11.765  1.00  0.00    -0.308 N 
HETATM    2  C   UNL     1     -41.435 -50.375  11.814  1.00  0.00     0.321 C 
HETATM    3  O   UNL     1     -40.333 -50.053  11.391  1.00  0.00    -0.247 OA
HETATM    4  N   UNL     1     -41.660 -51.575  12.459  1.00  0.00    -0.338 N 
HETATM    5  H   UNL     1     -43.455 -50.065  11.891  1.00  0.00     0.170 HD
HETATM    6  H   UNL     1     -42.549 -51.996  12.239  1.00  0.00     0.164 HD
ENDROOT
BRANCH   1   7
HETATM    7  C   UNL     1     -42.598 -48.247  11.359  1.00  0.00     0.051 A 
HETATM    8  C   UNL     1     -42.481 -47.846  10.029  1.00  0.00     0.035 A 
HETATM    9  C   UNL     1     -42.566 -46.496   9.700  1.00  0.00     0.058 A 
HETATM   10  C   UNL     1     -42.754 -45.582  10.720  1.00  0.00     0.141 A 
HETATM   11  N   UNL     1     -42.818 -45.919  12.026  1.00  0.00    -0.345 N 
HETATM   12  C   UNL     1     -42.730 -47.241  12.312  1.00  0.00     0.119 A 
ATOM     13  HN  UNL     1     -42.925 -45.216  12.758  1.00  0.00     0.167 HD
BRANCH  10  14
HETATM   14  O   UNL     1     -42.898 -44.265  10.332  1.00  0.00    -0.341 OA
HETATM   15  C   UNL     1     -42.294 -43.350  11.237  1.00  0.00     0.211 C 
ENDBRANCH  10  14
ENDBRANCH   1   7
BRANCH   4  16
HETATM   16  C   UNL     1     -40.544 -52.500  12.690  1.00  0.00     0.089 C 
HETATM   17  C   UNL     1     -41.047 -53.950  12.726  1.00  0.00     0.045 C 
HETATM   18  C   UNL     1     -41.807 -54.277  14.015  1.00  0.00     0.137 C 
HETATM   19  N   UNL     1     -41.039 -53.891  15.226  1.00  0.00    -0.311 N 
HETATM   20  C   UNL     1     -40.642 -52.461  15.202  1.00  0.00     0.137 C 
HETATM   21  C   UNL     1     -39.771 -52.192  13.986  1.00  0.00     0.045 C 
BRANCH  19  22
HETATM   22  S   UNL     1     -39.877 -54.982  15.819  1.00  0.00     0.224 S 
HETATM   23  O   UNL     1     -40.560 -56.040  16.530  1.00  0.00    -0.206 OA
HETATM   24  O   UNL     1     -38.939 -55.276  14.755  1.00  0.00    -0.206 OA
HETATM   25  C   UNL     1     -39.014 -53.975  17.000  1.00  0.00     0.186 C 
ENDBRANCH  19  22
ENDBRANCH   4  16
TORSDOF 4
ENDMDL
MODEL 6
REMARK VINA RESULT:      -5.8      3.511      8.905
REMARK  4 active torsions:
REMARK  status: ('A' for Active; 'I' for Inactive)
REMARK    1  A    between atoms: O_2  and  C_3 
REMARK    2  A    between atoms: C_6  and  N_7 
REMARK       I    between atoms: N_7  and  C_8 
REMARK       I    between atoms: C_8  and  N_10 
REMARK    3  A    between atoms: N_10  and  C_11 
REMARK    4  A    between atoms: N_14  and  S_17 
ROOT
HETATM    1  N   UNL     1     -41.567 -49.420  12.568  1.00  0.00    -0.308 N 
HETATM    2  C   UNL     1     -41.682 -48.467  11.582  1.00  0.00     0.321 C 
HETATM    3  O   UNL     1     -42.319 -48.589  10.544  1.00  0.00    -0.247 OA
HETATM    4  N   UNL     1     -41.028 -47.299  11.916  1.00  0.00    -0.338 N 
HETATM    5  H   UNL     1     -40.813 -49.313  13.228  1.00  0.00     0.170 HD
HETATM    6  H   UNL     1     -40.141 -47.444  12.375  1.00  0.00     0.164 HD
ENDROOT
BRANCH   1   7
HETATM    7  C   UNL     1     -42.298 -50.627  12.603  1.00  0.00     0.051 A 
HETATM    8  C   UNL     1     -43.567 -50.736  13.167  1.00  0.00     0.035 A 
HETATM    9  C   UNL     1     -44.247 -51.950  13.121  1.00  0.00     0.058 A 
HETATM   10  C   UNL     1     -43.626 -53.028  12.518  1.00  0.00     0.141 A 
HETATM   11  N   UNL     1     -42.377 -52.983  12.006  1.00  0.00    -0.345 N 
HETATM   12  C   UNL     1     -41.742 -51.787  12.069  1.00  0.00     0.119 A 
ATOM     13  HN  UNL     1     -41.935 -53.806  11.596  1.00  0.00     0.167 HD
BRANCH  10  14
HETATM   14  O   UNL     1     -44.370 -54.188  12.439  1.00  0.00    -0.341 OA
HETATM   15  C   UNL     1     -45.111 -54.453  13.623  1.00  0.00     0.211 C 
ENDBRANCH  10  14
ENDBRANCH   1   7
BRANCH   4  16
HETATM   16  C   UNL     1     -41.113 -46.133  11.027  1.00  0.00     0.089 C 
HETATM   17  C   UNL     1     -39.845 -45.276  11.142  1.00  0.00     0.045 C 
HETATM   18  C   UNL     1     -39.786 -44.486  12.452  1.00  0.00     0.137 C 
HETATM   19  N   UNL     1     -41.036 -43.722  12.698  1.00  0.00    -0.311 N 
HETATM   20  C   UNL     1     -42.236 -44.594  12.667  1.00  0.00     0.137 C 
HETATM   21  C   UNL     1     -42.351 -45.260  11.307  1.00  0.00     0.045 C 
BRANCH  19  22
HETATM   22  S   UNL     1     -41.198 -42.195  11.965  1.00  0.00     0.224 S 
HETATM   23  O   UNL     1     -40.060 -41.384  12.336  1.00  0.00    -0.206 OA
HETATM   24  O   UNL     1     -41.562 -42.389  10.577  1.00  0.00    -0.206 OA
HETATM   25  C   UNL     1     -42.637 -41.557  12.789  1.00  0.00     0.186 C 
ENDBRANCH  19  22
ENDBRANCH   4  16
TORSDOF 4
ENDMDL
MODEL 7
REMARK VINA RESULT:      -5.8     14.673     15.704
REMARK  4 active torsions:
REMARK  status: ('A' for Active; 'I' for Inactive)
REMARK    1  A    between atoms: O_2  and  C_3 
REMARK    2  A    between atoms: C_6  and  N_7 
REMARK       I    between atoms: N_7  and  C_8 
REMARK       I    between atoms: C_8  and  N_10 
REMARK    3  A    between atoms: N_10  and  C_11 
REMARK    4  A    between atoms: N_14  and  S_17 
ROOT
HETATM    1  N   UNL     1     -50.953 -48.911  -0.074  1.00  0.00    -0.308 N 
HETATM    2  C   UNL     1     -50.474 -50.154   0.272  1.00  0.00     0.321 C 
HETATM    3  O   UNL     1     -49.838 -50.416   1.284  1.00  0.00    -0.247 OA
HETATM    4  N   UNL     1     -50.842 -51.120  -0.643  1.00  0.00    -0.338 N 
HETATM    5  H   UNL     1     -51.215 -48.769  -1.037  1.00  0.00     0.170 HD
HETATM    6  H   UNL     1     -50.796 -50.812  -1.602  1.00  0.00     0.164 HD
ENDROOT
BRANCH   1   7
HETATM    7  C   UNL     1     -50.918 -47.777   0.767  1.00  0.00     0.051 A 
HETATM    8  C   UNL     1     -49.811 -46.938   0.872  1.00  0.00     0.035 A 
HETATM    9  C   UNL     1     -49.868 -45.810   1.686  1.00  0.00     0.058 A 
HETATM   10  C   UNL     1     -51.036 -45.563   2.384  1.00  0.00     0.141 A 
HETATM   11  N   UNL     1     -52.112 -46.377   2.356  1.00  0.00    -0.345 N 
HETATM   12  C   UNL     1     -52.024 -47.467   1.555  1.00  0.00     0.119 A 
ATOM     13  HN  UNL     1     -52.947 -46.183   2.909  1.00  0.00     0.167 HD
BRANCH  10  14
HETATM   14  O   UNL     1     -51.062 -44.398   3.123  1.00  0.00    -0.341 OA
HETATM   15  C   UNL     1     -49.764 -43.904   3.429  1.00  0.00     0.211 C 
ENDBRANCH  10  14
ENDBRANCH   1   7
BRANCH   4  16
HETATM   16  C   UNL     1     -50.499 -52.526  -0.397  1.00  0.00     0.089 C 
HETATM   17  C   UNL     1     -49.107 -52.846  -0.961  1.00  0.00     0.045 C 
HETATM   18  C   UNL     1     -49.097 -52.934  -2.490  1.00  0.00     0.137 C 
HETATM   19  N   UNL     1     -50.160 -53.835  -3.002  1.00  0.00    -0.311 N 
HETATM   20  C   UNL     1     -51.505 -53.448  -2.509  1.00  0.00     0.137 C 
HETATM   21  C   UNL     1     -51.530 -53.504  -0.991  1.00  0.00     0.045 C 
BRANCH  19  22
HETATM   22  S   UNL     1     -49.834 -55.504  -3.059  1.00  0.00     0.224 S 
HETATM   23  O   UNL     1     -48.928 -55.833  -1.982  1.00  0.00    -0.206 OA
HETATM   24  O   UNL     1     -51.088 -56.211  -3.228  1.00  0.00    -0.206 OA
HETATM   25  C   UNL     1     -48.956 -55.642  -4.597  1.00  0.00     0.186 C 
ENDBRANCH  19  22
ENDBRANCH   4  16
TORSDOF 4
ENDMDL
MODEL 8
REMARK VINA RESULT:      -5.7      3.540      3.776
REMARK  4 active torsions:
REMARK  status: ('A' for Active; 'I' for Inactive)
REMARK    1  A    between atoms: O_2  and  C_3 
REMARK    2  A    between atoms: C_6  and  N_7 
REMARK       I    between atoms: N_7  and  C_8 
REMARK       I    between atoms: C_8  and  N_10 
REMARK    3  A    between atoms: N_10  and  C_11 
REMARK    4  A    between atoms: N_14  and  S_17 
ROOT
HETATM    1  N   UNL     1     -41.325 -49.796  12.489  1.00  0.00    -0.308 N 
HETATM    2  C   UNL     1     -40.281 -50.681  12.625  1.00  0.00     0.321 C 
HETATM    3  O   UNL     1     -39.158 -50.535  12.161  1.00  0.00    -0.247 OA
HETATM    4  N   UNL     1     -40.622 -51.763  13.411  1.00  0.00    -0.338 N 
HETATM    5  H   UNL     1     -42.253 -50.144  12.674  1.00  0.00     0.170 HD
HETATM    6  H   UNL     1     -41.556 -52.107  13.247  1.00  0.00     0.164 HD
ENDROOT
BRANCH   1   7
HETATM    7  C   UNL     1     -41.213 -48.507  11.923  1.00  0.00     0.051 A 
HETATM    8  C   UNL     1     -40.723 -47.406  12.622  1.00  0.00     0.035 A 
HETATM    9  C   UNL     1     -40.596 -46.176  11.982  1.00  0.00     0.058 A 
HETATM   10  C   UNL     1     -40.979 -46.084  10.657  1.00  0.00     0.141 A 
HETATM   11  N   UNL     1     -41.510 -47.108   9.956  1.00  0.00    -0.345 N 
HETATM   12  C   UNL     1     -41.620 -48.291  10.609  1.00  0.00     0.119 A 
ATOM     13  HN  UNL     1     -41.812 -46.998   8.988  1.00  0.00     0.167 HD
BRANCH  10  14
HETATM   14  O   UNL     1     -40.770 -44.860  10.053  1.00  0.00    -0.341 OA
HETATM   15  C   UNL     1     -40.127 -43.922  10.905  1.00  0.00     0.211 C 
ENDBRANCH  10  14
ENDBRANCH   1   7
BRANCH   4  16
HETATM   16  C   UNL     1     -39.609 -52.772  13.745  1.00  0.00     0.089 C 
HETATM   17  C   UNL     1     -40.180 -54.186  13.567  1.00  0.00     0.045 C 
HETATM   18  C   UNL     1     -41.168 -54.565  14.673  1.00  0.00     0.137 C 
HETATM   19  N   UNL     1     -40.607 -54.324  16.027  1.00  0.00    -0.311 N 
HETATM   20  C   UNL     1     -40.143 -52.925  16.197  1.00  0.00     0.137 C 
HETATM   21  C   UNL     1     -39.061 -52.616  15.176  1.00  0.00     0.045 C 
BRANCH  19  22
HETATM   22  S   UNL     1     -39.619 -55.530  16.710  1.00  0.00     0.224 S 
HETATM   23  O   UNL     1     -38.712 -56.012  15.692  1.00  0.00    -0.206 OA
HETATM   24  O   UNL     1     -39.130 -55.052  17.987  1.00  0.00    -0.206 OA
HETATM   25  C   UNL     1     -40.805 -56.805  17.058  1.00  0.00     0.186 C 
ENDBRANCH  19  22
ENDBRANCH   4  16
TORSDOF 4
ENDMDL
MODEL 9
REMARK VINA RESULT:      -5.7      4.290      8.680
REMARK  4 active torsions:
REMARK  status: ('A' for Active; 'I' for Inactive)
REMARK    1  A    between atoms: O_2  and  C_3 
REMARK    2  A    between atoms: C_6  and  N_7 
REMARK       I    between atoms: N_7  and  C_8 
REMARK       I    between atoms: C_8  and  N_10 
REMARK    3  A    between atoms: N_10  and  C_11 
REMARK    4  A    between atoms: N_14  and  S_17 
ROOT
HETATM    1  N   UNL     1     -40.581 -51.378  13.877  1.00  0.00    -0.308 N 
HETATM    2  C   UNL     1     -40.031 -50.560  12.917  1.00  0.00     0.321 C 
HETATM    3  O   UNL     1     -38.923 -50.696  12.415  1.00  0.00    -0.247 OA
HETATM    4  N   UNL     1     -40.905 -49.567  12.524  1.00  0.00    -0.338 N 
HETATM    5  H   UNL     1     -41.365 -51.016  14.398  1.00  0.00     0.170 HD
HETATM    6  H   UNL     1     -41.436 -49.167  13.282  1.00  0.00     0.164 HD
ENDROOT
BRANCH   1   7
HETATM    7  C   UNL     1     -40.012 -52.593  14.316  1.00  0.00     0.051 A 
HETATM    8  C   UNL     1     -40.013 -53.758  13.551  1.00  0.00     0.035 A 
HETATM    9  C   UNL     1     -39.388 -54.906  14.031  1.00  0.00     0.058 A 
HETATM   10  C   UNL     1     -38.788 -54.854  15.276  1.00  0.00     0.141 A 
HETATM   11  N   UNL     1     -38.809 -53.765  16.074  1.00  0.00    -0.345 N 
HETATM   12  C   UNL     1     -39.426 -52.666  15.577  1.00  0.00     0.119 A 
ATOM     13  HN  UNL     1     -38.383 -53.771  17.001  1.00  0.00     0.167 HD
BRANCH  10  14
HETATM   14  O   UNL     1     -38.126 -55.998  15.674  1.00  0.00    -0.341 OA
HETATM   15  C   UNL     1     -37.806 -56.001  17.060  1.00  0.00     0.211 C 
ENDBRANCH  10  14
ENDBRANCH   1   7
BRANCH   4  16
HETATM   16  C   UNL     1     -40.529 -48.649  11.441  1.00  0.00     0.089 C 
HETATM   17  C   UNL     1     -39.796 -47.424  12.006  1.00  0.00     0.045 C 
HETATM   18  C   UNL     1     -40.738 -46.457  12.729  1.00  0.00     0.137 C 
HETATM   19  N   UNL     1     -41.918 -46.105  11.898  1.00  0.00    -0.311 N 
HETATM   20  C   UNL     1     -42.656 -47.308  11.439  1.00  0.00     0.137 C 
HETATM   21  C   UNL     1     -41.737 -48.185  10.606  1.00  0.00     0.045 C 
BRANCH  19  22
HETATM   22  S   UNL     1     -41.752 -44.849  10.762  1.00  0.00     0.224 S 
HETATM   23  O   UNL     1     -40.581 -45.112   9.955  1.00  0.00    -0.206 OA
HETATM   24  O   UNL     1     -43.044 -44.606  10.154  1.00  0.00    -0.206 OA
HETATM   25  C   UNL     1     -41.410 -43.460  11.816  1.00  0.00     0.186 C 
ENDBRANCH  19  22
ENDBRANCH   4  16
TORSDOF 4
ENDMDL
