MODEL 1
REMARK VINA RESULT:      -6.6      0.000      0.000
REMARK  8 active torsions:
REMARK  status: ('A' for Active; 'I' for Inactive)
REMARK    1  A    between atoms: O_1  and  C_2 
REMARK    2  A    between atoms: C_2  and  C_3 
REMARK    3  A    between atoms: C_3  and  N_4 
REMARK    4  A    between atoms: N_4  and  C_5 
REMARK    5  A    between atoms: N_14  and  C_15 
REMARK    6  A    between atoms: C_15  and  C_16 
REMARK    7  A    between atoms: C_16  and  O_17 
REMARK    8  A    between atoms: C_16  and  C_18 
ROOT
HETATM    1  C   UNL     1     -40.400 -52.735  12.966  1.00  0.00     0.160 A 
HETATM    2  N   UNL     1     -39.681 -53.464  13.783  1.00  0.00    -0.331 N 
ATOM      3  HN  UNL     1     -38.664 -53.527  13.821  1.00  0.00     0.168 HD
HETATM    4  C   UNL     1     -40.583 -54.124  14.577  1.00  0.00     0.061 A 
HETATM    5  C   UNL     1     -40.346 -55.012  15.638  1.00  0.00     0.032 A 
HETATM    6  C   UNL     1     -41.440 -55.603  16.280  1.00  0.00     0.002 A 
HETATM    7  C   UNL     1     -42.744 -55.313  15.877  1.00  0.00     0.002 A 
HETATM    8  C   UNL     1     -43.001 -54.405  14.841  1.00  0.00     0.032 A 
HETATM    9  C   UNL     1     -41.894 -53.820  14.214  1.00  0.00     0.063 A 
HETATM   10  N   UNL     1     -41.747 -52.903  13.197  1.00  0.00    -0.319 N 
ENDROOT
BRANCH  10  11
HETATM   11  C   UNL     1     -42.812 -52.200  12.500  1.00  0.00     0.168 C 
BRANCH  11  12
HETATM   12  C   UNL     1     -43.267 -50.920  13.224  1.00  0.00     0.172 C 
BRANCH  12  13
HETATM   13  O   UNL     1     -43.528 -49.872  12.276  1.00  0.00    -0.389 OA
HETATM   14  H   UNL     1     -43.947 -49.134  12.748  1.00  0.00     0.210 HD
ENDBRANCH  12  13
BRANCH  12  15
HETATM   15  C   UNL     1     -44.502 -51.013  14.105  1.00  0.00     0.013 A 
HETATM   16  C   UNL     1     -44.378 -50.701  15.474  1.00  0.00     0.055 A 
HETATM   17  C   UNL     1     -45.472 -50.792  16.333  1.00  0.00     0.117 A 
HETATM   18  F   UNL     1     -45.326 -50.479  17.626  1.00  0.00    -0.206 F 
HETATM   19  C   UNL     1     -46.713 -51.201  15.866  1.00  0.00     0.045 A 
HETATM   20  C   UNL     1     -46.859 -51.516  14.518  1.00  0.00     0.046 A 
HETATM   21  C   UNL     1     -45.766 -51.417  13.653  1.00  0.00     0.125 A 
HETATM   22  F   UNL     1     -45.974 -51.713  12.365  1.00  0.00    -0.205 F 
ENDBRANCH  12  15
ENDBRANCH  11  12
ENDBRANCH  10  11
BRANCH   1  23
HETATM   23  N   UNL     1     -39.962 -51.909  11.984  1.00  0.00    -0.262 NA
HETATM   24  H   UNL     1     -40.673 -51.724  11.269  1.00  0.00     0.130 HD
BRANCH  23  25
HETATM   25  C   UNL     1     -39.470 -50.599  12.437  1.00  0.00     0.121 C 
BRANCH  25  26
HETATM   26  C   UNL     1     -40.048 -49.505  11.537  1.00  0.00     0.178 C 
BRANCH  26  27
HETATM   27  O   UNL     1     -40.457 -50.068  10.288  1.00  0.00    -0.400 OA
HETATM   28  H   UNL     1     -41.428 -50.119  10.309  1.00  0.00     0.209 HD
ENDBRANCH  26  27
ENDBRANCH  25  26
ENDBRANCH  23  25
ENDBRANCH   1  23
TORSDOF 8
ENDMDL
MODEL 2
REMARK VINA RESULT:      -6.5      3.360      5.887
REMARK  8 active torsions:
REMARK  status: ('A' for Active; 'I' for Inactive)
REMARK    1  A    between atoms: O_1  and  C_2 
REMARK    2  A    between atoms: C_2  and  C_3 
REMARK    3  A    between atoms: C_3  and  N_4 
REMARK    4  A    between atoms: N_4  and  C_5 
REMARK    5  A    between atoms: N_14  and  C_15 
REMARK    6  A    between atoms: C_15  and  C_16 
REMARK    7  A    between atoms: C_16  and  O_17 
REMARK    8  A    between atoms: C_16  and  C_18 
ROOT
HETATM    1  C   UNL     1     -41.192 -52.437  12.447  1.00  0.00     0.160 A 
HETATM    2  N   UNL     1     -42.333 -52.389  11.806  1.00  0.00    -0.331 N 
ATOM      3  HN  UNL     1     -42.520 -51.934  10.912  1.00  0.00     0.168 HD
HETATM    4  C   UNL     1     -43.223 -53.078  12.588  1.00  0.00     0.061 A 
HETATM    5  C   UNL     1     -44.580 -53.354  12.354  1.00  0.00     0.032 A 
HETATM    6  C   UNL     1     -45.306 -54.046  13.330  1.00  0.00     0.002 A 
HETATM    7  C   UNL     1     -44.692 -54.460  14.513  1.00  0.00     0.002 A 
HETATM    8  C   UNL     1     -43.332 -54.221  14.750  1.00  0.00     0.032 A 
HETATM    9  C   UNL     1     -42.621 -53.531  13.760  1.00  0.00     0.063 A 
HETATM   10  N   UNL     1     -41.310 -53.132  13.629  1.00  0.00    -0.319 N 
ENDROOT
BRANCH  10  11
HETATM   11  C   UNL     1     -40.220 -53.413  14.550  1.00  0.00     0.168 C 
BRANCH  11  12
HETATM   12  C   UNL     1     -39.712 -54.864  14.463  1.00  0.00     0.172 C 
BRANCH  12  13
HETATM   13  O   UNL     1     -38.616 -54.959  13.540  1.00  0.00    -0.389 OA
HETATM   14  H   UNL     1     -37.926 -54.337  13.824  1.00  0.00     0.210 HD
ENDBRANCH  12  13
BRANCH  12  15
HETATM   15  C   UNL     1     -39.242 -55.521  15.751  1.00  0.00     0.013 A 
HETATM   16  C   UNL     1     -37.880 -55.428  16.096  1.00  0.00     0.055 A 
HETATM   17  C   UNL     1     -37.389 -56.031  17.254  1.00  0.00     0.117 A 
HETATM   18  F   UNL     1     -36.091 -55.916  17.560  1.00  0.00    -0.206 F 
HETATM   19  C   UNL     1     -38.228 -56.749  18.093  1.00  0.00     0.045 A 
HETATM   20  C   UNL     1     -39.578 -56.855  17.772  1.00  0.00     0.046 A 
HETATM   21  C   UNL     1     -40.074 -56.244  16.617  1.00  0.00     0.125 A 
HETATM   22  F   UNL     1     -41.384 -56.365  16.373  1.00  0.00    -0.205 F 
ENDBRANCH  12  15
ENDBRANCH  11  12
ENDBRANCH  10  11
BRANCH   1  23
HETATM   23  N   UNL     1     -40.007 -51.890  12.079  1.00  0.00    -0.262 NA
HETATM   24  H   UNL     1     -39.853 -51.911  11.066  1.00  0.00     0.130 HD
BRANCH  23  25
HETATM   25  C   UNL     1     -39.796 -50.498  12.507  1.00  0.00     0.121 C 
BRANCH  25  26
HETATM   26  C   UNL     1     -39.626 -49.612  11.272  1.00  0.00     0.178 C 
BRANCH  26  27
HETATM   27  O   UNL     1     -40.525 -50.033  10.242  1.00  0.00    -0.400 OA
HETATM   28  H   UNL     1     -41.235 -50.534  10.678  1.00  0.00     0.209 HD
ENDBRANCH  26  27
ENDBRANCH  25  26
ENDBRANCH  23  25
ENDBRANCH   1  23
TORSDOF 8
ENDMDL
MODEL 3
REMARK VINA RESULT:      -6.5      3.004      5.183
REMARK  8 active torsions:
REMARK  status: ('A' for Active; 'I' for Inactive)
REMARK    1  A    between atoms: O_1  and  C_2 
REMARK    2  A    between atoms: C_2  and  C_3 
REMARK    3  A    between atoms: C_3  and  N_4 
REMARK    4  A    between atoms: N_4  and  C_5 
REMARK    5  A    between atoms: N_14  and  C_15 
REMARK    6  A    between atoms: C_15  and  C_16 
REMARK    7  A    between atoms: C_16  and  O_17 
REMARK    8  A    between atoms: C_16  and  C_18 
ROOT
HETATM    1  C   UNL     1     -39.584 -50.092  11.698  1.00  0.00     0.160 A 
HETATM    2  N   UNL     1     -39.586 -48.983  10.999  1.00  0.00    -0.331 N 
ATOM      3  HN  UNL     1     -38.824 -48.611  10.432  1.00  0.00     0.168 HD
HETATM    4  C   UNL     1     -40.824 -48.430  11.191  1.00  0.00     0.061 A 
HETATM    5  C   UNL     1     -41.363 -47.252  10.648  1.00  0.00     0.032 A 
HETATM    6  C   UNL     1     -42.651 -46.861  11.029  1.00  0.00     0.002 A 
HETATM    7  C   UNL     1     -43.391 -47.630  11.930  1.00  0.00     0.002 A 
HETATM    8  C   UNL     1     -42.882 -48.823  12.458  1.00  0.00     0.032 A 
HETATM    9  C   UNL     1     -41.593 -49.201  12.061  1.00  0.00     0.063 A 
HETATM   10  N   UNL     1     -40.784 -50.278  12.346  1.00  0.00    -0.319 N 
ENDROOT
BRANCH  10  11
HETATM   11  C   UNL     1     -41.128 -51.432  13.160  1.00  0.00     0.168 C 
BRANCH  11  12
HETATM   12  C   UNL     1     -41.777 -52.570  12.352  1.00  0.00     0.172 C 
BRANCH  12  13
HETATM   13  O   UNL     1     -40.770 -53.398  11.750  1.00  0.00    -0.389 OA
HETATM   14  H   UNL     1     -39.900 -53.044  11.993  1.00  0.00     0.210 HD
ENDBRANCH  12  13
BRANCH  12  15
HETATM   15  C   UNL     1     -42.714 -53.512  13.094  1.00  0.00     0.013 A 
HETATM   16  C   UNL     1     -42.195 -54.280  14.155  1.00  0.00     0.055 A 
HETATM   17  C   UNL     1     -43.002 -55.175  14.855  1.00  0.00     0.117 A 
HETATM   18  F   UNL     1     -42.483 -55.884  15.865  1.00  0.00    -0.206 F 
HETATM   19  C   UNL     1     -44.338 -55.342  14.519  1.00  0.00     0.045 A 
HETATM   20  C   UNL     1     -44.873 -54.594  13.474  1.00  0.00     0.046 A 
HETATM   21  C   UNL     1     -44.067 -53.690  12.777  1.00  0.00     0.125 A 
HETATM   22  F   UNL     1     -44.643 -52.985  11.796  1.00  0.00    -0.205 F 
ENDBRANCH  12  15
ENDBRANCH  11  12
ENDBRANCH  10  11
BRANCH   1  23
HETATM   23  N   UNL     1     -38.576 -50.988  11.833  1.00  0.00    -0.262 NA
HETATM   24  H   UNL     1     -38.672 -51.797  11.212  1.00  0.00     0.130 HD
BRANCH  23  25
HETATM   25  C   UNL     1     -37.223 -50.450  11.617  1.00  0.00     0.121 C 
BRANCH  25  26
HETATM   26  C   UNL     1     -36.653 -51.028  10.319  1.00  0.00     0.178 C 
BRANCH  26  27
HETATM   27  O   UNL     1     -36.348 -52.414  10.496  1.00  0.00    -0.400 OA
HETATM   28  H   UNL     1     -35.407 -52.523  10.276  1.00  0.00     0.209 HD
ENDBRANCH  26  27
ENDBRANCH  25  26
ENDBRANCH  23  25
ENDBRANCH   1  23
TORSDOF 8
ENDMDL
MODEL 4
REMARK VINA RESULT:      -6.3      2.546      4.980
REMARK  8 active torsions:
REMARK  status: ('A' for Active; 'I' for Inactive)
REMARK    1  A    between atoms: O_1  and  C_2 
REMARK    2  A    between atoms: C_2  and  C_3 
REMARK    3  A    between atoms: C_3  and  N_4 
REMARK    4  A    between atoms: N_4  and  C_5 
REMARK    5  A    between atoms: N_14  and  C_15 
REMARK    6  A    between atoms: C_15  and  C_16 
REMARK    7  A    between atoms: C_16  and  O_17 
REMARK    8  A    between atoms: C_16  and  C_18 
ROOT
HETATM    1  C   UNL     1     -40.173 -50.503  11.956  1.00  0.00     0.160 A 
HETATM    2  N   UNL     1     -39.827 -49.466  11.235  1.00  0.00    -0.331 N 
ATOM      3  HN  UNL     1     -38.966 -49.343  10.703  1.00  0.00     0.168 HD
HETATM    4  C   UNL     1     -40.866 -48.579  11.346  1.00  0.00     0.061 A 
HETATM    5  C   UNL     1     -41.023 -47.318  10.748  1.00  0.00     0.032 A 
HETATM    6  C   UNL     1     -42.165 -46.566  11.048  1.00  0.00     0.002 A 
HETATM    7  C   UNL     1     -43.133 -47.062  11.923  1.00  0.00     0.002 A 
HETATM    8  C   UNL     1     -43.009 -48.330  12.504  1.00  0.00     0.032 A 
HETATM    9  C   UNL     1     -41.862 -49.070  12.188  1.00  0.00     0.063 A 
HETATM   10  N   UNL     1     -41.405 -50.320  12.541  1.00  0.00    -0.319 N 
ENDROOT
BRANCH  10  11
HETATM   11  C   UNL     1     -42.100 -51.300  13.360  1.00  0.00     0.168 C 
BRANCH  11  12
HETATM   12  C   UNL     1     -43.002 -52.242  12.541  1.00  0.00     0.172 C 
BRANCH  12  13
HETATM   13  O   UNL     1     -42.256 -53.380  12.082  1.00  0.00    -0.389 OA
HETATM   14  H   UNL     1     -42.387 -54.105  12.714  1.00  0.00     0.210 HD
ENDBRANCH  12  13
BRANCH  12  15
HETATM   15  C   UNL     1     -44.242 -52.795  13.225  1.00  0.00     0.013 A 
HETATM   16  C   UNL     1     -44.466 -54.185  13.192  1.00  0.00     0.055 A 
HETATM   17  C   UNL     1     -45.598 -54.745  13.783  1.00  0.00     0.117 A 
HETATM   18  F   UNL     1     -45.778 -56.071  13.745  1.00  0.00    -0.206 F 
HETATM   19  C   UNL     1     -46.542 -53.946  14.411  1.00  0.00     0.045 A 
HETATM   20  C   UNL     1     -46.343 -52.569  14.455  1.00  0.00     0.046 A 
HETATM   21  C   UNL     1     -45.204 -52.007  13.872  1.00  0.00     0.125 A 
HETATM   22  F   UNL     1     -45.059 -50.680  13.964  1.00  0.00    -0.205 F 
ENDBRANCH  12  15
ENDBRANCH  11  12
ENDBRANCH  10  11
BRANCH   1  23
HETATM   23  N   UNL     1     -39.467 -51.642  12.167  1.00  0.00    -0.262 NA
HETATM   24  H   UNL     1     -38.766 -51.820  11.441  1.00  0.00     0.130 HD
BRANCH  23  25
HETATM   25  C   UNL     1     -38.763 -51.716  13.458  1.00  0.00     0.121 C 
BRANCH  25  26
HETATM   26  C   UNL     1     -38.934 -53.118  14.045  1.00  0.00     0.178 C 
BRANCH  26  27
HETATM   27  O   UNL     1     -39.628 -53.954  13.115  1.00  0.00    -0.400 OA
HETATM   28  H   UNL     1     -39.058 -54.725  12.952  1.00  0.00     0.209 HD
ENDBRANCH  26  27
ENDBRANCH  25  26
ENDBRANCH  23  25
ENDBRANCH   1  23
TORSDOF 8
ENDMDL
MODEL 5
REMARK VINA RESULT:      -6.3      5.320      8.242
REMARK  8 active torsions:
REMARK  status: ('A' for Active; 'I' for Inactive)
REMARK    1  A    between atoms: O_1  and  C_2 
REMARK    2  A    between atoms: C_2  and  C_3 
REMARK    3  A    between atoms: C_3  and  N_4 
REMARK    4  A    between atoms: N_4  and  C_5 
REMARK    5  A    between atoms: N_14  and  C_15 
REMARK    6  A    between atoms: C_15  and  C_16 
REMARK    7  A    between atoms: C_16  and  O_17 
REMARK    8  A    between atoms: C_16  and  C_18 
ROOT
HETATM    1  C   UNL     1     -43.385 -46.861  10.161  1.00  0.00     0.160 A 
HETATM    2  N   UNL     1     -43.549 -45.573  10.341  1.00  0.00    -0.331 N 
ATOM      3  HN  UNL     1     -44.409 -45.039  10.220  1.00  0.00     0.168 HD
HETATM    4  C   UNL     1     -42.324 -45.096  10.725  1.00  0.00     0.061 A 
HETATM    5  C   UNL     1     -41.950 -43.787  11.071  1.00  0.00     0.032 A 
HETATM    6  C   UNL     1     -40.613 -43.530  11.392  1.00  0.00     0.002 A 
HETATM    7  C   UNL     1     -39.667 -44.555  11.374  1.00  0.00     0.002 A 
HETATM    8  C   UNL     1     -40.026 -45.873  11.062  1.00  0.00     0.032 A 
HETATM    9  C   UNL     1     -41.370 -46.112  10.748  1.00  0.00     0.063 A 
HETATM   10  N   UNL     1     -42.085 -47.240  10.412  1.00  0.00    -0.319 N 
ENDROOT
BRANCH  10  11
HETATM   11  C   UNL     1     -41.583 -48.603  10.356  1.00  0.00     0.168 C 
BRANCH  11  12
HETATM   12  C   UNL     1     -41.512 -49.279  11.737  1.00  0.00     0.172 C 
BRANCH  12  13
HETATM   13  O   UNL     1     -41.946 -50.645  11.652  1.00  0.00    -0.389 OA
HETATM   14  H   UNL     1     -41.164 -51.217  11.728  1.00  0.00     0.210 HD
ENDBRANCH  12  13
BRANCH  12  15
HETATM   15  C   UNL     1     -40.162 -49.304  12.437  1.00  0.00     0.013 A 
HETATM   16  C   UNL     1     -39.186 -50.214  11.986  1.00  0.00     0.055 A 
HETATM   17  C   UNL     1     -37.940 -50.296  12.604  1.00  0.00     0.117 A 
HETATM   18  F   UNL     1     -37.029 -51.164  12.146  1.00  0.00    -0.206 F 
HETATM   19  C   UNL     1     -37.629 -49.490  13.690  1.00  0.00     0.045 A 
HETATM   20  C   UNL     1     -38.578 -48.583  14.154  1.00  0.00     0.046 A 
HETATM   21  C   UNL     1     -39.824 -48.493  13.529  1.00  0.00     0.125 A 
HETATM   22  F   UNL     1     -40.687 -47.589  14.008  1.00  0.00    -0.205 F 
ENDBRANCH  12  15
ENDBRANCH  11  12
ENDBRANCH  10  11
BRANCH   1  23
HETATM   23  N   UNL     1     -44.310 -47.771   9.768  1.00  0.00    -0.262 NA
HETATM   24  H   UNL     1     -44.554 -48.439  10.506  1.00  0.00     0.130 HD
BRANCH  23  25
HETATM   25  C   UNL     1     -45.577 -47.207   9.277  1.00  0.00     0.121 C 
BRANCH  25  26
HETATM   26  C   UNL     1     -46.484 -48.344   8.803  1.00  0.00     0.178 C 
BRANCH  26  27
HETATM   27  O   UNL     1     -46.266 -48.595   7.412  1.00  0.00    -0.400 OA
HETATM   28  H   UNL     1     -45.305 -48.673   7.290  1.00  0.00     0.209 HD
ENDBRANCH  26  27
ENDBRANCH  25  26
ENDBRANCH  23  25
ENDBRANCH   1  23
TORSDOF 8
ENDMDL
MODEL 6
REMARK VINA RESULT:      -6.3      2.626      4.400
REMARK  8 active torsions:
REMARK  status: ('A' for Active; 'I' for Inactive)
REMARK    1  A    between atoms: O_1  and  C_2 
REMARK    2  A    between atoms: C_2  and  C_3 
REMARK    3  A    between atoms: C_3  and  N_4 
REMARK    4  A    between atoms: N_4  and  C_5 
REMARK    5  A    between atoms: N_14  and  C_15 
REMARK    6  A    between atoms: C_15  and  C_16 
REMARK    7  A    between atoms: C_16  and  O_17 
REMARK    8  A    between atoms: C_16  and  C_18 
ROOT
HETATM    1  C   UNL     1     -41.591 -49.330  11.480  1.00  0.00     0.160 A 
HETATM    2  N   UNL     1     -40.423 -49.021  10.973  1.00  0.00    -0.331 N 
ATOM      3  HN  UNL     1     -40.234 -48.368  10.213  1.00  0.00     0.168 HD
HETATM    4  C   UNL     1     -39.510 -49.760  11.679  1.00  0.00     0.061 A 
HETATM    5  C   UNL     1     -38.111 -49.788  11.561  1.00  0.00     0.032 A 
HETATM    6  C   UNL     1     -37.383 -50.666  12.371  1.00  0.00     0.002 A 
HETATM    7  C   UNL     1     -38.034 -51.498  13.283  1.00  0.00     0.002 A 
HETATM    8  C   UNL     1     -39.426 -51.462  13.437  1.00  0.00     0.032 A 
HETATM    9  C   UNL     1     -40.137 -50.573  12.621  1.00  0.00     0.063 A 
HETATM   10  N   UNL     1     -41.470 -50.253  12.493  1.00  0.00    -0.319 N 
ENDROOT
BRANCH  10  11
HETATM   11  C   UNL     1     -42.568 -50.766  13.297  1.00  0.00     0.168 C 
BRANCH  11  12
HETATM   12  C   UNL     1     -43.456 -51.769  12.539  1.00  0.00     0.172 C 
BRANCH  12  13
HETATM   13  O   UNL     1     -42.648 -52.746  11.863  1.00  0.00    -0.389 OA
HETATM   14  H   UNL     1     -43.228 -53.280  11.295  1.00  0.00     0.210 HD
ENDBRANCH  12  13
BRANCH  12  15
HETATM   15  C   UNL     1     -44.480 -52.551  13.347  1.00  0.00     0.013 A 
HETATM   16  C   UNL     1     -44.589 -53.939  13.134  1.00  0.00     0.055 A 
HETATM   17  C   UNL     1     -45.526 -54.701  13.831  1.00  0.00     0.117 A 
HETATM   18  F   UNL     1     -45.598 -56.021  13.615  1.00  0.00    -0.206 F 
HETATM   19  C   UNL     1     -46.385 -54.111  14.746  1.00  0.00     0.045 A 
HETATM   20  C   UNL     1     -46.297 -52.740  14.972  1.00  0.00     0.046 A 
HETATM   21  C   UNL     1     -45.352 -51.977  14.282  1.00  0.00     0.125 A 
HETATM   22  F   UNL     1     -45.302 -50.668  14.557  1.00  0.00    -0.205 F 
ENDBRANCH  12  15
ENDBRANCH  11  12
ENDBRANCH  10  11
BRANCH   1  23
HETATM   23  N   UNL     1     -42.809 -48.862  11.109  1.00  0.00    -0.262 NA
HETATM   24  H   UNL     1     -43.505 -48.914  11.859  1.00  0.00     0.130 HD
BRANCH  23  25
HETATM   25  C   UNL     1     -42.826 -47.476  10.615  1.00  0.00     0.121 C 
BRANCH  25  26
HETATM   26  C   UNL     1     -43.547 -47.431   9.266  1.00  0.00     0.178 C 
BRANCH  26  27
HETATM   27  O   UNL     1     -42.782 -48.131   8.281  1.00  0.00    -0.400 OA
HETATM   28  H   UNL     1     -42.075 -47.527   7.995  1.00  0.00     0.209 HD
ENDBRANCH  26  27
ENDBRANCH  25  26
ENDBRANCH  23  25
ENDBRANCH   1  23
TORSDOF 8
ENDMDL
MODEL 7
REMARK VINA RESULT:      -6.3      3.014      5.298
REMARK  8 active torsions:
REMARK  status: ('A' for Active; 'I' for Inactive)
REMARK    1  A    between atoms: O_1  and  C_2 
REMARK    2  A    between atoms: C_2  and  C_3 
REMARK    3  A    between atoms: C_3  and  N_4 
REMARK    4  A    between atoms: N_4  and  C_5 
REMARK    5  A    between atoms: N_14  and  C_15 
REMARK    6  A    between atoms: C_15  and  C_16 
REMARK    7  A    between atoms: C_16  and  O_17 
REMARK    8  A    between atoms: C_16  and  C_18 
ROOT
HETATM    1  C   UNL     1     -41.372 -52.904  12.959  1.00  0.00     0.160 A 
HETATM    2  N   UNL     1     -42.289 -53.833  12.848  1.00  0.00    -0.331 N 
ATOM      3  HN  UNL     1     -42.141 -54.834  12.720  1.00  0.00     0.168 HD
HETATM    4  C   UNL     1     -43.489 -53.178  12.940  1.00  0.00     0.061 A 
HETATM    5  C   UNL     1     -44.791 -53.704  12.912  1.00  0.00     0.032 A 
HETATM    6  C   UNL     1     -45.876 -52.823  12.981  1.00  0.00     0.002 A 
HETATM    7  C   UNL     1     -45.670 -51.446  13.079  1.00  0.00     0.002 A 
HETATM    8  C   UNL     1     -44.379 -50.905  13.140  1.00  0.00     0.032 A 
HETATM    9  C   UNL     1     -43.306 -51.803  13.075  1.00  0.00     0.063 A 
HETATM   10  N   UNL     1     -41.937 -51.659  13.115  1.00  0.00    -0.319 N 
ENDROOT
BRANCH  10  11
HETATM   11  C   UNL     1     -41.198 -50.422  13.317  1.00  0.00     0.168 C 
BRANCH  11  12
HETATM   12  C   UNL     1     -40.649 -49.825  12.009  1.00  0.00     0.172 C 
BRANCH  12  13
HETATM   13  O   UNL     1     -40.730 -50.785  10.944  1.00  0.00    -0.389 OA
HETATM   14  H   UNL     1     -41.227 -51.554  11.266  1.00  0.00     0.210 HD
ENDBRANCH  12  13
BRANCH  12  15
HETATM   15  C   UNL     1     -41.305 -48.556  11.488  1.00  0.00     0.013 A 
HETATM   16  C   UNL     1     -42.687 -48.574  11.218  1.00  0.00     0.055 A 
HETATM   17  C   UNL     1     -43.336 -47.446  10.717  1.00  0.00     0.117 A 
HETATM   18  F   UNL     1     -44.653 -47.491  10.480  1.00  0.00    -0.206 F 
HETATM   19  C   UNL     1     -42.635 -46.276  10.460  1.00  0.00     0.045 A 
HETATM   20  C   UNL     1     -41.268 -46.235  10.718  1.00  0.00     0.046 A 
HETATM   21  C   UNL     1     -40.618 -47.362  11.229  1.00  0.00     0.125 A 
HETATM   22  F   UNL     1     -39.307 -47.254  11.476  1.00  0.00    -0.205 F 
ENDBRANCH  12  15
ENDBRANCH  11  12
ENDBRANCH  10  11
BRANCH   1  23
HETATM   23  N   UNL     1     -40.025 -53.056  12.920  1.00  0.00    -0.262 NA
HETATM   24  H   UNL     1     -39.549 -52.296  12.425  1.00  0.00     0.130 HD
BRANCH  23  25
HETATM   25  C   UNL     1     -39.369 -53.178  14.232  1.00  0.00     0.121 C 
BRANCH  25  26
HETATM   26  C   UNL     1     -39.079 -54.653  14.515  1.00  0.00     0.178 C 
BRANCH  26  27
HETATM   27  O   UNL     1     -38.731 -55.323  13.300  1.00  0.00    -0.400 OA
HETATM   28  H   UNL     1     -37.880 -54.954  13.011  1.00  0.00     0.209 HD
ENDBRANCH  26  27
ENDBRANCH  25  26
ENDBRANCH  23  25
ENDBRANCH   1  23
TORSDOF 8
ENDMDL
MODEL 8
REMARK VINA RESULT:      -6.2      3.023      5.347
REMARK  8 active torsions:
REMARK  status: ('A' for Active; 'I' for Inactive)
REMARK    1  A    between atoms: O_1  and  C_2 
REMARK    2  A    between atoms: C_2  and  C_3 
REMARK    3  A    between atoms: C_3  and  N_4 
REMARK    4  A    between atoms: N_4  and  C_5 
REMARK    5  A    between atoms: N_14  and  C_15 
REMARK    6  A    between atoms: C_15  and  C_16 
REMARK    7  A    between atoms: C_16  and  O_17 
REMARK    8  A    between atoms: C_16  and  C_18 
ROOT
HETATM    1  C   UNL     1     -41.236 -52.642  12.214  1.00  0.00     0.160 A 
HETATM    2  N   UNL     1     -42.439 -52.254  11.871  1.00  0.00    -0.331 N 
ATOM      3  HN  UNL     1     -42.685 -51.499  11.231  1.00  0.00     0.168 HD
HETATM    4  C   UNL     1     -43.298 -53.077  12.551  1.00  0.00     0.061 A 
HETATM    5  C   UNL     1     -44.702 -53.111  12.523  1.00  0.00     0.032 A 
HETATM    6  C   UNL     1     -45.371 -54.023  13.348  1.00  0.00     0.002 A 
HETATM    7  C   UNL     1     -44.657 -54.885  14.181  1.00  0.00     0.002 A 
HETATM    8  C   UNL     1     -43.257 -54.887  14.200  1.00  0.00     0.032 A 
HETATM    9  C   UNL     1     -42.605 -53.972  13.364  1.00  0.00     0.063 A 
HETATM   10  N   UNL     1     -41.282 -53.691  13.104  1.00  0.00    -0.319 N 
ENDROOT
BRANCH  10  11
HETATM   11  C   UNL     1     -40.124 -54.387  13.641  1.00  0.00     0.168 C 
BRANCH  11  12
HETATM   12  C   UNL     1     -39.796 -53.988  15.091  1.00  0.00     0.172 C 
BRANCH  12  13
HETATM   13  O   UNL     1     -40.655 -52.922  15.527  1.00  0.00    -0.389 OA
HETATM   14  H   UNL     1     -40.146 -52.096  15.512  1.00  0.00     0.210 HD
ENDBRANCH  12  13
BRANCH  12  15
HETATM   15  C   UNL     1     -39.889 -55.070  16.155  1.00  0.00     0.013 A 
HETATM   16  C   UNL     1     -41.093 -55.206  16.874  1.00  0.00     0.055 A 
HETATM   17  C   UNL     1     -41.227 -56.166  17.876  1.00  0.00     0.117 A 
HETATM   18  F   UNL     1     -42.387 -56.278  18.535  1.00  0.00    -0.206 F 
HETATM   19  C   UNL     1     -40.173 -57.009  18.200  1.00  0.00     0.045 A 
HETATM   20  C   UNL     1     -38.974 -56.893  17.504  1.00  0.00     0.046 A 
HETATM   21  C   UNL     1     -38.841 -55.937  16.493  1.00  0.00     0.125 A 
HETATM   22  F   UNL     1     -37.671 -55.887  15.846  1.00  0.00    -0.205 F 
ENDBRANCH  12  15
ENDBRANCH  11  12
ENDBRANCH  10  11
BRANCH   1  23
HETATM   23  N   UNL     1     -40.049 -52.127  11.809  1.00  0.00    -0.262 NA
HETATM   24  H   UNL     1     -40.011 -51.951  10.800  1.00  0.00     0.130 HD
BRANCH  23  25
HETATM   25  C   UNL     1     -39.649 -50.874  12.469  1.00  0.00     0.121 C 
BRANCH  25  26
HETATM   26  C   UNL     1     -39.596 -49.752  11.429  1.00  0.00     0.178 C 
BRANCH  26  27
HETATM   27  O   UNL     1     -40.456 -50.065  10.331  1.00  0.00    -0.400 OA
HETATM   28  H   UNL     1     -39.913 -50.015   9.526  1.00  0.00     0.209 HD
ENDBRANCH  26  27
ENDBRANCH  25  26
ENDBRANCH  23  25
ENDBRANCH   1  23
TORSDOF 8
ENDMDL
MODEL 9
REMARK VINA RESULT:      -6.1      2.820      4.709
REMARK  8 active torsions:
REMARK  status: ('A' for Active; 'I' for Inactive)
REMARK    1  A    between atoms: O_1  and  C_2 
REMARK    2  A    between atoms: C_2  and  C_3 
REMARK    3  A    between atoms: C_3  and  N_4 
REMARK    4  A    between atoms: N_4  and  C_5 
REMARK    5  A    between atoms: N_14  and  C_15 
REMARK    6  A    between atoms: C_15  and  C_16 
REMARK    7  A    between atoms: C_16  and  O_17 
REMARK    8  A    between atoms: C_16  and  C_18 
ROOT
HETATM    1  C   UNL     1     -40.805 -49.260  11.222  1.00  0.00     0.160 A 
HETATM    2  N   UNL     1     -39.573 -48.817  11.254  1.00  0.00    -0.331 N 
ATOM      3  HN  UNL     1     -39.125 -48.190  10.585  1.00  0.00     0.168 HD
HETATM    4  C   UNL     1     -39.011 -49.374  12.373  1.00  0.00     0.061 A 
HETATM    5  C   UNL     1     -37.717 -49.208  12.892  1.00  0.00     0.032 A 
HETATM    6  C   UNL     1     -37.353 -49.923  14.038  1.00  0.00     0.002 A 
HETATM    7  C   UNL     1     -38.260 -50.783  14.658  1.00  0.00     0.002 A 
HETATM    8  C   UNL     1     -39.565 -50.939  14.172  1.00  0.00     0.032 A 
HETATM    9  C   UNL     1     -39.913 -50.211  13.028  1.00  0.00     0.063 A 
HETATM   10  N   UNL     1     -41.066 -50.095  12.285  1.00  0.00    -0.319 N 
ENDROOT
BRANCH  10  11
HETATM   11  C   UNL     1     -42.351 -50.711  12.572  1.00  0.00     0.168 C 
BRANCH  11  12
HETATM   12  C   UNL     1     -42.452 -52.163  12.069  1.00  0.00     0.172 C 
BRANCH  12  13
HETATM   13  O   UNL     1     -41.235 -52.554  11.413  1.00  0.00    -0.389 OA
HETATM   14  H   UNL     1     -41.008 -53.452  11.705  1.00  0.00     0.210 HD
ENDBRANCH  12  13
BRANCH  12  15
HETATM   15  C   UNL     1     -42.746 -53.243  13.098  1.00  0.00     0.013 A 
HETATM   16  C   UNL     1     -41.692 -53.705  13.910  1.00  0.00     0.055 A 
HETATM   17  C   UNL     1     -41.900 -54.709  14.855  1.00  0.00     0.117 A 
HETATM   18  F   UNL     1     -40.880 -55.120  15.619  1.00  0.00    -0.206 F 
HETATM   19  C   UNL     1     -43.150 -55.290  15.013  1.00  0.00     0.045 A 
HETATM   20  C   UNL     1     -44.207 -54.851  14.221  1.00  0.00     0.046 A 
HETATM   21  C   UNL     1     -44.002 -53.837  13.281  1.00  0.00     0.125 A 
HETATM   22  F   UNL     1     -45.061 -53.444  12.563  1.00  0.00    -0.205 F 
ENDBRANCH  12  15
ENDBRANCH  11  12
ENDBRANCH  10  11
BRANCH   1  23
HETATM   23  N   UNL     1     -41.761 -48.995  10.297  1.00  0.00    -0.262 NA
HETATM   24  H   UNL     1     -42.536 -49.665  10.317  1.00  0.00     0.130 HD
BRANCH  23  25
HETATM   25  C   UNL     1     -42.363 -47.654  10.381  1.00  0.00     0.121 C 
BRANCH  25  26
HETATM   26  C   UNL     1     -43.200 -47.399   9.126  1.00  0.00     0.178 C 
BRANCH  26  27
HETATM   27  O   UNL     1     -42.691 -46.261   8.424  1.00  0.00    -0.400 OA
HETATM   28  H   UNL     1     -42.231 -45.710   9.080  1.00  0.00     0.209 HD
ENDBRANCH  26  27
ENDBRANCH  25  26
ENDBRANCH  23  25
ENDBRANCH   1  23
TORSDOF 8
ENDMDL
