MODEL 1
REMARK VINA RESULT:      -6.0      0.000      0.000
REMARK  3 active torsions:
REMARK  status: ('A' for Active; 'I' for Inactive)
REMARK       I    between atoms: C_2  and  N_3 
REMARK       I    between atoms: C_2  and  N_12 
REMARK    1  A    between atoms: N_3  and  C_4 
REMARK    2  A    between atoms: C_4  and  C_5 
REMARK    3  A    between atoms: N_12  and  C_13 
ROOT
HETATM    1  O   UNL     1     -42.130 -48.088  11.856  1.00  0.00    -0.247 OA
HETATM    2  C   UNL     1     -41.755 -48.523  10.780  1.00  0.00     0.320 C 
HETATM    3  N   UNL     1     -40.678 -49.389  10.675  1.00  0.00    -0.342 N 
HETATM    4  N   UNL     1     -42.330 -48.273   9.552  1.00  0.00    -0.309 N 
HETATM    5  H   UNL     1     -40.134 -49.270   9.834  1.00  0.00     0.164 HD
HETATM    6  H   UNL     1     -42.109 -48.935   8.824  1.00  0.00     0.170 HD
ENDROOT
BRANCH   3   7
HETATM    7  C   UNL     1     -39.939 -49.689  11.889  1.00  0.00     0.130 C 
BRANCH   7   8
HETATM    8  C   UNL     1     -39.907 -51.176  12.226  1.00  0.00     0.018 C 
HETATM    9  C   UNL     1     -41.284 -51.857  12.051  1.00  0.00     0.022 C 
HETATM   10  C   UNL     1     -41.489 -52.941  13.110  1.00  0.00     0.141 C 
HETATM   11  S   UNL     1     -40.001 -53.016  14.080  1.00  0.00     0.144 S 
HETATM   12  O   UNL     1     -40.341 -53.076  15.485  1.00  0.00    -0.228 OA
HETATM   13  O   UNL     1     -39.093 -53.956  13.458  1.00  0.00    -0.228 OA
HETATM   14  C   UNL     1     -39.471 -51.377  13.677  1.00  0.00     0.146 C 
ENDBRANCH   7   8
ENDBRANCH   3   7
BRANCH   4  15
HETATM   15  C   UNL     1     -43.407 -47.387   9.317  1.00  0.00     0.038 A 
HETATM   16  C   UNL     1     -43.240 -46.012   9.150  1.00  0.00     0.046 A 
HETATM   17  C   UNL     1     -44.362 -45.224   8.952  1.00  0.00     0.090 A 
HETATM   18  N   UNL     1     -45.620 -45.709   8.897  1.00  0.00    -0.375 N 
HETATM   19  C   UNL     1     -45.755 -47.042   9.043  1.00  0.00     0.090 A 
ATOM     20  HN  UNL     1     -46.425 -45.099   8.753  1.00  0.00     0.164 HD
HETATM   21  C   UNL     1     -44.693 -47.913   9.242  1.00  0.00     0.046 A 
ENDBRANCH   4  15
TORSDOF 3
ENDMDL
MODEL 2
REMARK VINA RESULT:      -6.0      3.486      6.987
REMARK  3 active torsions:
REMARK  status: ('A' for Active; 'I' for Inactive)
REMARK       I    between atoms: C_2  and  N_3 
REMARK       I    between atoms: C_2  and  N_12 
REMARK    1  A    between atoms: N_3  and  C_4 
REMARK    2  A    between atoms: C_4  and  C_5 
REMARK    3  A    between atoms: N_12  and  C_13 
ROOT
HETATM    1  O   UNL     1     -41.209 -50.996  13.303  1.00  0.00    -0.247 OA
HETATM    2  C   UNL     1     -41.450 -51.337  12.156  1.00  0.00     0.320 C 
HETATM    3  N   UNL     1     -40.916 -50.670  11.066  1.00  0.00    -0.342 N 
HETATM    4  N   UNL     1     -42.225 -52.410  11.770  1.00  0.00    -0.309 N 
HETATM    5  H   UNL     1     -41.526 -50.640  10.262  1.00  0.00     0.164 HD
HETATM    6  H   UNL     1     -42.074 -52.740  10.829  1.00  0.00     0.170 HD
ENDROOT
BRANCH   3   7
HETATM    7  C   UNL     1     -40.129 -49.478  11.329  1.00  0.00     0.130 C 
BRANCH   7   8
HETATM    8  C   UNL     1     -40.970 -48.211  11.445  1.00  0.00     0.018 C 
HETATM    9  C   UNL     1     -42.095 -48.142  10.387  1.00  0.00     0.022 C 
HETATM   10  C   UNL     1     -42.319 -46.700   9.929  1.00  0.00     0.141 C 
HETATM   11  S   UNL     1     -41.218 -45.672  10.873  1.00  0.00     0.144 S 
HETATM   12  O   UNL     1     -40.567 -44.725   9.994  1.00  0.00    -0.228 OA
HETATM   13  O   UNL     1     -41.891 -45.271  12.089  1.00  0.00    -0.228 OA
HETATM   14  C   UNL     1     -40.088 -46.976  11.265  1.00  0.00     0.146 C 
ENDBRANCH   7   8
ENDBRANCH   3   7
BRANCH   4  15
HETATM   15  C   UNL     1     -42.953 -53.252  12.642  1.00  0.00     0.038 A 
HETATM   16  C   UNL     1     -42.352 -54.010  13.648  1.00  0.00     0.046 A 
HETATM   17  C   UNL     1     -43.149 -54.826  14.433  1.00  0.00     0.090 A 
HETATM   18  N   UNL     1     -44.488 -54.925  14.296  1.00  0.00    -0.375 N 
HETATM   19  C   UNL     1     -45.049 -54.170  13.331  1.00  0.00     0.090 A 
ATOM     20  HN  UNL     1     -45.045 -55.539  14.890  1.00  0.00     0.164 HD
HETATM   21  C   UNL     1     -44.335 -53.321  12.497  1.00  0.00     0.046 A 
ENDBRANCH   4  15
TORSDOF 3
ENDMDL
MODEL 3
REMARK VINA RESULT:      -5.9      3.491      6.871
REMARK  3 active torsions:
REMARK  status: ('A' for Active; 'I' for Inactive)
REMARK       I    between atoms: C_2  and  N_3 
REMARK       I    between atoms: C_2  and  N_12 
REMARK    1  A    between atoms: N_3  and  C_4 
REMARK    2  A    between atoms: C_4  and  C_5 
REMARK    3  A    between atoms: N_12  and  C_13 
ROOT
HETATM    1  O   UNL     1     -41.234 -50.814  13.325  1.00  0.00    -0.247 OA
HETATM    2  C   UNL     1     -41.388 -51.156  12.164  1.00  0.00     0.320 C 
HETATM    3  N   UNL     1     -40.798 -50.472  11.114  1.00  0.00    -0.342 N 
HETATM    4  N   UNL     1     -42.106 -52.247  11.723  1.00  0.00    -0.309 N 
HETATM    5  H   UNL     1     -41.353 -50.454  10.271  1.00  0.00     0.164 HD
HETATM    6  H   UNL     1     -41.884 -52.570  10.794  1.00  0.00     0.170 HD
ENDROOT
BRANCH   3   7
HETATM    7  C   UNL     1     -40.061 -49.261  11.433  1.00  0.00     0.130 C 
BRANCH   7   8
HETATM    8  C   UNL     1     -40.847 -47.984  11.152  1.00  0.00     0.018 C 
HETATM    9  C   UNL     1     -41.522 -47.407  12.417  1.00  0.00     0.022 C 
HETATM   10  C   UNL     1     -42.871 -46.777  12.071  1.00  0.00     0.141 C 
HETATM   11  S   UNL     1     -43.077 -46.911  10.310  1.00  0.00     0.144 S 
HETATM   12  O   UNL     1     -44.416 -47.369  10.012  1.00  0.00    -0.228 OA
HETATM   13  O   UNL     1     -42.499 -45.739   9.689  1.00  0.00    -0.228 OA
HETATM   14  C   UNL     1     -41.945 -48.258  10.124  1.00  0.00     0.146 C 
ENDBRANCH   7   8
ENDBRANCH   3   7
BRANCH   4  15
HETATM   15  C   UNL     1     -42.871 -53.111  12.542  1.00  0.00     0.038 A 
HETATM   16  C   UNL     1     -44.257 -53.234  12.435  1.00  0.00     0.046 A 
HETATM   17  C   UNL     1     -44.918 -54.087  13.303  1.00  0.00     0.090 A 
HETATM   18  N   UNL     1     -44.299 -54.825  14.248  1.00  0.00    -0.375 N 
HETATM   19  C   UNL     1     -42.959 -54.703  14.321  1.00  0.00     0.090 A 
ATOM     20  HN  UNL     1     -44.818 -55.441  14.874  1.00  0.00     0.164 HD
HETATM   21  C   UNL     1     -42.208 -53.879  13.495  1.00  0.00     0.046 A 
ENDBRANCH   4  15
TORSDOF 3
ENDMDL
MODEL 4
REMARK VINA RESULT:      -5.9      3.724      6.359
REMARK  3 active torsions:
REMARK  status: ('A' for Active; 'I' for Inactive)
REMARK       I    between atoms: C_2  and  N_3 
REMARK       I    between atoms: C_2  and  N_12 
REMARK    1  A    between atoms: N_3  and  C_4 
REMARK    2  A    between atoms: C_4  and  C_5 
REMARK    3  A    between atoms: N_12  and  C_13 
ROOT
HETATM    1  O   UNL     1     -41.683 -51.923  13.583  1.00  0.00    -0.247 OA
HETATM    2  C   UNL     1     -41.953 -51.985  12.395  1.00  0.00     0.320 C 
HETATM    3  N   UNL     1     -41.092 -51.503  11.422  1.00  0.00    -0.342 N 
HETATM    4  N   UNL     1     -43.083 -52.548  11.843  1.00  0.00    -0.309 N 
HETATM    5  H   UNL     1     -41.557 -51.112  10.617  1.00  0.00     0.164 HD
HETATM    6  H   UNL     1     -43.014 -52.799  10.868  1.00  0.00     0.170 HD
ENDROOT
BRANCH   3   7
HETATM    7  C   UNL     1     -39.887 -50.825  11.869  1.00  0.00     0.130 C 
BRANCH   7   8
HETATM    8  C   UNL     1     -39.976 -49.306  11.767  1.00  0.00     0.018 C 
HETATM    9  C   UNL     1     -40.229 -48.629  13.134  1.00  0.00     0.022 C 
HETATM   10  C   UNL     1     -41.125 -47.401  12.971  1.00  0.00     0.141 C 
HETATM   11  S   UNL     1     -41.455 -47.218  11.234  1.00  0.00     0.144 S 
HETATM   12  O   UNL     1     -42.862 -46.951  11.033  1.00  0.00    -0.228 OA
HETATM   13  O   UNL     1     -40.416 -46.395  10.653  1.00  0.00    -0.228 OA
HETATM   14  C   UNL     1     -41.119 -48.908  10.834  1.00  0.00     0.146 C 
ENDBRANCH   7   8
ENDBRANCH   3   7
BRANCH   4  15
HETATM   15  C   UNL     1     -44.176 -53.074  12.571  1.00  0.00     0.038 A 
HETATM   16  C   UNL     1     -44.233 -54.397  13.012  1.00  0.00     0.046 A 
HETATM   17  C   UNL     1     -45.360 -54.823  13.694  1.00  0.00     0.090 A 
HETATM   18  N   UNL     1     -46.414 -54.028  13.974  1.00  0.00    -0.375 N 
HETATM   19  C   UNL     1     -46.329 -52.750  13.555  1.00  0.00     0.090 A 
ATOM     20  HN  UNL     1     -47.231 -54.376  14.477  1.00  0.00     0.164 HD
HETATM   21  C   UNL     1     -45.241 -52.229  12.868  1.00  0.00     0.046 A 
ENDBRANCH   4  15
TORSDOF 3
ENDMDL
MODEL 5
REMARK VINA RESULT:      -5.8      4.514      7.353
REMARK  3 active torsions:
REMARK  status: ('A' for Active; 'I' for Inactive)
REMARK       I    between atoms: C_2  and  N_3 
REMARK       I    between atoms: C_2  and  N_12 
REMARK    1  A    between atoms: N_3  and  C_4 
REMARK    2  A    between atoms: C_4  and  C_5 
REMARK    3  A    between atoms: N_12  and  C_13 
ROOT
HETATM    1  O   UNL     1     -43.582 -50.515  14.469  1.00  0.00    -0.247 OA
HETATM    2  C   UNL     1     -43.837 -50.555  13.276  1.00  0.00     0.320 C 
HETATM    3  N   UNL     1     -43.340 -49.613  12.389  1.00  0.00    -0.342 N 
HETATM    4  N   UNL     1     -44.592 -51.513  12.634  1.00  0.00    -0.309 N 
HETATM    5  H   UNL     1     -43.966 -49.394  11.629  1.00  0.00     0.164 HD
HETATM    6  H   UNL     1     -44.452 -51.584  11.638  1.00  0.00     0.170 HD
ENDROOT
BRANCH   3   7
HETATM    7  C   UNL     1     -42.577 -48.508  12.943  1.00  0.00     0.130 C 
BRANCH   7   8
HETATM    8  C   UNL     1     -42.835 -47.181  12.236  1.00  0.00     0.018 C 
HETATM    9  C   UNL     1     -43.480 -47.363  10.842  1.00  0.00     0.022 C 
HETATM   10  C   UNL     1     -42.966 -46.304   9.866  1.00  0.00     0.141 C 
HETATM   11  S   UNL     1     -41.869 -45.240  10.776  1.00  0.00     0.144 S 
HETATM   12  O   UNL     1     -40.671 -45.004  10.002  1.00  0.00    -0.228 OA
HETATM   13  O   UNL     1     -42.646 -44.165  11.355  1.00  0.00    -0.228 OA
HETATM   14  C   UNL     1     -41.522 -46.424  12.044  1.00  0.00     0.146 C 
ENDBRANCH   7   8
ENDBRANCH   3   7
BRANCH   4  15
HETATM   15  C   UNL     1     -45.282 -52.572  13.268  1.00  0.00     0.038 A 
HETATM   16  C   UNL     1     -46.435 -52.382  14.031  1.00  0.00     0.046 A 
HETATM   17  C   UNL     1     -47.023 -53.481  14.634  1.00  0.00     0.090 A 
HETATM   18  N   UNL     1     -46.554 -54.741  14.520  1.00  0.00    -0.375 N 
HETATM   19  C   UNL     1     -45.450 -54.903  13.763  1.00  0.00     0.090 A 
ATOM     20  HN  UNL     1     -47.011 -55.528  14.982  1.00  0.00     0.164 HD
HETATM   21  C   UNL     1     -44.793 -53.866  13.117  1.00  0.00     0.046 A 
ENDBRANCH   4  15
TORSDOF 3
ENDMDL
MODEL 6
REMARK VINA RESULT:      -5.7      3.305      4.270
REMARK  3 active torsions:
REMARK  status: ('A' for Active; 'I' for Inactive)
REMARK       I    between atoms: C_2  and  N_3 
REMARK       I    between atoms: C_2  and  N_12 
REMARK    1  A    between atoms: N_3  and  C_4 
REMARK    2  A    between atoms: C_4  and  C_5 
REMARK    3  A    between atoms: N_12  and  C_13 
ROOT
HETATM    1  O   UNL     1     -42.067 -49.840  13.314  1.00  0.00    -0.247 OA
HETATM    2  C   UNL     1     -41.962 -50.358  12.214  1.00  0.00     0.320 C 
HETATM    3  N   UNL     1     -42.119 -51.722  12.028  1.00  0.00    -0.342 N 
HETATM    4  N   UNL     1     -41.719 -49.705  11.025  1.00  0.00    -0.309 N 
HETATM    5  H   UNL     1     -41.531 -52.109  11.304  1.00  0.00     0.164 HD
HETATM    6  H   UNL     1     -41.968 -50.212  10.189  1.00  0.00     0.170 HD
ENDROOT
BRANCH   3   7
HETATM    7  C   UNL     1     -42.318 -52.541  13.211  1.00  0.00     0.130 C 
BRANCH   7   8
HETATM    8  C   UNL     1     -43.591 -53.380  13.157  1.00  0.00     0.018 C 
HETATM    9  C   UNL     1     -44.851 -52.535  12.861  1.00  0.00     0.022 C 
HETATM   10  C   UNL     1     -46.062 -53.086  13.616  1.00  0.00     0.141 C 
HETATM   11  S   UNL     1     -45.521 -54.540  14.484  1.00  0.00     0.144 S 
HETATM   12  O   UNL     1     -46.029 -54.512  15.838  1.00  0.00    -0.228 OA
HETATM   13  O   UNL     1     -45.686 -55.685  13.614  1.00  0.00    -0.228 OA
HETATM   14  C   UNL     1     -43.811 -54.087  14.494  1.00  0.00     0.146 C 
ENDBRANCH   7   8
ENDBRANCH   3   7
BRANCH   4  15
HETATM   15  C   UNL     1     -41.456 -48.321  10.888  1.00  0.00     0.038 A 
HETATM   16  C   UNL     1     -40.273 -47.724  11.325  1.00  0.00     0.046 A 
HETATM   17  C   UNL     1     -40.122 -46.356  11.171  1.00  0.00     0.090 A 
HETATM   18  N   UNL     1     -41.051 -45.556  10.607  1.00  0.00    -0.375 N 
HETATM   19  C   UNL     1     -42.178 -46.158  10.175  1.00  0.00     0.090 A 
ATOM     20  HN  UNL     1     -40.909 -44.551  10.512  1.00  0.00     0.164 HD
HETATM   21  C   UNL     1     -42.419 -47.521  10.282  1.00  0.00     0.046 A 
ENDBRANCH   4  15
TORSDOF 3
ENDMDL
MODEL 7
REMARK VINA RESULT:      -5.6      2.357      2.783
REMARK  3 active torsions:
REMARK  status: ('A' for Active; 'I' for Inactive)
REMARK       I    between atoms: C_2  and  N_3 
REMARK       I    between atoms: C_2  and  N_12 
REMARK    1  A    between atoms: N_3  and  C_4 
REMARK    2  A    between atoms: C_4  and  C_5 
REMARK    3  A    between atoms: N_12  and  C_13 
ROOT
HETATM    1  O   UNL     1     -42.291 -48.904  11.765  1.00  0.00    -0.247 OA
HETATM    2  C   UNL     1     -41.617 -48.910  10.748  1.00  0.00     0.320 C 
HETATM    3  N   UNL     1     -40.479 -49.691  10.627  1.00  0.00    -0.342 N 
HETATM    4  N   UNL     1     -41.879 -48.207   9.591  1.00  0.00    -0.309 N 
HETATM    5  H   UNL     1     -39.751 -49.274  10.067  1.00  0.00     0.164 HD
HETATM    6  H   UNL     1     -41.424 -48.550   8.759  1.00  0.00     0.170 HD
ENDROOT
BRANCH   3   7
HETATM    7  C   UNL     1     -40.052 -50.438  11.798  1.00  0.00     0.130 C 
BRANCH   7   8
HETATM    8  C   UNL     1     -38.902 -49.776  12.550  1.00  0.00     0.018 C 
HETATM    9  C   UNL     1     -37.840 -50.790  13.032  1.00  0.00     0.022 C 
HETATM   10  C   UNL     1     -37.261 -50.367  14.382  1.00  0.00     0.141 C 
HETATM   11  S   UNL     1     -38.016 -48.817  14.815  1.00  0.00     0.144 S 
HETATM   12  O   UNL     1     -38.426 -48.848  16.201  1.00  0.00    -0.228 OA
HETATM   13  O   UNL     1     -37.214 -47.745  14.264  1.00  0.00    -0.228 OA
HETATM   14  C   UNL     1     -39.434 -49.042  13.781  1.00  0.00     0.146 C 
ENDBRANCH   7   8
ENDBRANCH   3   7
BRANCH   4  15
HETATM   15  C   UNL     1     -42.932 -47.279   9.417  1.00  0.00     0.038 A 
HETATM   16  C   UNL     1     -42.771 -45.903   9.582  1.00  0.00     0.046 A 
HETATM   17  C   UNL     1     -43.871 -45.079   9.416  1.00  0.00     0.090 A 
HETATM   18  N   UNL     1     -45.101 -45.525   9.087  1.00  0.00    -0.375 N 
HETATM   19  C   UNL     1     -45.229 -46.856   8.914  1.00  0.00     0.090 A 
ATOM     20  HN  UNL     1     -45.892 -44.890   8.976  1.00  0.00     0.164 HD
HETATM   21  C   UNL     1     -44.187 -47.761   9.056  1.00  0.00     0.046 A 
ENDBRANCH   4  15
TORSDOF 3
ENDMDL
MODEL 8
REMARK VINA RESULT:      -5.5      4.161      6.142
REMARK  3 active torsions:
REMARK  status: ('A' for Active; 'I' for Inactive)
REMARK       I    between atoms: C_2  and  N_3 
REMARK       I    between atoms: C_2  and  N_12 
REMARK    1  A    between atoms: N_3  and  C_4 
REMARK    2  A    between atoms: C_4  and  C_5 
REMARK    3  A    between atoms: N_12  and  C_13 
ROOT
HETATM    1  O   UNL     1     -42.239 -50.722  12.936  1.00  0.00    -0.247 OA
HETATM    2  C   UNL     1     -41.684 -51.523  12.203  1.00  0.00     0.320 C 
HETATM    3  N   UNL     1     -40.671 -51.145  11.336  1.00  0.00    -0.342 N 
HETATM    4  N   UNL     1     -41.930 -52.878  12.140  1.00  0.00    -0.309 N 
HETATM    5  H   UNL     1     -40.656 -51.662  10.470  1.00  0.00     0.164 HD
HETATM    6  H   UNL     1     -41.197 -53.437  11.731  1.00  0.00     0.170 HD
ENDROOT
BRANCH   3   7
HETATM    7  C   UNL     1     -40.353 -49.730  11.255  1.00  0.00     0.130 C 
BRANCH   7   8
HETATM    8  C   UNL     1     -39.123 -49.340  12.068  1.00  0.00     0.018 C 
HETATM    9  C   UNL     1     -38.165 -50.529  12.311  1.00  0.00     0.022 C 
HETATM   10  C   UNL     1     -37.515 -50.427  13.691  1.00  0.00     0.141 C 
HETATM   11  S   UNL     1     -38.090 -48.917  14.432  1.00  0.00     0.144 S 
HETATM   12  O   UNL     1     -38.472 -49.165  15.805  1.00  0.00    -0.228 OA
HETATM   13  O   UNL     1     -37.190 -47.848  14.056  1.00  0.00    -0.228 OA
HETATM   14  C   UNL     1     -39.546 -48.800  13.434  1.00  0.00     0.146 C 
ENDBRANCH   7   8
ENDBRANCH   3   7
BRANCH   4  15
HETATM   15  C   UNL     1     -42.941 -53.562  12.856  1.00  0.00     0.038 A 
HETATM   16  C   UNL     1     -44.284 -53.549  12.477  1.00  0.00     0.046 A 
HETATM   17  C   UNL     1     -45.202 -54.227  13.261  1.00  0.00     0.090 A 
HETATM   18  N   UNL     1     -44.877 -54.919  14.373  1.00  0.00    -0.375 N 
HETATM   19  C   UNL     1     -43.571 -54.932  14.709  1.00  0.00     0.090 A 
ATOM     20  HN  UNL     1     -45.580 -55.405  14.929  1.00  0.00     0.164 HD
HETATM   21  C   UNL     1     -42.577 -54.287  13.987  1.00  0.00     0.046 A 
ENDBRANCH   4  15
TORSDOF 3
ENDMDL
MODEL 9
REMARK VINA RESULT:      -5.1      3.953      5.963
REMARK  3 active torsions:
REMARK  status: ('A' for Active; 'I' for Inactive)
REMARK       I    between atoms: C_2  and  N_3 
REMARK       I    between atoms: C_2  and  N_12 
REMARK    1  A    between atoms: N_3  and  C_4 
REMARK    2  A    between atoms: C_4  and  C_5 
REMARK    3  A    between atoms: N_12  and  C_13 
ROOT
HETATM    1  O   UNL     1     -43.473 -50.699  14.553  1.00  0.00    -0.247 OA
HETATM    2  C   UNL     1     -43.485 -50.863  13.344  1.00  0.00     0.320 C 
HETATM    3  N   UNL     1     -42.806 -50.018  12.483  1.00  0.00    -0.342 N 
HETATM    4  N   UNL     1     -44.113 -51.886  12.665  1.00  0.00    -0.309 N 
HETATM    5  H   UNL     1     -43.263 -49.881  11.593  1.00  0.00     0.164 HD
HETATM    6  H   UNL     1     -43.777 -52.060  11.730  1.00  0.00     0.170 HD
ENDROOT
BRANCH   3   7
HETATM    7  C   UNL     1     -42.150 -48.857  13.061  1.00  0.00     0.130 C 
BRANCH   7   8
HETATM    8  C   UNL     1     -40.628 -48.920  12.980  1.00  0.00     0.018 C 
HETATM    9  C   UNL     1     -40.112 -49.042  11.528  1.00  0.00     0.022 C 
HETATM   10  C   UNL     1     -38.862 -49.921  11.470  1.00  0.00     0.141 C 
HETATM   11  S   UNL     1     -38.474 -50.392  13.140  1.00  0.00     0.144 S 
HETATM   12  O   UNL     1     -38.168 -51.805  13.186  1.00  0.00    -0.228 OA
HETATM   13  O   UNL     1     -37.603 -49.388  13.711  1.00  0.00    -0.228 OA
HETATM   14  C   UNL     1     -40.111 -50.129  13.759  1.00  0.00     0.146 C 
ENDBRANCH   7   8
ENDBRANCH   3   7
BRANCH   4  15
HETATM   15  C   UNL     1     -44.934 -52.877  13.253  1.00  0.00     0.038 A 
HETATM   16  C   UNL     1     -44.616 -54.236  13.240  1.00  0.00     0.046 A 
HETATM   17  C   UNL     1     -45.500 -55.131  13.819  1.00  0.00     0.090 A 
HETATM   18  N   UNL     1     -46.656 -54.769  14.413  1.00  0.00    -0.375 N 
HETATM   19  C   UNL     1     -46.933 -53.449  14.429  1.00  0.00     0.090 A 
ATOM     20  HN  UNL     1     -47.286 -55.456  14.827  1.00  0.00     0.164 HD
HETATM   21  C   UNL     1     -46.110 -52.477  13.880  1.00  0.00     0.046 A 
ENDBRANCH   4  15
TORSDOF 3
ENDMDL
