MODEL 1
REMARK VINA RESULT:      -5.9      0.000      0.000
REMARK  4 active torsions:
REMARK  status: ('A' for Active; 'I' for Inactive)
REMARK    1  A    between atoms: C_2  and  C_3 
REMARK    2  A    between atoms: C_2  and  N_14 
REMARK       I    between atoms: C_3  and  N_5 
REMARK    3  A    between atoms: N_5  and  C_6 
REMARK    4  A    between atoms: C_6  and  C_7 
ROOT
HETATM    1  C   UNL     1     -41.656 -49.207  11.419  1.00  0.00     0.242 C 
HETATM    2  O   UNL     1     -40.612 -49.588  10.895  1.00  0.00    -0.271 OA
HETATM    3  N   UNL     1     -42.455 -50.049  12.175  1.00  0.00    -0.359 N 
HETATM    4  H   UNL     1     -43.326 -49.674  12.544  1.00  0.00     0.162 HD
ENDROOT
BRANCH   1   5
HETATM    5  C   UNL     1     -42.186 -47.780  11.280  1.00  0.00     0.195 C 
HETATM    6  C   UNL     1     -42.908 -47.301  12.537  1.00  0.00     0.044 C 
BRANCH   5   7
HETATM    7  N   UNL     1     -43.042 -47.689  10.103  1.00  0.00    -0.290 N 
HETATM    8  C   UNL     1     -44.386 -47.445  10.066  1.00  0.00     0.112 A 
HETATM    9  C   UNL     1     -44.753 -47.508   8.744  1.00  0.00     0.037 A 
HETATM   10  C   UNL     1     -43.564 -47.811   8.058  1.00  0.00     0.108 A 
HETATM   11  N   UNL     1     -42.527 -47.973   8.885  1.00  0.00    -0.309 N 
ATOM     12  HN  UNL     1     -41.573 -48.246   8.652  1.00  0.00     0.186 HD
ENDBRANCH   5   7
ENDBRANCH   1   5
BRANCH   3  13
HETATM   13  C   UNL     1     -42.080 -51.416  12.496  1.00  0.00     0.128 C 
BRANCH  13  14
HETATM   14  C   UNL     1     -43.284 -52.299  12.844  1.00  0.00     0.018 C 
HETATM   15  C   UNL     1     -44.109 -51.762  14.026  1.00  0.00     0.022 C 
HETATM   16  C   UNL     1     -44.873 -52.900  14.699  1.00  0.00     0.141 C 
HETATM   17  S   UNL     1     -44.328 -54.425  13.962  1.00  0.00     0.144 S 
HETATM   18  O   UNL     1     -43.902 -55.334  15.002  1.00  0.00    -0.228 OA
HETATM   19  O   UNL     1     -45.284 -54.801  12.940  1.00  0.00    -0.228 OA
HETATM   20  C   UNL     1     -42.897 -53.740  13.160  1.00  0.00     0.146 C 
ENDBRANCH  13  14
ENDBRANCH   3  13
TORSDOF 4
ENDMDL
MODEL 2
REMARK VINA RESULT:      -5.6      3.893      4.748
REMARK  4 active torsions:
REMARK  status: ('A' for Active; 'I' for Inactive)
REMARK    1  A    between atoms: C_2  and  C_3 
REMARK    2  A    between atoms: C_2  and  N_14 
REMARK       I    between atoms: C_3  and  N_5 
REMARK    3  A    between atoms: N_5  and  C_6 
REMARK    4  A    between atoms: C_6  and  C_7 
ROOT
HETATM    1  C   UNL     1     -42.652 -48.034  11.100  1.00  0.00     0.242 C 
HETATM    2  O   UNL     1     -43.160 -47.767  12.186  1.00  0.00    -0.271 OA
HETATM    3  N   UNL     1     -41.807 -49.116  10.925  1.00  0.00    -0.359 N 
HETATM    4  H   UNL     1     -41.390 -49.251  10.006  1.00  0.00     0.162 HD
ENDROOT
BRANCH   1   5
HETATM    5  C   UNL     1     -42.887 -47.198   9.842  1.00  0.00     0.195 C 
HETATM    6  C   UNL     1     -42.773 -45.698  10.110  1.00  0.00     0.044 C 
BRANCH   5   7
HETATM    7  N   UNL     1     -44.180 -47.541   9.262  1.00  0.00    -0.290 N 
HETATM    8  C   UNL     1     -44.421 -48.142   8.058  1.00  0.00     0.112 A 
HETATM    9  C   UNL     1     -45.787 -48.208   7.927  1.00  0.00     0.037 A 
HETATM   10  C   UNL     1     -46.287 -47.608   9.096  1.00  0.00     0.108 A 
HETATM   11  N   UNL     1     -45.314 -47.154   9.890  1.00  0.00    -0.309 N 
ATOM     12  HN  UNL     1     -45.403 -46.638  10.765  1.00  0.00     0.186 HD
ENDBRANCH   5   7
ENDBRANCH   1   5
BRANCH   3  13
HETATM   13  C   UNL     1     -41.528 -50.079  11.977  1.00  0.00     0.128 C 
BRANCH  13  14
HETATM   14  C   UNL     1     -40.104 -49.962  12.532  1.00  0.00     0.018 C 
HETATM   15  C   UNL     1     -39.188 -49.073  11.673  1.00  0.00     0.022 C 
HETATM   16  C   UNL     1     -37.726 -49.454  11.891  1.00  0.00     0.141 C 
HETATM   17  S   UNL     1     -37.694 -50.919  12.900  1.00  0.00     0.144 S 
HETATM   18  O   UNL     1     -36.897 -51.933  12.245  1.00  0.00    -0.228 OA
HETATM   19  O   UNL     1     -37.472 -50.518  14.274  1.00  0.00    -0.228 OA
HETATM   20  C   UNL     1     -39.417 -51.313  12.706  1.00  0.00     0.146 C 
ENDBRANCH  13  14
ENDBRANCH   3  13
TORSDOF 4
ENDMDL
MODEL 3
REMARK VINA RESULT:      -5.5      1.515      1.917
REMARK  4 active torsions:
REMARK  status: ('A' for Active; 'I' for Inactive)
REMARK    1  A    between atoms: C_2  and  C_3 
REMARK    2  A    between atoms: C_2  and  N_14 
REMARK       I    between atoms: C_3  and  N_5 
REMARK    3  A    between atoms: N_5  and  C_6 
REMARK    4  A    between atoms: C_6  and  C_7 
ROOT
HETATM    1  C   UNL     1     -40.658 -50.332  12.136  1.00  0.00     0.242 C 
HETATM    2  O   UNL     1     -40.466 -50.279  13.349  1.00  0.00    -0.271 OA
HETATM    3  N   UNL     1     -41.153 -51.465  11.514  1.00  0.00    -0.359 N 
HETATM    4  H   UNL     1     -41.247 -51.450  10.501  1.00  0.00     0.162 HD
ENDROOT
BRANCH   1   5
HETATM    5  C   UNL     1     -40.359 -49.166  11.194  1.00  0.00     0.195 C 
HETATM    6  C   UNL     1     -39.351 -48.183  11.785  1.00  0.00     0.044 C 
BRANCH   5   7
HETATM    7  N   UNL     1     -41.605 -48.501  10.829  1.00  0.00    -0.290 N 
HETATM    8  C   UNL     1     -42.649 -48.178  11.648  1.00  0.00     0.112 A 
HETATM    9  C   UNL     1     -43.611 -47.617  10.844  1.00  0.00     0.037 A 
HETATM   10  C   UNL     1     -43.062 -47.658   9.550  1.00  0.00     0.108 A 
HETATM   11  N   UNL     1     -41.860 -48.242   9.526  1.00  0.00    -0.309 N 
ATOM     12  HN  UNL     1     -41.274 -48.444   8.717  1.00  0.00     0.186 HD
ENDBRANCH   5   7
ENDBRANCH   1   5
BRANCH   3  13
HETATM   13  C   UNL     1     -41.579 -52.646  12.247  1.00  0.00     0.128 C 
BRANCH  13  14
HETATM   14  C   UNL     1     -43.057 -52.597  12.652  1.00  0.00     0.018 C 
HETATM   15  C   UNL     1     -43.270 -52.230  14.131  1.00  0.00     0.022 C 
HETATM   16  C   UNL     1     -44.615 -52.764  14.619  1.00  0.00     0.141 C 
HETATM   17  S   UNL     1     -45.296 -53.777  13.325  1.00  0.00     0.144 S 
HETATM   18  O   UNL     1     -45.633 -55.077  13.863  1.00  0.00    -0.228 OA
HETATM   19  O   UNL     1     -46.238 -52.976  12.571  1.00  0.00    -0.228 OA
HETATM   20  C   UNL     1     -43.794 -53.905  12.382  1.00  0.00     0.146 C 
ENDBRANCH  13  14
ENDBRANCH   3  13
TORSDOF 4
ENDMDL
MODEL 4
REMARK VINA RESULT:      -5.4      1.519      2.111
REMARK  4 active torsions:
REMARK  status: ('A' for Active; 'I' for Inactive)
REMARK    1  A    between atoms: C_2  and  C_3 
REMARK    2  A    between atoms: C_2  and  N_14 
REMARK       I    between atoms: C_3  and  N_5 
REMARK    3  A    between atoms: N_5  and  C_6 
REMARK    4  A    between atoms: C_6  and  C_7 
ROOT
HETATM    1  C   UNL     1     -41.742 -49.817  12.606  1.00  0.00     0.242 C 
HETATM    2  O   UNL     1     -41.160 -50.000  13.673  1.00  0.00    -0.271 OA
HETATM    3  N   UNL     1     -43.110 -49.981  12.473  1.00  0.00    -0.359 N 
HETATM    4  H   UNL     1     -43.517 -49.853  11.549  1.00  0.00     0.162 HD
ENDROOT
BRANCH   1   5
HETATM    5  C   UNL     1     -41.020 -49.408  11.323  1.00  0.00     0.195 C 
HETATM    6  C   UNL     1     -39.518 -49.222  11.533  1.00  0.00     0.044 C 
BRANCH   5   7
HETATM    7  N   UNL     1     -41.637 -48.204  10.778  1.00  0.00    -0.290 N 
HETATM    8  C   UNL     1     -41.718 -46.970  11.361  1.00  0.00     0.112 A 
HETATM    9  C   UNL     1     -42.433 -46.180  10.494  1.00  0.00     0.037 A 
HETATM   10  C   UNL     1     -42.753 -47.029   9.420  1.00  0.00     0.108 A 
HETATM   11  N   UNL     1     -42.315 -48.277   9.610  1.00  0.00    -0.309 N 
ATOM     12  HN  UNL     1     -42.458 -49.092   9.014  1.00  0.00     0.186 HD
ENDBRANCH   5   7
ENDBRANCH   1   5
BRANCH   3  13
HETATM   13  C   UNL     1     -43.983 -50.283  13.595  1.00  0.00     0.128 C 
BRANCH  13  14
HETATM   14  C   UNL     1     -44.730 -51.612  13.429  1.00  0.00     0.018 C 
HETATM   15  C   UNL     1     -46.199 -51.543  13.882  1.00  0.00     0.022 C 
HETATM   16  C   UNL     1     -46.700 -52.934  14.264  1.00  0.00     0.141 C 
HETATM   17  S   UNL     1     -45.306 -54.039  14.227  1.00  0.00     0.144 S 
HETATM   18  O   UNL     1     -45.216 -54.738  15.489  1.00  0.00    -0.228 OA
HETATM   19  O   UNL     1     -45.308 -54.727  12.952  1.00  0.00    -0.228 OA
HETATM   20  C   UNL     1     -44.065 -52.768  14.171  1.00  0.00     0.146 C 
ENDBRANCH  13  14
ENDBRANCH   3  13
TORSDOF 4
ENDMDL
MODEL 5
REMARK VINA RESULT:      -5.2      3.431      4.414
REMARK  4 active torsions:
REMARK  status: ('A' for Active; 'I' for Inactive)
REMARK    1  A    between atoms: C_2  and  C_3 
REMARK    2  A    between atoms: C_2  and  N_14 
REMARK       I    between atoms: C_3  and  N_5 
REMARK    3  A    between atoms: N_5  and  C_6 
REMARK    4  A    between atoms: C_6  and  C_7 
ROOT
HETATM    1  C   UNL     1     -42.045 -51.294  12.903  1.00  0.00     0.242 C 
HETATM    2  O   UNL     1     -41.866 -50.354  13.674  1.00  0.00    -0.271 OA
HETATM    3  N   UNL     1     -43.308 -51.779  12.607  1.00  0.00    -0.359 N 
HETATM    4  H   UNL     1     -43.376 -52.586  11.992  1.00  0.00     0.162 HD
ENDROOT
BRANCH   1   5
HETATM    5  C   UNL     1     -40.901 -52.028  12.205  1.00  0.00     0.195 C 
HETATM    6  C   UNL     1     -40.632 -53.403  12.815  1.00  0.00     0.044 C 
BRANCH   5   7
HETATM    7  N   UNL     1     -39.704 -51.194  12.218  1.00  0.00    -0.290 N 
HETATM    8  C   UNL     1     -38.624 -51.298  13.048  1.00  0.00     0.112 A 
HETATM    9  C   UNL     1     -37.782 -50.264  12.716  1.00  0.00     0.037 A 
HETATM   10  C   UNL     1     -38.447 -49.581  11.683  1.00  0.00     0.108 A 
HETATM   11  N   UNL     1     -39.642 -50.112  11.409  1.00  0.00    -0.309 N 
ATOM     12  HN  UNL     1     -40.342 -49.780  10.747  1.00  0.00     0.186 HD
ENDBRANCH   5   7
ENDBRANCH   1   5
BRANCH   3  13
HETATM   13  C   UNL     1     -44.527 -51.161  13.102  1.00  0.00     0.128 C 
BRANCH  13  14
HETATM   14  C   UNL     1     -45.483 -52.165  13.757  1.00  0.00     0.018 C 
HETATM   15  C   UNL     1     -46.537 -51.501  14.659  1.00  0.00     0.022 C 
HETATM   16  C   UNL     1     -47.035 -52.492  15.708  1.00  0.00     0.141 C 
HETATM   17  S   UNL     1     -46.033 -53.957  15.585  1.00  0.00     0.144 S 
HETATM   18  O   UNL     1     -45.489 -54.275  16.887  1.00  0.00    -0.228 OA
HETATM   19  O   UNL     1     -46.745 -54.927  14.779  1.00  0.00    -0.228 OA
HETATM   20  C   UNL     1     -44.761 -53.226  14.582  1.00  0.00     0.146 C 
ENDBRANCH  13  14
ENDBRANCH   3  13
TORSDOF 4
ENDMDL
MODEL 6
REMARK VINA RESULT:      -5.2      1.980      2.532
REMARK  4 active torsions:
REMARK  status: ('A' for Active; 'I' for Inactive)
REMARK    1  A    between atoms: C_2  and  C_3 
REMARK    2  A    between atoms: C_2  and  N_14 
REMARK       I    between atoms: C_3  and  N_5 
REMARK    3  A    between atoms: N_5  and  C_6 
REMARK    4  A    between atoms: C_6  and  C_7 
ROOT
HETATM    1  C   UNL     1     -41.666 -48.374  11.853  1.00  0.00     0.242 C 
HETATM    2  O   UNL     1     -40.819 -48.163  12.719  1.00  0.00    -0.271 OA
HETATM    3  N   UNL     1     -42.104 -49.649  11.541  1.00  0.00    -0.359 N 
HETATM    4  H   UNL     1     -42.776 -49.750  10.784  1.00  0.00     0.162 HD
ENDROOT
BRANCH   1   5
HETATM    5  C   UNL     1     -42.307 -47.259  11.028  1.00  0.00     0.195 C 
HETATM    6  C   UNL     1     -42.761 -47.741   9.651  1.00  0.00     0.044 C 
BRANCH   5   7
HETATM    7  N   UNL     1     -41.384 -46.135  10.924  1.00  0.00    -0.290 N 
HETATM    8  C   UNL     1     -41.612 -44.832  11.270  1.00  0.00     0.112 A 
HETATM    9  C   UNL     1     -40.472 -44.140  10.942  1.00  0.00     0.037 A 
HETATM   10  C   UNL     1     -39.615 -45.108  10.389  1.00  0.00     0.108 A 
HETATM   11  N   UNL     1     -40.183 -46.316  10.328  1.00  0.00    -0.309 N 
ATOM     12  HN  UNL     1     -39.801 -47.172   9.927  1.00  0.00     0.186 HD
ENDBRANCH   5   7
ENDBRANCH   1   5
BRANCH   3  13
HETATM   13  C   UNL     1     -41.678 -50.832  12.272  1.00  0.00     0.128 C 
BRANCH  13  14
HETATM   14  C   UNL     1     -42.834 -51.789  12.584  1.00  0.00     0.018 C 
HETATM   15  C   UNL     1     -43.681 -51.348  13.790  1.00  0.00     0.022 C 
HETATM   16  C   UNL     1     -44.383 -52.553  14.413  1.00  0.00     0.141 C 
HETATM   17  S   UNL     1     -43.764 -54.013  13.607  1.00  0.00     0.144 S 
HETATM   18  O   UNL     1     -43.287 -54.945  14.606  1.00  0.00    -0.228 OA
HETATM   19  O   UNL     1     -44.703 -54.392  12.572  1.00  0.00    -0.228 OA
HETATM   20  C   UNL     1     -42.373 -53.222  12.834  1.00  0.00     0.146 C 
ENDBRANCH  13  14
ENDBRANCH   3  13
TORSDOF 4
ENDMDL
MODEL 7
REMARK VINA RESULT:      -5.2      4.002      5.110
REMARK  4 active torsions:
REMARK  status: ('A' for Active; 'I' for Inactive)
REMARK    1  A    between atoms: C_2  and  C_3 
REMARK    2  A    between atoms: C_2  and  N_14 
REMARK       I    between atoms: C_3  and  N_5 
REMARK    3  A    between atoms: N_5  and  C_6 
REMARK    4  A    between atoms: C_6  and  C_7 
ROOT
HETATM    1  C   UNL     1     -42.250 -47.826  10.552  1.00  0.00     0.242 C 
HETATM    2  O   UNL     1     -42.041 -48.421   9.497  1.00  0.00    -0.271 OA
HETATM    3  N   UNL     1     -42.098 -48.434  11.787  1.00  0.00    -0.359 N 
HETATM    4  H   UNL     1     -42.329 -47.892  12.616  1.00  0.00     0.162 HD
ENDROOT
BRANCH   1   5
HETATM    5  C   UNL     1     -42.709 -46.370  10.611  1.00  0.00     0.195 C 
HETATM    6  C   UNL     1     -43.633 -46.003   9.451  1.00  0.00     0.044 C 
BRANCH   5   7
HETATM    7  N   UNL     1     -41.545 -45.492  10.666  1.00  0.00    -0.290 N 
HETATM    8  C   UNL     1     -41.472 -44.236  11.201  1.00  0.00     0.112 A 
HETATM    9  C   UNL     1     -40.193 -43.793  10.969  1.00  0.00     0.037 A 
HETATM   10  C   UNL     1     -39.571 -44.845  10.274  1.00  0.00     0.108 A 
HETATM   11  N   UNL     1     -40.405 -45.863  10.042  1.00  0.00    -0.309 N 
ATOM     12  HN  UNL     1     -40.224 -46.718   9.517  1.00  0.00     0.186 HD
ENDBRANCH   5   7
ENDBRANCH   1   5
BRANCH   3  13
HETATM   13  C   UNL     1     -41.586 -49.786  11.944  1.00  0.00     0.128 C 
BRANCH  13  14
HETATM   14  C   UNL     1     -40.241 -49.834  12.679  1.00  0.00     0.018 C 
HETATM   15  C   UNL     1     -39.241 -48.774  12.185  1.00  0.00     0.022 C 
HETATM   16  C   UNL     1     -37.811 -49.221  12.475  1.00  0.00     0.141 C 
HETATM   17  S   UNL     1     -37.880 -50.892  13.083  1.00  0.00     0.144 S 
HETATM   18  O   UNL     1     -36.996 -51.724  12.297  1.00  0.00    -0.228 OA
HETATM   19  O   UNL     1     -37.831 -50.850  14.530  1.00  0.00    -0.228 OA
HETATM   20  C   UNL     1     -39.561 -51.196  12.591  1.00  0.00     0.146 C 
ENDBRANCH  13  14
ENDBRANCH   3  13
TORSDOF 4
ENDMDL
MODEL 8
REMARK VINA RESULT:      -5.1      3.728      7.005
REMARK  4 active torsions:
REMARK  status: ('A' for Active; 'I' for Inactive)
REMARK    1  A    between atoms: C_2  and  C_3 
REMARK    2  A    between atoms: C_2  and  N_14 
REMARK       I    between atoms: C_3  and  N_5 
REMARK    3  A    between atoms: N_5  and  C_6 
REMARK    4  A    between atoms: C_6  and  C_7 
ROOT
HETATM    1  C   UNL     1     -42.822 -51.812  12.905  1.00  0.00     0.242 C 
HETATM    2  O   UNL     1     -43.267 -51.112  13.812  1.00  0.00    -0.271 OA
HETATM    3  N   UNL     1     -41.977 -51.310  11.930  1.00  0.00    -0.359 N 
HETATM    4  H   UNL     1     -41.682 -51.938  11.187  1.00  0.00     0.162 HD
ENDROOT
BRANCH   1   5
HETATM    5  C   UNL     1     -43.165 -53.293  12.751  1.00  0.00     0.195 C 
HETATM    6  C   UNL     1     -44.656 -53.524  12.513  1.00  0.00     0.044 C 
BRANCH   5   7
HETATM    7  N   UNL     1     -42.689 -54.028  13.917  1.00  0.00    -0.290 N 
HETATM    8  C   UNL     1     -43.390 -54.911  14.690  1.00  0.00     0.112 A 
HETATM    9  C   UNL     1     -42.540 -55.302  15.696  1.00  0.00     0.037 A 
HETATM   10  C   UNL     1     -41.351 -54.590  15.455  1.00  0.00     0.108 A 
HETATM   11  N   UNL     1     -41.452 -53.774  14.402  1.00  0.00    -0.309 N 
ATOM     12  HN  UNL     1     -40.760 -53.115  14.047  1.00  0.00     0.186 HD
ENDBRANCH   5   7
ENDBRANCH   1   5
BRANCH   3  13
HETATM   13  C   UNL     1     -41.466 -49.949  11.952  1.00  0.00     0.128 C 
BRANCH  13  14
HETATM   14  C   UNL     1     -40.031 -49.858  12.484  1.00  0.00     0.018 C 
HETATM   15  C   UNL     1     -39.107 -49.006  11.597  1.00  0.00     0.022 C 
HETATM   16  C   UNL     1     -37.651 -49.419  11.799  1.00  0.00     0.141 C 
HETATM   17  S   UNL     1     -37.641 -50.869  12.832  1.00  0.00     0.144 S 
HETATM   18  O   UNL     1     -36.879 -51.913  12.183  1.00  0.00    -0.228 OA
HETATM   19  O   UNL     1     -37.388 -50.451  14.196  1.00  0.00    -0.228 OA
HETATM   20  C   UNL     1     -39.375 -51.222  12.670  1.00  0.00     0.146 C 
ENDBRANCH  13  14
ENDBRANCH   3  13
TORSDOF 4
ENDMDL
MODEL 9
REMARK VINA RESULT:      -5.1      3.491      4.232
REMARK  4 active torsions:
REMARK  status: ('A' for Active; 'I' for Inactive)
REMARK    1  A    between atoms: C_2  and  C_3 
REMARK    2  A    between atoms: C_2  and  N_14 
REMARK       I    between atoms: C_3  and  N_5 
REMARK    3  A    between atoms: N_5  and  C_6 
REMARK    4  A    between atoms: C_6  and  C_7 
ROOT
HETATM    1  C   UNL     1     -40.623 -50.594  11.807  1.00  0.00     0.242 C 
HETATM    2  O   UNL     1     -41.777 -50.204  11.972  1.00  0.00    -0.271 OA
HETATM    3  N   UNL     1     -40.252 -51.913  12.006  1.00  0.00    -0.359 N 
HETATM    4  H   UNL     1     -39.270 -52.154  11.891  1.00  0.00     0.162 HD
ENDROOT
BRANCH   1   5
HETATM    5  C   UNL     1     -39.483 -49.667  11.385  1.00  0.00     0.195 C 
HETATM    6  C   UNL     1     -38.179 -49.976  12.118  1.00  0.00     0.044 C 
BRANCH   5   7
HETATM    7  N   UNL     1     -39.887 -48.278  11.572  1.00  0.00    -0.290 N 
HETATM    8  C   UNL     1     -39.707 -47.499  12.680  1.00  0.00     0.112 A 
HETATM    9  C   UNL     1     -40.300 -46.291  12.402  1.00  0.00     0.037 A 
HETATM   10  C   UNL     1     -40.824 -46.441  11.106  1.00  0.00     0.108 A 
HETATM   11  N   UNL     1     -40.620 -47.666  10.614  1.00  0.00    -0.309 N 
ATOM     12  HN  UNL     1     -40.942 -48.050   9.726  1.00  0.00     0.186 HD
ENDBRANCH   5   7
ENDBRANCH   1   5
BRANCH   3  13
HETATM   13  C   UNL     1     -41.206 -52.962  12.325  1.00  0.00     0.128 C 
BRANCH  13  14
HETATM   14  C   UNL     1     -40.679 -53.949  13.373  1.00  0.00     0.018 C 
HETATM   15  C   UNL     1     -41.726 -54.322  14.437  1.00  0.00     0.022 C 
HETATM   16  C   UNL     1     -41.036 -54.778  15.721  1.00  0.00     0.141 C 
HETATM   17  S   UNL     1     -39.291 -54.490  15.527  1.00  0.00     0.144 S 
HETATM   18  O   UNL     1     -38.808 -53.708  16.643  1.00  0.00    -0.228 OA
HETATM   19  O   UNL     1     -38.669 -55.734  15.119  1.00  0.00    -0.228 OA
HETATM   20  C   UNL     1     -39.435 -53.444  14.097  1.00  0.00     0.146 C 
ENDBRANCH  13  14
ENDBRANCH   3  13
TORSDOF 4
ENDMDL
