MODEL 1
REMARK VINA RESULT:      -6.0      0.000      0.000
REMARK  7 active torsions:
REMARK  status: ('A' for Active; 'I' for Inactive)
REMARK    1  A    between atoms: C_2  and  N_3 
REMARK    2  A    between atoms: N_3  and  C_4 
REMARK    3  A    between atoms: N_3  and  S_6 
REMARK    4  A    between atoms: S_6  and  N_9 
REMARK    5  A    between atoms: N_9  and  C_10 
REMARK    6  A    between atoms: C_10  and  C_11 
REMARK    7  A    between atoms: C_14  and  N_18 
ROOT
HETATM    1  C   UNL     1     -42.345 -50.878  12.884  1.00  0.00    -0.029 A 
HETATM    2  C   UNL     1     -43.199 -49.782  12.969  1.00  0.00     0.013 A 
HETATM    3  C   UNL     1     -43.050 -48.715  12.087  1.00  0.00     0.049 A 
HETATM    4  C   UNL     1     -42.060 -48.733  11.106  1.00  0.00     0.103 A 
HETATM    5  N   UNL     1     -41.193 -49.765  11.044  1.00  0.00    -0.352 N 
ATOM      6  HN  UNL     1     -40.438 -49.770  10.359  1.00  0.00     0.166 HD
HETATM    7  C   UNL     1     -41.349 -50.799  11.916  1.00  0.00     0.098 A 
ENDROOT
BRANCH   1   8
HETATM    8  C   UNL     1     -42.464 -52.096  13.775  1.00  0.00     0.145 C 
BRANCH   8   9
HETATM    9  N   UNL     1     -43.841 -52.303  14.261  1.00  0.00    -0.202 NA
HETATM   10  H   UNL     1     -43.842 -52.495  15.263  1.00  0.00     0.141 HD
BRANCH   9  11
HETATM   11  S   UNL     1     -44.742 -53.510  13.560  1.00  0.00     0.281 S 
HETATM   12  O   UNL     1     -44.762 -54.600  14.507  1.00  0.00    -0.194 OA
HETATM   13  O   UNL     1     -44.241 -53.704  12.222  1.00  0.00    -0.194 OA
BRANCH  11  14
HETATM   14  N   UNL     1     -46.297 -52.849  13.462  1.00  0.00    -0.198 NA
BRANCH  14  15
HETATM   15  C   UNL     1     -46.954 -52.861  14.812  1.00  0.00     0.104 C 
HETATM   16  C   UNL     1     -47.135 -51.483  15.423  1.00  0.00     0.021 C 
ENDBRANCH  14  15
BRANCH  14  17
HETATM   17  C   UNL     1     -46.470 -51.583  12.693  1.00  0.00     0.104 C 
HETATM   18  C   UNL     1     -47.223 -51.729  11.384  1.00  0.00     0.021 C 
ENDBRANCH  14  17
ENDBRANCH  11  14
ENDBRANCH   9  11
ENDBRANCH   8   9
ENDBRANCH   1   8
BRANCH   4  19
HETATM   19  N   UNL     1     -41.948 -47.667  10.231  1.00  0.00    -0.363 N 
HETATM   20  C   UNL     1     -41.350 -46.405  10.693  1.00  0.00     0.150 C 
HETATM   21  C   UNL     1     -42.404 -45.293  10.803  1.00  0.00     0.187 C 
HETATM   22  O   UNL     1     -43.143 -45.141   9.584  1.00  0.00    -0.388 OA
HETATM   23  C   UNL     1     -43.846 -46.362   9.290  1.00  0.00     0.187 C 
HETATM   24  C   UNL     1     -42.881 -47.541   9.104  1.00  0.00     0.150 C 
ENDBRANCH   4  19
TORSDOF 7
ENDMDL
MODEL 2
REMARK VINA RESULT:      -5.9      1.253      1.936
REMARK  7 active torsions:
REMARK  status: ('A' for Active; 'I' for Inactive)
REMARK    1  A    between atoms: C_2  and  N_3 
REMARK    2  A    between atoms: N_3  and  C_4 
REMARK    3  A    between atoms: N_3  and  S_6 
REMARK    4  A    between atoms: S_6  and  N_9 
REMARK    5  A    between atoms: N_9  and  C_10 
REMARK    6  A    between atoms: C_10  and  C_11 
REMARK    7  A    between atoms: C_14  and  N_18 
ROOT
HETATM    1  C   UNL     1     -42.728 -50.953  13.370  1.00  0.00    -0.029 A 
HETATM    2  C   UNL     1     -43.290 -49.683  13.458  1.00  0.00     0.013 A 
HETATM    3  C   UNL     1     -42.972 -48.714  12.510  1.00  0.00     0.049 A 
HETATM    4  C   UNL     1     -42.103 -49.003  11.459  1.00  0.00     0.103 A 
HETATM    5  N   UNL     1     -41.511 -50.213  11.389  1.00  0.00    -0.352 N 
ATOM      6  HN  UNL     1     -40.841 -50.423  10.650  1.00  0.00     0.166 HD
HETATM    7  C   UNL     1     -41.829 -51.148  12.326  1.00  0.00     0.098 A 
ENDROOT
BRANCH   1   8
HETATM    8  C   UNL     1     -43.053 -52.075  14.333  1.00  0.00     0.145 C 
BRANCH   8   9
HETATM    9  N   UNL     1     -43.133 -53.385  13.661  1.00  0.00    -0.202 NA
HETATM   10  H   UNL     1     -43.142 -53.268  12.647  1.00  0.00     0.141 HD
BRANCH   9  11
HETATM   11  S   UNL     1     -44.423 -54.369  14.021  1.00  0.00     0.281 S 
HETATM   12  O   UNL     1     -43.894 -55.455  14.810  1.00  0.00    -0.194 OA
HETATM   13  O   UNL     1     -45.129 -54.626  12.791  1.00  0.00    -0.194 OA
BRANCH  11  14
HETATM   14  N   UNL     1     -45.401 -53.406  15.011  1.00  0.00    -0.198 NA
BRANCH  14  15
HETATM   15  C   UNL     1     -46.602 -52.927  14.249  1.00  0.00     0.104 C 
HETATM   16  C   UNL     1     -46.713 -51.415  14.158  1.00  0.00     0.021 C 
ENDBRANCH  14  15
BRANCH  14  17
HETATM   17  C   UNL     1     -45.688 -53.889  16.392  1.00  0.00     0.104 C 
HETATM   18  C   UNL     1     -44.816 -53.283  17.476  1.00  0.00     0.021 C 
ENDBRANCH  14  17
ENDBRANCH  11  14
ENDBRANCH   9  11
ENDBRANCH   8   9
ENDBRANCH   1   8
BRANCH   4  19
HETATM   19  N   UNL     1     -41.820 -48.027  10.520  1.00  0.00    -0.363 N 
HETATM   20  C   UNL     1     -40.895 -46.935  10.861  1.00  0.00     0.150 C 
HETATM   21  C   UNL     1     -41.635 -45.596  10.997  1.00  0.00     0.187 C 
HETATM   22  O   UNL     1     -42.427 -45.308   9.836  1.00  0.00    -0.388 OA
HETATM   23  C   UNL     1     -43.428 -46.328   9.670  1.00  0.00     0.187 C 
HETATM   24  C   UNL     1     -42.797 -47.713   9.469  1.00  0.00     0.150 C 
ENDBRANCH   4  19
TORSDOF 7
ENDMDL
MODEL 3
REMARK VINA RESULT:      -5.7      3.859      7.671
REMARK  7 active torsions:
REMARK  status: ('A' for Active; 'I' for Inactive)
REMARK    1  A    between atoms: C_2  and  N_3 
REMARK    2  A    between atoms: N_3  and  C_4 
REMARK    3  A    between atoms: N_3  and  S_6 
REMARK    4  A    between atoms: S_6  and  N_9 
REMARK    5  A    between atoms: N_9  and  C_10 
REMARK    6  A    between atoms: C_10  and  C_11 
REMARK    7  A    between atoms: C_14  and  N_18 
ROOT
HETATM    1  C   UNL     1     -40.819 -52.667  13.038  1.00  0.00    -0.029 A 
HETATM    2  C   UNL     1     -41.288 -53.821  13.658  1.00  0.00     0.013 A 
HETATM    3  C   UNL     1     -42.647 -54.125  13.626  1.00  0.00     0.049 A 
HETATM    4  C   UNL     1     -43.549 -53.292  12.966  1.00  0.00     0.103 A 
HETATM    5  N   UNL     1     -43.117 -52.145  12.404  1.00  0.00    -0.352 N 
ATOM      6  HN  UNL     1     -43.773 -51.505  11.956  1.00  0.00     0.166 HD
HETATM    7  C   UNL     1     -41.786 -51.859  12.448  1.00  0.00     0.098 A 
ENDROOT
BRANCH   1   8
HETATM    8  C   UNL     1     -39.356 -52.285  12.989  1.00  0.00     0.145 C 
BRANCH   8   9
HETATM    9  N   UNL     1     -39.070 -51.295  11.934  1.00  0.00    -0.202 NA
HETATM   10  H   UNL     1     -39.027 -51.746  11.021  1.00  0.00     0.141 HD
BRANCH   9  11
HETATM   11  S   UNL     1     -37.678 -50.395  12.067  1.00  0.00     0.281 S 
HETATM   12  O   UNL     1     -37.314 -50.016  10.723  1.00  0.00    -0.194 OA
HETATM   13  O   UNL     1     -36.762 -51.134  12.900  1.00  0.00    -0.194 OA
BRANCH  11  14
HETATM   14  N   UNL     1     -38.171 -49.011  12.906  1.00  0.00    -0.198 NA
BRANCH  14  15
HETATM   15  C   UNL     1     -39.609 -48.702  12.603  1.00  0.00     0.104 C 
HETATM   16  C   UNL     1     -39.804 -47.505  11.690  1.00  0.00     0.021 C 
ENDBRANCH  14  15
BRANCH  14  17
HETATM   17  C   UNL     1     -37.796 -48.895  14.345  1.00  0.00     0.104 C 
HETATM   18  C   UNL     1     -36.936 -47.693  14.686  1.00  0.00     0.021 C 
ENDBRANCH  14  17
ENDBRANCH  11  14
ENDBRANCH   9  11
ENDBRANCH   8   9
ENDBRANCH   1   8
BRANCH   4  19
HETATM   19  N   UNL     1     -44.890 -53.630  12.934  1.00  0.00    -0.363 N 
HETATM   20  C   UNL     1     -45.897 -52.589  12.672  1.00  0.00     0.150 C 
HETATM   21  C   UNL     1     -46.728 -52.285  13.927  1.00  0.00     0.187 C 
HETATM   22  O   UNL     1     -47.296 -53.476  14.488  1.00  0.00    -0.388 OA
HETATM   23  C   UNL     1     -46.243 -54.372  14.886  1.00  0.00     0.187 C 
HETATM   24  C   UNL     1     -45.374 -54.791  13.692  1.00  0.00     0.150 C 
ENDBRANCH   4  19
TORSDOF 7
ENDMDL
MODEL 4
REMARK VINA RESULT:      -5.6      2.773      7.265
REMARK  7 active torsions:
REMARK  status: ('A' for Active; 'I' for Inactive)
REMARK    1  A    between atoms: C_2  and  N_3 
REMARK    2  A    between atoms: N_3  and  C_4 
REMARK    3  A    between atoms: N_3  and  S_6 
REMARK    4  A    between atoms: S_6  and  N_9 
REMARK    5  A    between atoms: N_9  and  C_10 
REMARK    6  A    between atoms: C_10  and  C_11 
REMARK    7  A    between atoms: C_14  and  N_18 
ROOT
HETATM    1  C   UNL     1     -41.242 -49.360  11.984  1.00  0.00    -0.029 A 
HETATM    2  C   UNL     1     -42.357 -49.556  12.794  1.00  0.00     0.013 A 
HETATM    3  C   UNL     1     -42.842 -50.843  13.009  1.00  0.00     0.049 A 
HETATM    4  C   UNL     1     -42.217 -51.947  12.432  1.00  0.00     0.103 A 
HETATM    5  N   UNL     1     -41.166 -51.769  11.605  1.00  0.00    -0.352 N 
ATOM      6  HN  UNL     1     -40.727 -52.564  11.143  1.00  0.00     0.166 HD
HETATM    7  C   UNL     1     -40.707 -50.503  11.401  1.00  0.00     0.098 A 
ENDROOT
BRANCH   1   8
HETATM    8  C   UNL     1     -40.626 -48.000  11.732  1.00  0.00     0.145 C 
BRANCH   8   9
HETATM    9  N   UNL     1     -41.032 -47.432  10.434  1.00  0.00    -0.202 NA
HETATM   10  H   UNL     1     -40.214 -47.230   9.859  1.00  0.00     0.141 HD
BRANCH   9  11
HETATM   11  S   UNL     1     -41.943 -46.042  10.442  1.00  0.00     0.281 S 
HETATM   12  O   UNL     1     -41.028 -44.959  10.173  1.00  0.00    -0.194 OA
HETATM   13  O   UNL     1     -42.741 -46.054  11.643  1.00  0.00    -0.194 OA
BRANCH  11  14
HETATM   14  N   UNL     1     -42.972 -46.226   9.111  1.00  0.00    -0.198 NA
BRANCH  14  15
HETATM   15  C   UNL     1     -43.252 -47.680   8.866  1.00  0.00     0.104 C 
HETATM   16  C   UNL     1     -43.190 -48.083   7.403  1.00  0.00     0.021 C 
ENDBRANCH  14  15
BRANCH  14  17
HETATM   17  C   UNL     1     -44.165 -45.335   9.022  1.00  0.00     0.104 C 
HETATM   18  C   UNL     1     -45.501 -46.053   9.049  1.00  0.00     0.021 C 
ENDBRANCH  14  17
ENDBRANCH  11  14
ENDBRANCH   9  11
ENDBRANCH   8   9
ENDBRANCH   1   8
BRANCH   4  19
HETATM   19  N   UNL     1     -42.709 -53.216  12.680  1.00  0.00    -0.363 N 
HETATM   20  C   UNL     1     -44.143 -53.489  12.496  1.00  0.00     0.150 C 
HETATM   21  C   UNL     1     -44.847 -53.719  13.842  1.00  0.00     0.187 C 
HETATM   22  O   UNL     1     -44.187 -54.727  14.620  1.00  0.00    -0.388 OA
HETATM   23  C   UNL     1     -42.842 -54.307  14.912  1.00  0.00     0.187 C 
HETATM   24  C   UNL     1     -42.022 -54.098  13.632  1.00  0.00     0.150 C 
ENDBRANCH   4  19
TORSDOF 7
ENDMDL
MODEL 5
REMARK VINA RESULT:      -5.6      5.175      7.946
REMARK  7 active torsions:
REMARK  status: ('A' for Active; 'I' for Inactive)
REMARK    1  A    between atoms: C_2  and  N_3 
REMARK    2  A    between atoms: N_3  and  C_4 
REMARK    3  A    between atoms: N_3  and  S_6 
REMARK    4  A    between atoms: S_6  and  N_9 
REMARK    5  A    between atoms: N_9  and  C_10 
REMARK    6  A    between atoms: C_10  and  C_11 
REMARK    7  A    between atoms: C_14  and  N_18 
ROOT
HETATM    1  C   UNL     1     -40.445 -54.315  14.168  1.00  0.00    -0.029 A 
HETATM    2  C   UNL     1     -41.412 -54.519  15.147  1.00  0.00     0.013 A 
HETATM    3  C   UNL     1     -42.763 -54.426  14.822  1.00  0.00     0.049 A 
HETATM    4  C   UNL     1     -43.164 -54.142  13.518  1.00  0.00     0.103 A 
HETATM    5  N   UNL     1     -42.239 -53.892  12.569  1.00  0.00    -0.352 N 
ATOM      6  HN  UNL     1     -42.520 -53.641  11.621  1.00  0.00     0.166 HD
HETATM    7  C   UNL     1     -40.922 -53.982  12.904  1.00  0.00     0.098 A 
ENDROOT
BRANCH   1   8
HETATM    8  C   UNL     1     -38.959 -54.439  14.427  1.00  0.00     0.145 C 
BRANCH   8   9
HETATM    9  N   UNL     1     -38.617 -55.680  15.145  1.00  0.00    -0.202 NA
HETATM   10  H   UNL     1     -39.409 -56.323  15.148  1.00  0.00     0.141 HD
BRANCH   9  11
HETATM   11  S   UNL     1     -38.122 -55.553  16.727  1.00  0.00     0.281 S 
HETATM   12  O   UNL     1     -38.412 -54.199  17.133  1.00  0.00    -0.194 OA
HETATM   13  O   UNL     1     -36.780 -56.076  16.805  1.00  0.00    -0.194 OA
BRANCH  11  14
HETATM   14  N   UNL     1     -39.156 -56.602  17.559  1.00  0.00    -0.198 NA
BRANCH  14  15
HETATM   15  C   UNL     1     -38.385 -57.768  18.107  1.00  0.00     0.104 C 
HETATM   16  C   UNL     1     -39.162 -59.073  18.116  1.00  0.00     0.021 C 
ENDBRANCH  14  15
BRANCH  14  17
HETATM   17  C   UNL     1     -40.144 -56.006  18.503  1.00  0.00     0.104 C 
HETATM   18  C   UNL     1     -41.595 -56.334  18.202  1.00  0.00     0.021 C 
ENDBRANCH  14  17
ENDBRANCH  11  14
ENDBRANCH   9  11
ENDBRANCH   8   9
ENDBRANCH   1   8
BRANCH   4  19
HETATM   19  N   UNL     1     -44.514 -54.076  13.219  1.00  0.00    -0.363 N 
HETATM   20  C   UNL     1     -45.110 -52.789  12.828  1.00  0.00     0.150 C 
HETATM   21  C   UNL     1     -46.045 -52.250  13.921  1.00  0.00     0.187 C 
HETATM   22  O   UNL     1     -47.027 -53.222  14.305  1.00  0.00    -0.388 OA
HETATM   23  C   UNL     1     -46.372 -54.383  14.845  1.00  0.00     0.187 C 
HETATM   24  C   UNL     1     -45.446 -55.042  13.813  1.00  0.00     0.150 C 
ENDBRANCH   4  19
TORSDOF 7
ENDMDL
MODEL 6
REMARK VINA RESULT:      -5.6      2.968      3.810
REMARK  7 active torsions:
REMARK  status: ('A' for Active; 'I' for Inactive)
REMARK    1  A    between atoms: C_2  and  N_3 
REMARK    2  A    between atoms: N_3  and  C_4 
REMARK    3  A    between atoms: N_3  and  S_6 
REMARK    4  A    between atoms: S_6  and  N_9 
REMARK    5  A    between atoms: N_9  and  C_10 
REMARK    6  A    between atoms: C_10  and  C_11 
REMARK    7  A    between atoms: C_14  and  N_18 
ROOT
HETATM    1  C   UNL     1     -42.192 -54.010  14.204  1.00  0.00    -0.029 A 
HETATM    2  C   UNL     1     -41.686 -52.935  14.927  1.00  0.00     0.013 A 
HETATM    3  C   UNL     1     -40.845 -52.014  14.308  1.00  0.00     0.049 A 
HETATM    4  C   UNL     1     -40.511 -52.146  12.961  1.00  0.00     0.103 A 
HETATM    5  N   UNL     1     -40.953 -53.210  12.260  1.00  0.00    -0.352 N 
ATOM      6  HN  UNL     1     -40.681 -53.342  11.286  1.00  0.00     0.166 HD
HETATM    7  C   UNL     1     -41.770 -54.105  12.882  1.00  0.00     0.098 A 
ENDROOT
BRANCH   1   8
HETATM    8  C   UNL     1     -43.143 -55.032  14.788  1.00  0.00     0.145 C 
BRANCH   8   9
HETATM    9  N   UNL     1     -44.412 -54.426  15.233  1.00  0.00    -0.202 NA
HETATM   10  H   UNL     1     -44.765 -54.903  16.064  1.00  0.00     0.141 HD
BRANCH   9  11
HETATM   11  S   UNL     1     -45.676 -54.385  14.156  1.00  0.00     0.281 S 
HETATM   12  O   UNL     1     -46.734 -55.171  14.744  1.00  0.00    -0.194 OA
HETATM   13  O   UNL     1     -45.148 -54.715  12.855  1.00  0.00    -0.194 OA
BRANCH  11  14
HETATM   14  N   UNL     1     -46.148 -52.760  14.148  1.00  0.00    -0.198 NA
BRANCH  14  15
HETATM   15  C   UNL     1     -46.002 -52.169  15.521  1.00  0.00     0.104 C 
HETATM   16  C   UNL     1     -47.221 -51.397  15.993  1.00  0.00     0.021 C 
ENDBRANCH  14  15
BRANCH  14  17
HETATM   17  C   UNL     1     -45.655 -51.894  13.039  1.00  0.00     0.104 C 
HETATM   18  C   UNL     1     -44.451 -51.038  13.383  1.00  0.00     0.021 C 
ENDBRANCH  14  17
ENDBRANCH  11  14
ENDBRANCH   9  11
ENDBRANCH   8   9
ENDBRANCH   1   8
BRANCH   4  19
HETATM   19  N   UNL     1     -39.690 -51.204  12.367  1.00  0.00    -0.363 N 
HETATM   20  C   UNL     1     -38.362 -50.932  12.938  1.00  0.00     0.150 C 
HETATM   21  C   UNL     1     -38.305 -49.541  13.587  1.00  0.00     0.187 C 
HETATM   22  O   UNL     1     -38.739 -48.517  12.681  1.00  0.00    -0.388 OA
HETATM   23  C   UNL     1     -40.107 -48.752  12.306  1.00  0.00     0.187 C 
HETATM   24  C   UNL     1     -40.275 -50.102  11.594  1.00  0.00     0.150 C 
ENDBRANCH   4  19
TORSDOF 7
ENDMDL
MODEL 7
REMARK VINA RESULT:      -5.4      3.626      4.640
REMARK  7 active torsions:
REMARK  status: ('A' for Active; 'I' for Inactive)
REMARK    1  A    between atoms: C_2  and  N_3 
REMARK    2  A    between atoms: N_3  and  C_4 
REMARK    3  A    between atoms: N_3  and  S_6 
REMARK    4  A    between atoms: S_6  and  N_9 
REMARK    5  A    between atoms: N_9  and  C_10 
REMARK    6  A    between atoms: C_10  and  C_11 
REMARK    7  A    between atoms: C_14  and  N_18 
ROOT
HETATM    1  C   UNL     1     -41.662 -53.229  12.989  1.00  0.00    -0.029 A 
HETATM    2  C   UNL     1     -40.904 -53.438  14.137  1.00  0.00     0.013 A 
HETATM    3  C   UNL     1     -39.743 -52.698  14.348  1.00  0.00     0.049 A 
HETATM    4  C   UNL     1     -39.334 -51.735  13.427  1.00  0.00     0.103 A 
HETATM    5  N   UNL     1     -40.031 -51.557  12.286  1.00  0.00    -0.352 N 
ATOM      6  HN  UNL     1     -39.718 -50.886  11.584  1.00  0.00     0.166 HD
HETATM    7  C   UNL     1     -41.161 -52.292  12.092  1.00  0.00     0.098 A 
ENDROOT
BRANCH   1   8
HETATM    8  C   UNL     1     -42.957 -53.959  12.703  1.00  0.00     0.145 C 
BRANCH   8   9
HETATM    9  N   UNL     1     -43.962 -53.090  12.064  1.00  0.00    -0.202 NA
HETATM   10  H   UNL     1     -43.649 -52.119  12.067  1.00  0.00     0.141 HD
BRANCH   9  11
HETATM   11  S   UNL     1     -45.499 -53.079  12.697  1.00  0.00     0.281 S 
HETATM   12  O   UNL     1     -45.675 -54.354  13.350  1.00  0.00    -0.194 OA
HETATM   13  O   UNL     1     -46.395 -52.657  11.649  1.00  0.00    -0.194 OA
BRANCH  11  14
HETATM   14  N   UNL     1     -45.442 -51.868  13.877  1.00  0.00    -0.198 NA
BRANCH  14  15
HETATM   15  C   UNL     1     -44.452 -50.808  13.487  1.00  0.00     0.104 C 
HETATM   16  C   UNL     1     -43.486 -50.427  14.595  1.00  0.00     0.021 C 
ENDBRANCH  14  15
BRANCH  14  17
HETATM   17  C   UNL     1     -46.734 -51.352  14.411  1.00  0.00     0.104 C 
HETATM   18  C   UNL     1     -46.999 -51.679  15.868  1.00  0.00     0.021 C 
ENDBRANCH  14  17
ENDBRANCH  11  14
ENDBRANCH   9  11
ENDBRANCH   8   9
ENDBRANCH   1   8
BRANCH   4  19
HETATM   19  N   UNL     1     -38.187 -51.001  13.672  1.00  0.00    -0.363 N 
HETATM   20  C   UNL     1     -37.794 -50.707  15.059  1.00  0.00     0.150 C 
HETATM   21  C   UNL     1     -37.971 -49.217  15.388  1.00  0.00     0.187 C 
HETATM   22  O   UNL     1     -37.303 -48.381  14.434  1.00  0.00    -0.388 OA
HETATM   23  C   UNL     1     -37.865 -48.594  13.128  1.00  0.00     0.187 C 
HETATM   24  C   UNL     1     -37.695 -50.049  12.668  1.00  0.00     0.150 C 
ENDBRANCH   4  19
TORSDOF 7
ENDMDL
MODEL 8
REMARK VINA RESULT:      -5.3      3.408      7.551
REMARK  7 active torsions:
REMARK  status: ('A' for Active; 'I' for Inactive)
REMARK    1  A    between atoms: C_2  and  N_3 
REMARK    2  A    between atoms: N_3  and  C_4 
REMARK    3  A    between atoms: N_3  and  S_6 
REMARK    4  A    between atoms: S_6  and  N_9 
REMARK    5  A    between atoms: N_9  and  C_10 
REMARK    6  A    between atoms: C_10  and  C_11 
REMARK    7  A    between atoms: C_14  and  N_18 
ROOT
HETATM    1  C   UNL     1     -42.238 -53.902  13.333  1.00  0.00    -0.029 A 
HETATM    2  C   UNL     1     -43.424 -53.566  12.687  1.00  0.00     0.013 A 
HETATM    3  C   UNL     1     -44.617 -53.514  13.403  1.00  0.00     0.049 A 
HETATM    4  C   UNL     1     -44.640 -53.783  14.770  1.00  0.00     0.103 A 
HETATM    5  N   UNL     1     -43.509 -54.159  15.401  1.00  0.00    -0.352 N 
ATOM      6  HN  UNL     1     -43.520 -54.400  16.392  1.00  0.00     0.166 HD
HETATM    7  C   UNL     1     -42.351 -54.209  14.685  1.00  0.00     0.098 A 
ENDROOT
BRANCH   1   8
HETATM    8  C   UNL     1     -40.894 -53.940  12.640  1.00  0.00     0.145 C 
BRANCH   8   9
HETATM    9  N   UNL     1     -40.573 -52.667  11.968  1.00  0.00    -0.202 NA
HETATM   10  H   UNL     1     -39.959 -52.828  11.170  1.00  0.00     0.141 HD
BRANCH   9  11
HETATM   11  S   UNL     1     -39.853 -51.471  12.869  1.00  0.00     0.281 S 
HETATM   12  O   UNL     1     -38.614 -52.026  13.360  1.00  0.00    -0.194 OA
HETATM   13  O   UNL     1     -40.845 -50.958  13.781  1.00  0.00    -0.194 OA
BRANCH  11  14
HETATM   14  N   UNL     1     -39.495 -50.269  11.732  1.00  0.00    -0.198 NA
BRANCH  14  15
HETATM   15  C   UNL     1     -40.668 -49.346  11.564  1.00  0.00     0.104 C 
HETATM   16  C   UNL     1     -40.293 -47.875  11.517  1.00  0.00     0.021 C 
ENDBRANCH  14  15
BRANCH  14  17
HETATM   17  C   UNL     1     -38.172 -49.589  11.827  1.00  0.00     0.104 C 
HETATM   18  C   UNL     1     -37.132 -50.073  10.833  1.00  0.00     0.021 C 
ENDBRANCH  14  17
ENDBRANCH  11  14
ENDBRANCH   9  11
ENDBRANCH   8   9
ENDBRANCH   1   8
BRANCH   4  19
HETATM   19  N   UNL     1     -45.837 -53.704  15.460  1.00  0.00    -0.363 N 
HETATM   20  C   UNL     1     -46.944 -52.908  14.909  1.00  0.00     0.150 C 
HETATM   21  C   UNL     1     -47.192 -51.641  15.743  1.00  0.00     0.187 C 
HETATM   22  O   UNL     1     -47.369 -51.948  17.132  1.00  0.00    -0.388 OA
HETATM   23  C   UNL     1     -46.175 -52.565  17.646  1.00  0.00     0.187 C 
HETATM   24  C   UNL     1     -45.857 -53.878  16.919  1.00  0.00     0.150 C 
ENDBRANCH   4  19
TORSDOF 7
ENDMDL
MODEL 9
REMARK VINA RESULT:      -5.3      3.598      7.016
REMARK  7 active torsions:
REMARK  status: ('A' for Active; 'I' for Inactive)
REMARK    1  A    between atoms: C_2  and  N_3 
REMARK    2  A    between atoms: N_3  and  C_4 
REMARK    3  A    between atoms: N_3  and  S_6 
REMARK    4  A    between atoms: S_6  and  N_9 
REMARK    5  A    between atoms: N_9  and  C_10 
REMARK    6  A    between atoms: C_10  and  C_11 
REMARK    7  A    between atoms: C_14  and  N_18 
ROOT
HETATM    1  C   UNL     1     -39.608 -48.778  12.398  1.00  0.00    -0.029 A 
HETATM    2  C   UNL     1     -39.660 -49.168  13.733  1.00  0.00     0.013 A 
HETATM    3  C   UNL     1     -39.808 -50.514  14.059  1.00  0.00     0.049 A 
HETATM    4  C   UNL     1     -39.893 -51.484  13.062  1.00  0.00     0.103 A 
HETATM    5  N   UNL     1     -39.894 -51.117  11.764  1.00  0.00    -0.352 N 
ATOM      6  HN  UNL     1     -39.998 -51.812  11.026  1.00  0.00     0.166 HD
HETATM    7  C   UNL     1     -39.753 -49.796  11.462  1.00  0.00     0.098 A 
ENDROOT
BRANCH   1   8
HETATM    8  C   UNL     1     -39.406 -47.344  11.958  1.00  0.00     0.145 C 
BRANCH   8   9
HETATM    9  N   UNL     1     -40.099 -47.044  10.692  1.00  0.00    -0.202 NA
HETATM   10  H   UNL     1     -39.521 -46.447  10.100  1.00  0.00     0.141 HD
BRANCH   9  11
HETATM   11  S   UNL     1     -41.587 -46.307  10.773  1.00  0.00     0.281 S 
HETATM   12  O   UNL     1     -41.621 -45.346   9.697  1.00  0.00    -0.194 OA
HETATM   13  O   UNL     1     -41.791 -45.893  12.139  1.00  0.00    -0.194 OA
BRANCH  11  14
HETATM   14  N   UNL     1     -42.675 -47.554  10.421  1.00  0.00    -0.198 NA
BRANCH  14  15
HETATM   15  C   UNL     1     -43.560 -47.823  11.605  1.00  0.00     0.104 C 
HETATM   16  C   UNL     1     -43.192 -49.076  12.379  1.00  0.00     0.021 C 
ENDBRANCH  14  15
BRANCH  14  17
HETATM   17  C   UNL     1     -43.380 -47.517   9.108  1.00  0.00     0.104 C 
HETATM   18  C   UNL     1     -44.894 -47.495   9.196  1.00  0.00     0.021 C 
ENDBRANCH  14  17
ENDBRANCH  11  14
ENDBRANCH   9  11
ENDBRANCH   8   9
ENDBRANCH   1   8
BRANCH   4  19
HETATM   19  N   UNL     1     -40.020 -52.816  13.416  1.00  0.00    -0.363 N 
HETATM   20  C   UNL     1     -40.939 -53.684  12.664  1.00  0.00     0.150 C 
HETATM   21  C   UNL     1     -42.161 -54.072  13.510  1.00  0.00     0.187 C 
HETATM   22  O   UNL     1     -41.775 -54.635  14.772  1.00  0.00    -0.388 OA
HETATM   23  C   UNL     1     -41.030 -53.662  15.526  1.00  0.00     0.187 C 
HETATM   24  C   UNL     1     -39.749 -53.238  14.796  1.00  0.00     0.150 C 
ENDBRANCH   4  19
TORSDOF 7
ENDMDL
