MODEL 1
REMARK VINA RESULT:      -6.4      0.000      0.000
REMARK  9 active torsions:
REMARK  status: ('A' for Active; 'I' for Inactive)
REMARK    1  A    between atoms: N_1  and  C_3 
REMARK    2  A    between atoms: C_8  and  O_15 
REMARK    3  A    between atoms: C_10  and  O_18 
REMARK    4  A    between atoms: C_11  and  C_24 
REMARK    5  A    between atoms: C_14  and  N_29 
REMARK    6  A    between atoms: O_15  and  C_20 
REMARK    7  A    between atoms: O_18  and  C_21 
REMARK    8  A    between atoms: C_22  and  O_25 
REMARK    9  A    between atoms: C_24  and  O_25 
ROOT
HETATM    1  C   UNL     1     -41.742 -49.127  12.526  1.00  0.00     0.264 C 
HETATM    2  C   UNL     1     -40.216 -49.046  12.604  1.00  0.00     0.213 C 
HETATM    3  O   UNL     1     -42.066 -50.320  11.793  1.00  0.00    -0.353 OA
HETATM    4  C   UNL     1     -39.786 -50.519  12.449  1.00  0.00     0.197 C 
HETATM    5  C   UNL     1     -41.097 -51.302  12.231  1.00  0.00     0.180 C 
ENDROOT
BRANCH   1   6
HETATM    6  N   UNL     1     -42.464 -47.976  12.029  1.00  0.00    -0.281 N 
HETATM    7  C   UNL     1     -42.842 -46.896  12.805  1.00  0.00     0.160 A 
HETATM    8  N   UNL     1     -43.205 -45.864  12.077  1.00  0.00    -0.330 N 
HETATM    9 BR   UNL     1     -42.842 -46.803  14.682  1.00  0.00    -0.010 Br
HETATM   10  C   UNL     1     -43.148 -46.315  10.782  1.00  0.00     0.117 A 
ATOM     11  HN  UNL     1     -43.469 -44.934  12.402  1.00  0.00     0.168 HD
HETATM   12  C   UNL     1     -42.733 -47.640  10.724  1.00  0.00     0.143 A 
HETATM   13  C   UNL     1     -43.416 -45.668   9.564  1.00  0.00     0.109 A 
HETATM   14  N   UNL     1     -42.593 -48.387   9.616  1.00  0.00    -0.336 N 
HETATM   15  C   UNL     1     -42.929 -47.675   8.514  1.00  0.00     0.183 A 
ATOM     16  HN  UNL     1     -42.278 -49.356   9.606  1.00  0.00     0.168 HD
HETATM   17  N   UNL     1     -43.306 -46.380   8.422  1.00  0.00    -0.341 N 
ATOM     18  HN  UNL     1     -43.502 -45.952   7.516  1.00  0.00     0.167 HD
BRANCH  13  19
HETATM   19  N   UNL     1     -43.772 -44.325   9.485  1.00  0.00    -0.287 NA
HETATM   20  H   UNL     1     -44.444 -44.145   8.746  1.00  0.00     0.125 HD
HETATM   21  H   UNL     1     -43.976 -43.935  10.396  1.00  0.00     0.125 HD
ENDBRANCH  13  19
ENDBRANCH   1   6
BRANCH   2  22
HETATM   22  O   UNL     1     -39.818 -48.522  13.891  1.00  0.00    -0.309 OA
BRANCH  22  23
HETATM   23  C   UNL     1     -39.223 -47.301  13.864  1.00  0.00     0.255 C 
HETATM   24  O   UNL     1     -39.356 -46.477  12.973  1.00  0.00    -0.266 OA
HETATM   25  C   UNL     1     -38.480 -47.053  15.137  1.00  0.00     0.126 C 
ENDBRANCH  22  23
ENDBRANCH   2  22
BRANCH   4  26
HETATM   26  O   UNL     1     -39.039 -51.018  13.570  1.00  0.00    -0.311 OA
BRANCH  26  27
HETATM   27  C   UNL     1     -37.689 -51.074  13.413  1.00  0.00     0.255 C 
HETATM   28  O   UNL     1     -37.118 -51.592  12.464  1.00  0.00    -0.266 OA
HETATM   29  C   UNL     1     -36.991 -50.376  14.539  1.00  0.00     0.126 C 
ENDBRANCH  26  27
ENDBRANCH   4  26
BRANCH   5  30
HETATM   30  C   UNL     1     -41.636 -52.054  13.471  1.00  0.00     0.213 C 
BRANCH  30  31
HETATM   31  O   UNL     1     -43.044 -52.326  13.418  1.00  0.00    -0.319 OA
BRANCH  31  32
HETATM   32  C   UNL     1     -43.397 -53.623  13.212  1.00  0.00     0.254 C 
HETATM   33  O   UNL     1     -44.246 -54.001  12.419  1.00  0.00    -0.266 OA
HETATM   34  C   UNL     1     -42.578 -54.537  14.074  1.00  0.00     0.126 C 
ENDBRANCH  31  32
ENDBRANCH  30  31
ENDBRANCH   5  30
TORSDOF 9
ENDMDL
MODEL 2
REMARK VINA RESULT:      -6.2      3.163      6.329
REMARK  9 active torsions:
REMARK  status: ('A' for Active; 'I' for Inactive)
REMARK    1  A    between atoms: N_1  and  C_3 
REMARK    2  A    between atoms: C_8  and  O_15 
REMARK    3  A    between atoms: C_10  and  O_18 
REMARK    4  A    between atoms: C_11  and  C_24 
REMARK    5  A    between atoms: C_14  and  N_29 
REMARK    6  A    between atoms: O_15  and  C_20 
REMARK    7  A    between atoms: O_18  and  C_21 
REMARK    8  A    between atoms: C_22  and  O_25 
REMARK    9  A    between atoms: C_24  and  O_25 
ROOT
HETATM    1  C   UNL     1     -41.240 -48.787  11.776  1.00  0.00     0.264 C 
HETATM    2  C   UNL     1     -41.295 -47.930  13.043  1.00  0.00     0.213 C 
HETATM    3  O   UNL     1     -42.556 -48.775  11.200  1.00  0.00    -0.353 OA
HETATM    4  C   UNL     1     -42.481 -46.983  12.766  1.00  0.00     0.197 C 
HETATM    5  C   UNL     1     -43.038 -47.424  11.397  1.00  0.00     0.180 C 
ENDROOT
BRANCH   1   6
HETATM    6  N   UNL     1     -40.708 -50.128  11.881  1.00  0.00    -0.281 N 
HETATM    7  C   UNL     1     -39.362 -50.432  11.949  1.00  0.00     0.160 A 
HETATM    8  N   UNL     1     -39.150 -51.668  12.341  1.00  0.00    -0.330 N 
HETATM    9 BR   UNL     1     -37.926 -49.277  11.578  1.00  0.00    -0.010 Br
HETATM   10  C   UNL     1     -40.403 -52.219  12.445  1.00  0.00     0.117 A 
ATOM     11  HN  UNL     1     -38.253 -52.118  12.528  1.00  0.00     0.168 HD
HETATM   12  C   UNL     1     -41.391 -51.296  12.122  1.00  0.00     0.143 A 
HETATM   13  C   UNL     1     -40.820 -53.505  12.827  1.00  0.00     0.109 A 
HETATM   14  N   UNL     1     -42.716 -51.518  12.101  1.00  0.00    -0.336 N 
HETATM   15  C   UNL     1     -42.992 -52.801  12.434  1.00  0.00     0.183 A 
ATOM     16  HN  UNL     1     -43.417 -50.816  11.867  1.00  0.00     0.168 HD
HETATM   17  N   UNL     1     -42.141 -53.783  12.808  1.00  0.00    -0.341 N 
ATOM     18  HN  UNL     1     -42.486 -54.708  13.067  1.00  0.00     0.167 HD
BRANCH  13  19
HETATM   19  N   UNL     1     -39.933 -54.495  13.240  1.00  0.00    -0.287 NA
HETATM   20  H   UNL     1     -39.285 -54.165  13.949  1.00  0.00     0.125 HD
HETATM   21  H   UNL     1     -40.404 -55.371  13.421  1.00  0.00     0.125 HD
ENDBRANCH  13  19
ENDBRANCH   1   6
BRANCH   2  22
HETATM   22  O   UNL     1     -40.063 -47.189  13.188  1.00  0.00    -0.309 OA
BRANCH  22  23
HETATM   23  C   UNL     1     -39.479 -47.264  14.412  1.00  0.00     0.255 C 
HETATM   24  O   UNL     1     -39.013 -48.280  14.905  1.00  0.00    -0.266 OA
HETATM   25  C   UNL     1     -39.369 -45.904  15.025  1.00  0.00     0.126 C 
ENDBRANCH  22  23
ENDBRANCH   2  22
BRANCH   4  26
HETATM   26  O   UNL     1     -42.118 -45.594  12.779  1.00  0.00    -0.311 OA
BRANCH  26  27
HETATM   27  C   UNL     1     -42.839 -44.794  13.610  1.00  0.00     0.255 C 
HETATM   28  O   UNL     1     -43.127 -43.628  13.380  1.00  0.00    -0.266 OA
HETATM   29  C   UNL     1     -43.273 -45.546  14.830  1.00  0.00     0.126 C 
ENDBRANCH  26  27
ENDBRANCH   4  26
BRANCH   5  30
HETATM   30  C   UNL     1     -42.628 -46.541  10.196  1.00  0.00     0.213 C 
BRANCH  30  31
HETATM   31  O   UNL     1     -43.708 -46.242   9.299  1.00  0.00    -0.319 OA
BRANCH  31  32
HETATM   32  C   UNL     1     -44.128 -47.263   8.506  1.00  0.00     0.254 C 
HETATM   33  O   UNL     1     -43.439 -47.834   7.674  1.00  0.00    -0.266 OA
HETATM   34  C   UNL     1     -45.553 -47.617   8.810  1.00  0.00     0.126 C 
ENDBRANCH  31  32
ENDBRANCH  30  31
ENDBRANCH   5  30
TORSDOF 9
ENDMDL
MODEL 3
REMARK VINA RESULT:      -6.1      2.276      3.240
REMARK  9 active torsions:
REMARK  status: ('A' for Active; 'I' for Inactive)
REMARK    1  A    between atoms: N_1  and  C_3 
REMARK    2  A    between atoms: C_8  and  O_15 
REMARK    3  A    between atoms: C_10  and  O_18 
REMARK    4  A    between atoms: C_11  and  C_24 
REMARK    5  A    between atoms: C_14  and  N_29 
REMARK    6  A    between atoms: O_15  and  C_20 
REMARK    7  A    between atoms: O_18  and  C_21 
REMARK    8  A    between atoms: C_22  and  O_25 
REMARK    9  A    between atoms: C_24  and  O_25 
ROOT
HETATM    1  C   UNL     1     -40.583 -49.550  13.446  1.00  0.00     0.264 C 
HETATM    2  C   UNL     1     -39.796 -50.665  12.755  1.00  0.00     0.213 C 
HETATM    3  O   UNL     1     -41.927 -50.027  13.624  1.00  0.00    -0.353 OA
HETATM    4  C   UNL     1     -40.582 -51.933  13.145  1.00  0.00     0.197 C 
HETATM    5  C   UNL     1     -41.784 -51.426  13.969  1.00  0.00     0.180 C 
ENDROOT
BRANCH   1   6
HETATM    6  N   UNL     1     -40.553 -48.227  12.861  1.00  0.00    -0.281 N 
HETATM    7  C   UNL     1     -39.674 -47.227  13.233  1.00  0.00     0.160 A 
HETATM    8  N   UNL     1     -39.642 -46.244  12.363  1.00  0.00    -0.330 N 
HETATM    9 BR   UNL     1     -38.585 -47.199  14.765  1.00  0.00    -0.010 Br
HETATM   10  C   UNL     1     -40.601 -46.569  11.436  1.00  0.00     0.117 A 
ATOM     11  HN  UNL     1     -39.038 -45.421  12.373  1.00  0.00     0.168 HD
HETATM   12  C   UNL     1     -41.215 -47.777  11.745  1.00  0.00     0.143 A 
HETATM   13  C   UNL     1     -41.022 -45.909  10.269  1.00  0.00     0.109 A 
HETATM   14  N   UNL     1     -42.207 -48.369  11.057  1.00  0.00    -0.336 N 
HETATM   15  C   UNL     1     -42.563 -47.616   9.988  1.00  0.00     0.183 A 
ATOM     16  HN  UNL     1     -42.632 -49.261  11.305  1.00  0.00     0.168 HD
HETATM   17  N   UNL     1     -42.028 -46.454   9.551  1.00  0.00    -0.341 N 
ATOM     18  HN  UNL     1     -42.373 -46.002   8.704  1.00  0.00     0.167 HD
BRANCH  13  19
HETATM   19  N   UNL     1     -40.439 -44.730   9.816  1.00  0.00    -0.287 NA
HETATM   20  H   UNL     1     -40.080 -44.813   8.870  1.00  0.00     0.125 HD
HETATM   21  H   UNL     1     -41.013 -43.922  10.020  1.00  0.00     0.125 HD
ENDBRANCH  13  19
ENDBRANCH   1   6
BRANCH   2  22
HETATM   22  O   UNL     1     -38.448 -50.710  13.275  1.00  0.00    -0.309 OA
BRANCH  22  23
HETATM   23  C   UNL     1     -37.470 -50.874  12.347  1.00  0.00     0.255 C 
HETATM   24  O   UNL     1     -36.747 -51.854  12.258  1.00  0.00    -0.266 OA
HETATM   25  C   UNL     1     -37.483 -49.745  11.367  1.00  0.00     0.126 C 
ENDBRANCH  22  23
ENDBRANCH   2  22
BRANCH   4  26
HETATM   26  O   UNL     1     -39.797 -52.893  13.870  1.00  0.00    -0.311 OA
BRANCH  26  27
HETATM   27  C   UNL     1     -40.074 -54.202  13.624  1.00  0.00     0.255 C 
HETATM   28  O   UNL     1     -40.871 -54.601  12.787  1.00  0.00    -0.266 OA
HETATM   29  C   UNL     1     -39.239 -55.095  14.489  1.00  0.00     0.126 C 
ENDBRANCH  26  27
ENDBRANCH   4  26
BRANCH   5  30
HETATM   30  C   UNL     1     -41.649 -51.577  15.503  1.00  0.00     0.213 C 
BRANCH  30  31
HETATM   31  O   UNL     1     -42.691 -52.360  16.103  1.00  0.00    -0.319 OA
BRANCH  31  32
HETATM   32  C   UNL     1     -42.410 -53.674  16.309  1.00  0.00     0.254 C 
HETATM   33  O   UNL     1     -41.554 -54.097  17.070  1.00  0.00    -0.266 OA
HETATM   34  C   UNL     1     -43.318 -54.543  15.491  1.00  0.00     0.126 C 
ENDBRANCH  31  32
ENDBRANCH  30  31
ENDBRANCH   5  30
TORSDOF 9
ENDMDL
MODEL 4
REMARK VINA RESULT:      -6.1      2.353      3.547
REMARK  9 active torsions:
REMARK  status: ('A' for Active; 'I' for Inactive)
REMARK    1  A    between atoms: N_1  and  C_3 
REMARK    2  A    between atoms: C_8  and  O_15 
REMARK    3  A    between atoms: C_10  and  O_18 
REMARK    4  A    between atoms: C_11  and  C_24 
REMARK    5  A    between atoms: C_14  and  N_29 
REMARK    6  A    between atoms: O_15  and  C_20 
REMARK    7  A    between atoms: O_18  and  C_21 
REMARK    8  A    between atoms: C_22  and  O_25 
REMARK    9  A    between atoms: C_24  and  O_25 
ROOT
HETATM    1  C   UNL     1     -42.233 -49.441  13.433  1.00  0.00     0.264 C 
HETATM    2  C   UNL     1     -41.418 -50.692  13.101  1.00  0.00     0.213 C 
HETATM    3  O   UNL     1     -43.611 -49.751  13.170  1.00  0.00    -0.353 OA
HETATM    4  C   UNL     1     -42.450 -51.827  13.261  1.00  0.00     0.197 C 
HETATM    5  C   UNL     1     -43.777 -51.121  13.607  1.00  0.00     0.180 C 
ENDROOT
BRANCH   1   6
HETATM    6  N   UNL     1     -41.837 -48.186  12.832  1.00  0.00    -0.281 N 
HETATM    7  C   UNL     1     -40.878 -47.339  13.352  1.00  0.00     0.160 A 
HETATM    8  N   UNL     1     -40.486 -46.436  12.482  1.00  0.00    -0.330 N 
HETATM    9 BR   UNL     1     -40.131 -47.406  15.076  1.00  0.00    -0.010 Br
HETATM   10  C   UNL     1     -41.284 -46.644  11.384  1.00  0.00     0.117 A 
ATOM     11  HN  UNL     1     -39.753 -45.736  12.596  1.00  0.00     0.168 HD
HETATM   12  C   UNL     1     -42.165 -47.699  11.590  1.00  0.00     0.143 A 
HETATM   13  C   UNL     1     -41.331 -45.996  10.138  1.00  0.00     0.109 A 
HETATM   14  N   UNL     1     -43.092 -48.147  10.726  1.00  0.00    -0.336 N 
HETATM   15  C   UNL     1     -43.078 -47.414   9.587  1.00  0.00     0.183 A 
ATOM     16  HN  UNL     1     -43.719 -48.930  10.905  1.00  0.00     0.168 HD
HETATM   17  N   UNL     1     -42.256 -46.398   9.241  1.00  0.00    -0.341 N 
ATOM     18  HN  UNL     1     -42.333 -45.948   8.328  1.00  0.00     0.167 HD
BRANCH  13  19
HETATM   19  N   UNL     1     -40.456 -44.973   9.785  1.00  0.00    -0.287 NA
HETATM   20  H   UNL     1     -39.648 -44.925  10.398  1.00  0.00     0.125 HD
HETATM   21  H   UNL     1     -40.278 -44.956   8.789  1.00  0.00     0.125 HD
ENDBRANCH  13  19
ENDBRANCH   1   6
BRANCH   2  22
HETATM   22  O   UNL     1     -40.335 -50.839  14.046  1.00  0.00    -0.309 OA
BRANCH  22  23
HETATM   23  C   UNL     1     -39.149 -51.236  13.516  1.00  0.00     0.255 C 
HETATM   24  O   UNL     1     -38.731 -52.383  13.517  1.00  0.00    -0.266 OA
HETATM   25  C   UNL     1     -38.479 -50.096  12.818  1.00  0.00     0.126 C 
ENDBRANCH  22  23
ENDBRANCH   2  22
BRANCH   4  26
HETATM   26  O   UNL     1     -42.081 -52.800  14.251  1.00  0.00    -0.311 OA
BRANCH  26  27
HETATM   27  C   UNL     1     -42.035 -54.093  13.833  1.00  0.00     0.255 C 
HETATM   28  O   UNL     1     -41.284 -54.520  12.967  1.00  0.00    -0.266 OA
HETATM   29  C   UNL     1     -42.999 -54.939  14.606  1.00  0.00     0.126 C 
ENDBRANCH  26  27
ENDBRANCH   4  26
BRANCH   5  30
HETATM   30  C   UNL     1     -44.175 -51.150  15.102  1.00  0.00     0.213 C 
BRANCH  30  31
HETATM   31  O   UNL     1     -45.287 -52.010  15.389  1.00  0.00    -0.319 OA
BRANCH  31  32
HETATM   32  C   UNL     1     -46.522 -51.482  15.179  1.00  0.00     0.254 C 
HETATM   33  O   UNL     1     -46.999 -51.228  14.084  1.00  0.00    -0.266 OA
HETATM   34  C   UNL     1     -47.239 -51.280  16.481  1.00  0.00     0.126 C 
ENDBRANCH  31  32
ENDBRANCH  30  31
ENDBRANCH   5  30
TORSDOF 9
ENDMDL
MODEL 5
REMARK VINA RESULT:      -6.0      1.621      2.112
REMARK  9 active torsions:
REMARK  status: ('A' for Active; 'I' for Inactive)
REMARK    1  A    between atoms: N_1  and  C_3 
REMARK    2  A    between atoms: C_8  and  O_15 
REMARK    3  A    between atoms: C_10  and  O_18 
REMARK    4  A    between atoms: C_11  and  C_24 
REMARK    5  A    between atoms: C_14  and  N_29 
REMARK    6  A    between atoms: O_15  and  C_20 
REMARK    7  A    between atoms: O_18  and  C_21 
REMARK    8  A    between atoms: C_22  and  O_25 
REMARK    9  A    between atoms: C_24  and  O_25 
ROOT
HETATM    1  C   UNL     1     -42.569 -49.336  13.238  1.00  0.00     0.264 C 
HETATM    2  C   UNL     1     -41.128 -49.849  13.197  1.00  0.00     0.213 C 
HETATM    3  O   UNL     1     -43.389 -50.322  12.591  1.00  0.00    -0.353 OA
HETATM    4  C   UNL     1     -41.311 -51.376  13.081  1.00  0.00     0.197 C 
HETATM    5  C   UNL     1     -42.836 -51.595  13.002  1.00  0.00     0.180 C 
ENDROOT
BRANCH   1   6
HETATM    6  N   UNL     1     -42.834 -48.002  12.743  1.00  0.00    -0.281 N 
HETATM    7  C   UNL     1     -42.892 -46.871  13.534  1.00  0.00     0.160 A 
HETATM    8  N   UNL     1     -42.841 -45.765  12.826  1.00  0.00    -0.330 N 
HETATM    9 BR   UNL     1     -42.997 -46.813  15.410  1.00  0.00    -0.010 Br
HETATM   10  C   UNL     1     -42.843 -46.189  11.521  1.00  0.00     0.117 A 
ATOM     11  HN  UNL     1     -42.808 -44.805  13.170  1.00  0.00     0.168 HD
HETATM   12  C   UNL     1     -42.882 -47.576  11.438  1.00  0.00     0.143 A 
HETATM   13  C   UNL     1     -42.794 -45.470  10.314  1.00  0.00     0.109 A 
HETATM   14  N   UNL     1     -42.916 -48.309  10.312  1.00  0.00    -0.336 N 
HETATM   15  C   UNL     1     -42.919 -47.508   9.219  1.00  0.00     0.183 A 
ATOM     16  HN  UNL     1     -42.937 -49.328  10.284  1.00  0.00     0.168 HD
HETATM   17  N   UNL     1     -42.842 -46.160   9.154  1.00  0.00    -0.341 N 
ATOM     18  HN  UNL     1     -42.821 -45.678   8.256  1.00  0.00     0.167 HD
BRANCH  13  19
HETATM   19  N   UNL     1     -42.683 -44.084  10.265  1.00  0.00    -0.287 NA
HETATM   20  H   UNL     1     -42.806 -43.652  11.176  1.00  0.00     0.125 HD
HETATM   21  H   UNL     1     -41.881 -43.790   9.722  1.00  0.00     0.125 HD
ENDBRANCH  13  19
ENDBRANCH   1   6
BRANCH   2  22
HETATM   22  O   UNL     1     -40.447 -49.500  14.423  1.00  0.00    -0.309 OA
BRANCH  22  23
HETATM   23  C   UNL     1     -39.196 -48.993  14.270  1.00  0.00     0.255 C 
HETATM   24  O   UNL     1     -38.209 -49.367  14.883  1.00  0.00    -0.266 OA
HETATM   25  C   UNL     1     -39.167 -47.997  13.155  1.00  0.00     0.126 C 
ENDBRANCH  22  23
ENDBRANCH   2  22
BRANCH   4  26
HETATM   26  O   UNL     1     -40.716 -52.107  14.165  1.00  0.00    -0.311 OA
BRANCH  26  27
HETATM   27  C   UNL     1     -39.746 -52.998  13.826  1.00  0.00     0.255 C 
HETATM   28  O   UNL     1     -38.555 -52.733  13.740  1.00  0.00    -0.266 OA
HETATM   29  C   UNL     1     -40.324 -54.362  13.613  1.00  0.00     0.126 C 
ENDBRANCH  26  27
ENDBRANCH   4  26
BRANCH   5  30
HETATM   30  C   UNL     1     -43.510 -52.061  14.314  1.00  0.00     0.213 C 
BRANCH  30  31
HETATM   31  O   UNL     1     -44.541 -53.040  14.120  1.00  0.00    -0.319 OA
BRANCH  31  32
HETATM   32  C   UNL     1     -45.591 -52.660  13.344  1.00  0.00     0.254 C 
HETATM   33  O   UNL     1     -45.842 -53.110  12.236  1.00  0.00    -0.266 OA
HETATM   34  C   UNL     1     -46.421 -51.628  14.046  1.00  0.00     0.126 C 
ENDBRANCH  31  32
ENDBRANCH  30  31
ENDBRANCH   5  30
TORSDOF 9
ENDMDL
MODEL 6
REMARK VINA RESULT:      -6.0      3.087      6.002
REMARK  9 active torsions:
REMARK  status: ('A' for Active; 'I' for Inactive)
REMARK    1  A    between atoms: N_1  and  C_3 
REMARK    2  A    between atoms: C_8  and  O_15 
REMARK    3  A    between atoms: C_10  and  O_18 
REMARK    4  A    between atoms: C_11  and  C_24 
REMARK    5  A    between atoms: C_14  and  N_29 
REMARK    6  A    between atoms: O_15  and  C_20 
REMARK    7  A    between atoms: O_18  and  C_21 
REMARK    8  A    between atoms: C_22  and  O_25 
REMARK    9  A    between atoms: C_24  and  O_25 
ROOT
HETATM    1  C   UNL     1     -41.704 -48.866  12.087  1.00  0.00     0.264 C 
HETATM    2  C   UNL     1     -40.469 -47.979  12.264  1.00  0.00     0.213 C 
HETATM    3  O   UNL     1     -42.850 -48.000  12.084  1.00  0.00    -0.353 OA
HETATM    4  C   UNL     1     -40.947 -46.614  11.730  1.00  0.00     0.197 C 
HETATM    5  C   UNL     1     -42.429 -46.823  11.354  1.00  0.00     0.180 C 
ENDROOT
BRANCH   1   6
HETATM    6  N   UNL     1     -41.875 -49.988  12.984  1.00  0.00    -0.281 N 
HETATM    7  C   UNL     1     -42.469 -49.909  14.229  1.00  0.00     0.160 A 
HETATM    8  N   UNL     1     -42.776 -51.093  14.709  1.00  0.00    -0.330 N 
HETATM    9 BR   UNL     1     -42.863 -48.344  15.192  1.00  0.00    -0.010 Br
HETATM   10  C   UNL     1     -42.283 -51.981  13.786  1.00  0.00     0.117 A 
ATOM     11  HN  UNL     1     -43.272 -51.305  15.576  1.00  0.00     0.168 HD
HETATM   12  C   UNL     1     -41.678 -51.322  12.722  1.00  0.00     0.143 A 
HETATM   13  C   UNL     1     -42.312 -53.385  13.744  1.00  0.00     0.109 A 
HETATM   14  N   UNL     1     -41.078 -51.894  11.664  1.00  0.00    -0.336 N 
HETATM   15  C   UNL     1     -41.122 -53.244  11.761  1.00  0.00     0.183 A 
ATOM     16  HN  UNL     1     -40.649 -51.382  10.894  1.00  0.00     0.168 HD
HETATM   17  N   UNL     1     -41.709 -54.008  12.710  1.00  0.00    -0.341 N 
ATOM     18  HN  UNL     1     -41.697 -55.027  12.646  1.00  0.00     0.167 HD
BRANCH  13  19
HETATM   19  N   UNL     1     -42.949 -54.156  14.712  1.00  0.00    -0.287 NA
HETATM   20  H   UNL     1     -42.743 -55.146  14.617  1.00  0.00     0.125 HD
HETATM   21  H   UNL     1     -42.854 -53.754  15.636  1.00  0.00     0.125 HD
ENDBRANCH  13  19
ENDBRANCH   1   6
BRANCH   2  22
HETATM   22  O   UNL     1     -39.376 -48.493  11.471  1.00  0.00    -0.309 OA
BRANCH  22  23
HETATM   23  C   UNL     1     -38.407 -49.144  12.165  1.00  0.00     0.255 C 
HETATM   24  O   UNL     1     -38.315 -49.169  13.382  1.00  0.00    -0.266 OA
HETATM   25  C   UNL     1     -37.539 -49.933  11.239  1.00  0.00     0.126 C 
ENDBRANCH  22  23
ENDBRANCH   2  22
BRANCH   4  26
HETATM   26  O   UNL     1     -40.172 -46.130  10.621  1.00  0.00    -0.311 OA
BRANCH  26  27
HETATM   27  C   UNL     1     -39.813 -44.819  10.668  1.00  0.00     0.255 C 
HETATM   28  O   UNL     1     -39.778 -44.071   9.701  1.00  0.00    -0.266 OA
HETATM   29  C   UNL     1     -39.507 -44.399  12.072  1.00  0.00     0.126 C 
ENDBRANCH  26  27
ENDBRANCH   4  26
BRANCH   5  30
HETATM   30  C   UNL     1     -42.712 -47.013   9.845  1.00  0.00     0.213 C 
BRANCH  30  31
HETATM   31  O   UNL     1     -44.102 -46.927   9.500  1.00  0.00    -0.319 OA
BRANCH  31  32
HETATM   32  C   UNL     1     -44.508 -47.690   8.451  1.00  0.00     0.254 C 
HETATM   33  O   UNL     1     -43.793 -48.051   7.528  1.00  0.00    -0.266 OA
HETATM   34  C   UNL     1     -45.954 -48.059   8.595  1.00  0.00     0.126 C 
ENDBRANCH  31  32
ENDBRANCH  30  31
ENDBRANCH   5  30
TORSDOF 9
ENDMDL
MODEL 7
REMARK VINA RESULT:      -5.9      3.710      6.020
REMARK  9 active torsions:
REMARK  status: ('A' for Active; 'I' for Inactive)
REMARK    1  A    between atoms: N_1  and  C_3 
REMARK    2  A    between atoms: C_8  and  O_15 
REMARK    3  A    between atoms: C_10  and  O_18 
REMARK    4  A    between atoms: C_11  and  C_24 
REMARK    5  A    between atoms: C_14  and  N_29 
REMARK    6  A    between atoms: O_15  and  C_20 
REMARK    7  A    between atoms: O_18  and  C_21 
REMARK    8  A    between atoms: C_22  and  O_25 
REMARK    9  A    between atoms: C_24  and  O_25 
ROOT
HETATM    1  C   UNL     1     -43.057 -52.484  13.940  1.00  0.00     0.264 C 
HETATM    2  C   UNL     1     -43.356 -52.423  15.439  1.00  0.00     0.213 C 
HETATM    3  O   UNL     1     -43.172 -53.860  13.541  1.00  0.00    -0.353 OA
HETATM    4  C   UNL     1     -44.227 -53.675  15.668  1.00  0.00     0.197 C 
HETATM    5  C   UNL     1     -44.295 -54.375  14.294  1.00  0.00     0.180 C 
ENDROOT
BRANCH   1   6
HETATM    6  N   UNL     1     -41.831 -51.883  13.461  1.00  0.00    -0.281 N 
HETATM    7  C   UNL     1     -40.578 -52.448  13.599  1.00  0.00     0.160 A 
HETATM    8  N   UNL     1     -39.684 -51.870  12.828  1.00  0.00    -0.330 N 
HETATM    9 BR   UNL     1     -40.110 -53.895  14.704  1.00  0.00    -0.010 Br
HETATM   10  C   UNL     1     -40.358 -50.832  12.234  1.00  0.00     0.117 A 
ATOM     11  HN  UNL     1     -38.707 -52.135  12.699  1.00  0.00     0.168 HD
HETATM   12  C   UNL     1     -41.685 -50.789  12.643  1.00  0.00     0.143 A 
HETATM   13  C   UNL     1     -39.935 -49.865  11.306  1.00  0.00     0.109 A 
HETATM   14  N   UNL     1     -42.608 -49.887  12.269  1.00  0.00    -0.336 N 
HETATM   15  C   UNL     1     -42.073 -48.978  11.419  1.00  0.00     0.183 A 
ATOM     16  HN  UNL     1     -43.579 -49.887  12.582  1.00  0.00     0.168 HD
HETATM   17  N   UNL     1     -40.821 -48.926  10.911  1.00  0.00    -0.341 N 
ATOM     18  HN  UNL     1     -40.553 -48.198  10.247  1.00  0.00     0.167 HD
BRANCH  13  19
HETATM   19  N   UNL     1     -38.652 -49.845  10.768  1.00  0.00    -0.287 NA
HETATM   20  H   UNL     1     -38.375 -48.918  10.459  1.00  0.00     0.125 HD
HETATM   21  H   UNL     1     -37.993 -50.351  11.345  1.00  0.00     0.125 HD
ENDBRANCH  13  19
ENDBRANCH   1   6
BRANCH   2  22
HETATM   22  O   UNL     1     -44.092 -51.217  15.744  1.00  0.00    -0.309 OA
BRANCH  22  23
HETATM   23  C   UNL     1     -43.509 -50.393  16.653  1.00  0.00     0.255 C 
HETATM   24  O   UNL     1     -42.319 -50.382  16.926  1.00  0.00    -0.266 OA
HETATM   25  C   UNL     1     -44.504 -49.412  17.185  1.00  0.00     0.126 C 
ENDBRANCH  22  23
ENDBRANCH   2  22
BRANCH   4  26
HETATM   26  O   UNL     1     -45.532 -53.377  16.187  1.00  0.00    -0.311 OA
BRANCH  26  27
HETATM   27  C   UNL     1     -45.784 -53.803  17.454  1.00  0.00     0.255 C 
HETATM   28  O   UNL     1     -45.671 -54.958  17.837  1.00  0.00    -0.266 OA
HETATM   29  C   UNL     1     -46.180 -52.657  18.333  1.00  0.00     0.126 C 
ENDBRANCH  26  27
ENDBRANCH   4  26
BRANCH   5  30
HETATM   30  C   UNL     1     -45.604 -54.155  13.500  1.00  0.00     0.213 C 
BRANCH  30  31
HETATM   31  O   UNL     1     -45.453 -53.303  12.356  1.00  0.00    -0.319 OA
BRANCH  31  32
HETATM   32  C   UNL     1     -46.420 -52.365  12.174  1.00  0.00     0.254 C 
HETATM   33  O   UNL     1     -47.088 -52.234  11.159  1.00  0.00    -0.266 OA
HETATM   34  C   UNL     1     -46.579 -51.524  13.405  1.00  0.00     0.126 C 
ENDBRANCH  31  32
ENDBRANCH  30  31
ENDBRANCH   5  30
TORSDOF 9
ENDMDL
MODEL 8
REMARK VINA RESULT:      -5.6      2.532      3.286
REMARK  9 active torsions:
REMARK  status: ('A' for Active; 'I' for Inactive)
REMARK    1  A    between atoms: N_1  and  C_3 
REMARK    2  A    between atoms: C_8  and  O_15 
REMARK    3  A    between atoms: C_10  and  O_18 
REMARK    4  A    between atoms: C_11  and  C_24 
REMARK    5  A    between atoms: C_14  and  N_29 
REMARK    6  A    between atoms: O_15  and  C_20 
REMARK    7  A    between atoms: O_18  and  C_21 
REMARK    8  A    between atoms: C_22  and  O_25 
REMARK    9  A    between atoms: C_24  and  O_25 
ROOT
HETATM    1  C   UNL     1     -40.774 -50.742  12.950  1.00  0.00     0.264 C 
HETATM    2  C   UNL     1     -39.699 -51.351  13.852  1.00  0.00     0.213 C 
HETATM    3  O   UNL     1     -41.082 -51.717  11.941  1.00  0.00    -0.353 OA
HETATM    4  C   UNL     1     -39.912 -52.867  13.667  1.00  0.00     0.197 C 
HETATM    5  C   UNL     1     -41.046 -52.991  12.628  1.00  0.00     0.180 C 
ENDROOT
BRANCH   1   6
HETATM    6  N   UNL     1     -40.531 -49.434  12.382  1.00  0.00    -0.281 N 
HETATM    7  C   UNL     1     -39.367 -49.068  11.734  1.00  0.00     0.160 A 
HETATM    8  N   UNL     1     -39.506 -47.952  11.053  1.00  0.00    -0.330 N 
HETATM    9 BR   UNL     1     -37.735 -50.002  11.735  1.00  0.00    -0.010 Br
HETATM   10  C   UNL     1     -40.779 -47.527  11.342  1.00  0.00     0.117 A 
ATOM     11  HN  UNL     1     -38.821 -47.503  10.446  1.00  0.00     0.168 HD
HETATM   12  C   UNL     1     -41.425 -48.407  12.202  1.00  0.00     0.143 A 
HETATM   13  C   UNL     1     -41.500 -46.402  10.906  1.00  0.00     0.109 A 
HETATM   14  N   UNL     1     -42.668 -48.275  12.695  1.00  0.00    -0.336 N 
HETATM   15  C   UNL     1     -43.241 -47.131  12.249  1.00  0.00     0.183 A 
ATOM     16  HN  UNL     1     -43.118 -48.944  13.319  1.00  0.00     0.168 HD
HETATM   17  N   UNL     1     -42.748 -46.215  11.386  1.00  0.00    -0.341 N 
ATOM     18  HN  UNL     1     -43.302 -45.406  11.105  1.00  0.00     0.167 HD
BRANCH  13  19
HETATM   19  N   UNL     1     -40.989 -45.486   9.992  1.00  0.00    -0.287 NA
HETATM   20  H   UNL     1     -40.354 -45.914   9.326  1.00  0.00     0.125 HD
HETATM   21  H   UNL     1     -41.712 -44.886   9.616  1.00  0.00     0.125 HD
ENDBRANCH  13  19
ENDBRANCH   1   6
BRANCH   2  22
HETATM   22  O   UNL     1     -39.928 -50.959  15.225  1.00  0.00    -0.309 OA
BRANCH  22  23
HETATM   23  C   UNL     1     -39.106 -49.987  15.699  1.00  0.00     0.255 C 
HETATM   24  O   UNL     1     -39.478 -48.945  16.214  1.00  0.00    -0.266 OA
HETATM   25  C   UNL     1     -37.678 -50.424  15.617  1.00  0.00     0.126 C 
ENDBRANCH  22  23
ENDBRANCH   2  22
BRANCH   4  26
HETATM   26  O   UNL     1     -40.222 -53.555  14.889  1.00  0.00    -0.311 OA
BRANCH  26  27
HETATM   27  C   UNL     1     -39.284 -54.432  15.337  1.00  0.00     0.255 C 
HETATM   28  O   UNL     1     -38.854 -55.381  14.697  1.00  0.00    -0.266 OA
HETATM   29  C   UNL     1     -38.814 -54.056  16.708  1.00  0.00     0.126 C 
ENDBRANCH  26  27
ENDBRANCH   4  26
BRANCH   5  30
HETATM   30  C   UNL     1     -42.444 -53.315  13.205  1.00  0.00     0.213 C 
BRANCH  30  31
HETATM   31  O   UNL     1     -43.496 -53.287  12.229  1.00  0.00    -0.319 OA
BRANCH  31  32
HETATM   32  C   UNL     1     -44.681 -52.765  12.640  1.00  0.00     0.254 C 
HETATM   33  O   UNL     1     -45.782 -53.167  12.295  1.00  0.00    -0.266 OA
HETATM   34  C   UNL     1     -44.457 -51.639  13.605  1.00  0.00     0.126 C 
ENDBRANCH  31  32
ENDBRANCH  30  31
ENDBRANCH   5  30
TORSDOF 9
ENDMDL
MODEL 9
REMARK VINA RESULT:      -5.6      3.568      6.283
REMARK  9 active torsions:
REMARK  status: ('A' for Active; 'I' for Inactive)
REMARK    1  A    between atoms: N_1  and  C_3 
REMARK    2  A    between atoms: C_8  and  O_15 
REMARK    3  A    between atoms: C_10  and  O_18 
REMARK    4  A    between atoms: C_11  and  C_24 
REMARK    5  A    between atoms: C_14  and  N_29 
REMARK    6  A    between atoms: O_15  and  C_20 
REMARK    7  A    between atoms: O_18  and  C_21 
REMARK    8  A    between atoms: C_22  and  O_25 
REMARK    9  A    between atoms: C_24  and  O_25 
ROOT
HETATM    1  C   UNL     1     -41.766 -50.996  13.089  1.00  0.00     0.264 C 
HETATM    2  C   UNL     1     -42.450 -49.713  13.567  1.00  0.00     0.213 C 
HETATM    3  O   UNL     1     -41.219 -50.725  11.789  1.00  0.00    -0.353 OA
HETATM    4  C   UNL     1     -41.712 -48.615  12.775  1.00  0.00     0.197 C 
HETATM    5  C   UNL     1     -40.717 -49.370  11.869  1.00  0.00     0.180 C 
ENDROOT
BRANCH   1   6
HETATM    6  N   UNL     1     -42.527 -52.226  13.110  1.00  0.00    -0.281 N 
HETATM    7  C   UNL     1     -42.004 -53.464  13.429  1.00  0.00     0.160 A 
HETATM    8  N   UNL     1     -42.941 -54.353  13.672  1.00  0.00    -0.330 N 
HETATM    9 BR   UNL     1     -40.184 -53.918  13.559  1.00  0.00    -0.010 Br
HETATM   10  C   UNL     1     -44.118 -53.695  13.414  1.00  0.00     0.117 A 
ATOM     11  HN  UNL     1     -42.820 -55.317  13.984  1.00  0.00     0.168 HD
HETATM   12  C   UNL     1     -43.889 -52.382  13.020  1.00  0.00     0.143 A 
HETATM   13  C   UNL     1     -45.454 -54.121  13.501  1.00  0.00     0.109 A 
HETATM   14  N   UNL     1     -44.821 -51.478  12.674  1.00  0.00    -0.336 N 
HETATM   15  C   UNL     1     -46.061 -52.017  12.745  1.00  0.00     0.183 A 
ATOM     16  HN  UNL     1     -44.621 -50.518  12.396  1.00  0.00     0.168 HD
HETATM   17  N   UNL     1     -46.427 -53.255  13.148  1.00  0.00    -0.341 N 
ATOM     18  HN  UNL     1     -47.410 -53.526  13.185  1.00  0.00     0.167 HD
BRANCH  13  19
HETATM   19  N   UNL     1     -45.815 -55.388  13.949  1.00  0.00    -0.287 NA
HETATM   20  H   UNL     1     -46.387 -55.889  13.277  1.00  0.00     0.125 HD
HETATM   21  H   UNL     1     -45.028 -55.887  14.344  1.00  0.00     0.125 HD
ENDBRANCH  13  19
ENDBRANCH   1   6
BRANCH   2  22
HETATM   22  O   UNL     1     -42.251 -49.550  14.989  1.00  0.00    -0.309 OA
BRANCH  22  23
HETATM   23  C   UNL     1     -43.152 -50.187  15.780  1.00  0.00     0.255 C 
HETATM   24  O   UNL     1     -44.362 -50.166  15.622  1.00  0.00    -0.266 OA
HETATM   25  C   UNL     1     -42.451 -51.025  16.802  1.00  0.00     0.126 C 
ENDBRANCH  22  23
ENDBRANCH   2  22
BRANCH   4  26
HETATM   26  O   UNL     1     -41.054 -47.650  13.611  1.00  0.00    -0.311 OA
BRANCH  26  27
HETATM   27  C   UNL     1     -41.277 -46.343  13.307  1.00  0.00     0.255 C 
HETATM   28  O   UNL     1     -41.322 -45.889  12.173  1.00  0.00    -0.266 OA
HETATM   29  C   UNL     1     -41.503 -45.537  14.549  1.00  0.00     0.126 C 
ENDBRANCH  26  27
ENDBRANCH   4  26
BRANCH   5  30
HETATM   30  C   UNL     1     -39.249 -49.382  12.358  1.00  0.00     0.213 C 
BRANCH  30  31
HETATM   31  O   UNL     1     -38.423 -50.347  11.691  1.00  0.00    -0.319 OA
BRANCH  31  32
HETATM   32  C   UNL     1     -37.526 -51.008  12.469  1.00  0.00     0.254 C 
HETATM   33  O   UNL     1     -36.775 -51.889  12.080  1.00  0.00    -0.266 OA
HETATM   34  C   UNL     1     -37.561 -50.487  13.875  1.00  0.00     0.126 C 
ENDBRANCH  31  32
ENDBRANCH  30  31
ENDBRANCH   5  30
TORSDOF 9
ENDMDL
