MODEL 1
REMARK VINA RESULT:      -5.9      0.000      0.000
REMARK  3 active torsions:
REMARK  status: ('A' for Active; 'I' for Inactive)
REMARK    1  A    between atoms: C_6  and  C_7 
REMARK    2  A    between atoms: C_7  and  N_8 
REMARK       I    between atoms: N_8  and  C_9 
REMARK       I    between atoms: C_9  and  N_11 
REMARK    3  A    between atoms: N_11  and  C_12 
ROOT
HETATM    1  N   UNL     1     -43.778 -53.315  12.124  1.00  0.00    -0.341 N 
HETATM    2  C   UNL     1     -42.931 -52.249  12.346  1.00  0.00     0.322 C 
HETATM    3  O   UNL     1     -43.248 -51.331  13.092  1.00  0.00    -0.247 OA
HETATM    4  N   UNL     1     -41.745 -52.389  11.675  1.00  0.00    -0.288 N 
HETATM    5  H   UNL     1     -43.618 -53.895  11.314  1.00  0.00     0.164 HD
HETATM    6  H   UNL     1     -41.469 -53.309  11.366  1.00  0.00     0.172 HD
ENDROOT
BRANCH   1   7
HETATM    7  C   UNL     1     -45.090 -53.359  12.756  1.00  0.00     0.160 C 
BRANCH   7   8
HETATM    8  C   UNL     1     -45.276 -54.537  13.751  1.00  0.00     0.240 C 
HETATM    9  N   UNL     1     -45.958 -54.218  15.019  1.00  0.00     0.090 N 
HETATM   10  C   UNL     1     -47.199 -53.472  14.897  1.00  0.00     0.310 C 
HETATM   11  C   UNL     1     -44.988 -53.575  15.904  1.00  0.00     0.272 C 
HETATM   12  C   UNL     1     -43.638 -54.143  15.480  1.00  0.00     0.032 C 
HETATM   13  C   UNL     1     -43.943 -55.053  14.297  1.00  0.00     0.039 C 
ENDBRANCH   7   8
ENDBRANCH   1   7
BRANCH   4  14
HETATM   14  C   UNL     1     -40.722 -51.470  11.676  1.00  0.00     0.169 A 
HETATM   15  N   UNL     1     -40.554 -50.582  10.719  1.00  0.00    -0.279 N 
HETATM   16  N   UNL     1     -39.441 -49.786  10.938  1.00  0.00    -0.296 N 
ATOM     17  HN  UNL     1     -41.170 -50.490   9.912  1.00  0.00     0.189 HD
HETATM   18  C   UNL     1     -38.837 -50.087  12.069  1.00  0.00     0.066 A 
ATOM     19  HN  UNL     1     -39.128 -49.055  10.299  1.00  0.00     0.187 HD
HETATM   20  C   UNL     1     -37.607 -49.441  12.588  1.00  0.00     0.078 C 
HETATM   21  S   UNL     1     -39.607 -51.332  12.959  1.00  0.00    -0.038 SA
ENDBRANCH   4  14
TORSDOF 3
ENDMDL
MODEL 2
REMARK VINA RESULT:      -5.6      2.873      3.144
REMARK  3 active torsions:
REMARK  status: ('A' for Active; 'I' for Inactive)
REMARK    1  A    between atoms: C_6  and  C_7 
REMARK    2  A    between atoms: C_7  and  N_8 
REMARK       I    between atoms: N_8  and  C_9 
REMARK       I    between atoms: C_9  and  N_11 
REMARK    3  A    between atoms: N_11  and  C_12 
ROOT
HETATM    1  N   UNL     1     -42.590 -51.351  12.150  1.00  0.00    -0.341 N 
HETATM    2  C   UNL     1     -42.478 -49.976  12.125  1.00  0.00     0.322 C 
HETATM    3  O   UNL     1     -43.069 -49.276  12.937  1.00  0.00    -0.247 OA
HETATM    4  N   UNL     1     -41.629 -49.549  11.139  1.00  0.00    -0.288 N 
HETATM    5  H   UNL     1     -42.329 -51.869  11.324  1.00  0.00     0.164 HD
HETATM    6  H   UNL     1     -40.962 -50.203  10.756  1.00  0.00     0.172 HD
ENDROOT
BRANCH   1   7
HETATM    7  C   UNL     1     -43.442 -52.005  13.134  1.00  0.00     0.160 C 
BRANCH   7   8
HETATM    8  C   UNL     1     -44.419 -53.052  12.532  1.00  0.00     0.240 C 
HETATM    9  N   UNL     1     -45.843 -52.887  12.877  1.00  0.00     0.090 N 
HETATM   10  C   UNL     1     -46.383 -51.549  12.704  1.00  0.00     0.310 C 
HETATM   11  C   UNL     1     -46.047 -53.417  14.224  1.00  0.00     0.272 C 
HETATM   12  C   UNL     1     -44.982 -54.497  14.382  1.00  0.00     0.032 C 
HETATM   13  C   UNL     1     -44.179 -54.457  13.088  1.00  0.00     0.039 C 
ENDBRANCH   7   8
ENDBRANCH   1   7
BRANCH   4  14
HETATM   14  C   UNL     1     -41.349 -48.234  10.850  1.00  0.00     0.169 A 
HETATM   15  N   UNL     1     -42.010 -47.540   9.947  1.00  0.00    -0.279 N 
HETATM   16  N   UNL     1     -41.525 -46.249   9.826  1.00  0.00    -0.296 N 
ATOM     17  HN  UNL     1     -42.788 -47.911   9.401  1.00  0.00     0.189 HD
HETATM   18  C   UNL     1     -40.539 -46.013  10.667  1.00  0.00     0.066 A 
ATOM     19  HN  UNL     1     -41.888 -45.562   9.164  1.00  0.00     0.187 HD
HETATM   20  C   UNL     1     -39.787 -44.740  10.781  1.00  0.00     0.078 C 
HETATM   21  S   UNL     1     -40.166 -47.337  11.689  1.00  0.00    -0.038 SA
ENDBRANCH   4  14
TORSDOF 3
ENDMDL
MODEL 3
REMARK VINA RESULT:      -5.6      3.747      7.404
REMARK  3 active torsions:
REMARK  status: ('A' for Active; 'I' for Inactive)
REMARK    1  A    between atoms: C_6  and  C_7 
REMARK    2  A    between atoms: C_7  and  N_8 
REMARK       I    between atoms: N_8  and  C_9 
REMARK       I    between atoms: C_9  and  N_11 
REMARK    3  A    between atoms: N_11  and  C_12 
ROOT
HETATM    1  N   UNL     1     -40.677 -48.200  10.693  1.00  0.00    -0.341 N 
HETATM    2  C   UNL     1     -40.950 -49.235  11.563  1.00  0.00     0.322 C 
HETATM    3  O   UNL     1     -41.551 -49.041  12.612  1.00  0.00    -0.247 OA
HETATM    4  N   UNL     1     -40.505 -50.438  11.083  1.00  0.00    -0.288 N 
HETATM    5  H   UNL     1     -39.958 -48.333   9.998  1.00  0.00     0.164 HD
HETATM    6  H   UNL     1     -40.325 -50.530  10.095  1.00  0.00     0.172 HD
ENDROOT
BRANCH   1   7
HETATM    7  C   UNL     1     -41.078 -46.838  11.018  1.00  0.00     0.160 C 
BRANCH   7   8
HETATM    8  C   UNL     1     -39.906 -45.919  11.460  1.00  0.00     0.240 C 
HETATM    9  N   UNL     1     -40.094 -45.186  12.726  1.00  0.00     0.090 N 
HETATM   10  C   UNL     1     -40.552 -45.982  13.853  1.00  0.00     0.310 C 
HETATM   11  C   UNL     1     -40.947 -44.030  12.457  1.00  0.00     0.272 C 
HETATM   12  C   UNL     1     -40.677 -43.679  10.998  1.00  0.00     0.032 C 
HETATM   13  C   UNL     1     -39.701 -44.739  10.507  1.00  0.00     0.039 C 
ENDBRANCH   7   8
ENDBRANCH   1   7
BRANCH   4  14
HETATM   14  C   UNL     1     -40.602 -51.640  11.745  1.00  0.00     0.169 A 
HETATM   15  N   UNL     1     -41.171 -52.705  11.221  1.00  0.00    -0.279 N 
HETATM   16  N   UNL     1     -41.164 -53.781  12.093  1.00  0.00    -0.296 N 
ATOM     17  HN  UNL     1     -41.571 -52.734  10.283  1.00  0.00     0.189 HD
HETATM   18  C   UNL     1     -40.558 -53.490  13.226  1.00  0.00     0.066 A 
ATOM     19  HN  UNL     1     -41.577 -54.689  11.883  1.00  0.00     0.187 HD
HETATM   20  C   UNL     1     -40.396 -54.410  14.378  1.00  0.00     0.078 C 
HETATM   21  S   UNL     1     -39.924 -51.900  13.288  1.00  0.00    -0.038 SA
ENDBRANCH   4  14
TORSDOF 3
ENDMDL
MODEL 4
REMARK VINA RESULT:      -5.6      2.979      3.247
REMARK  3 active torsions:
REMARK  status: ('A' for Active; 'I' for Inactive)
REMARK    1  A    between atoms: C_6  and  C_7 
REMARK    2  A    between atoms: C_7  and  N_8 
REMARK       I    between atoms: N_8  and  C_9 
REMARK       I    between atoms: C_9  and  N_11 
REMARK    3  A    between atoms: N_11  and  C_12 
ROOT
HETATM    1  N   UNL     1     -43.533 -50.877  12.519  1.00  0.00    -0.341 N 
HETATM    2  C   UNL     1     -42.459 -50.015  12.447  1.00  0.00     0.322 C 
HETATM    3  O   UNL     1     -41.494 -50.139  13.191  1.00  0.00    -0.247 OA
HETATM    4  N   UNL     1     -42.615 -49.083  11.455  1.00  0.00    -0.288 N 
HETATM    5  H   UNL     1     -44.407 -50.591  12.105  1.00  0.00     0.164 HD
HETATM    6  H   UNL     1     -43.272 -49.271  10.713  1.00  0.00     0.172 HD
ENDROOT
BRANCH   1   7
HETATM    7  C   UNL     1     -43.556 -51.947  13.507  1.00  0.00     0.160 C 
BRANCH   7   8
HETATM    8  C   UNL     1     -43.314 -53.363  12.916  1.00  0.00     0.240 C 
HETATM    9  N   UNL     1     -44.100 -54.460  13.511  1.00  0.00     0.090 N 
HETATM   10  C   UNL     1     -45.526 -54.215  13.642  1.00  0.00     0.310 C 
HETATM   11  C   UNL     1     -43.465 -54.838  14.772  1.00  0.00     0.272 C 
HETATM   12  C   UNL     1     -41.990 -54.503  14.581  1.00  0.00     0.032 C 
HETATM   13  C   UNL     1     -41.900 -53.876  13.196  1.00  0.00     0.039 C 
ENDBRANCH   7   8
ENDBRANCH   1   7
BRANCH   4  14
HETATM   14  C   UNL     1     -41.726 -48.073  11.170  1.00  0.00     0.169 A 
HETATM   15  N   UNL     1     -40.449 -48.286  10.933  1.00  0.00    -0.279 N 
HETATM   16  N   UNL     1     -39.760 -47.108  10.696  1.00  0.00    -0.296 N 
ATOM     17  HN  UNL     1     -40.017 -49.210  10.926  1.00  0.00     0.189 HD
HETATM   18  C   UNL     1     -40.556 -46.059  10.730  1.00  0.00     0.066 A 
ATOM     19  HN  UNL     1     -38.757 -47.059  10.515  1.00  0.00     0.187 HD
HETATM   20  C   UNL     1     -40.135 -44.650  10.538  1.00  0.00     0.078 C 
HETATM   21  S   UNL     1     -42.201 -46.443  11.015  1.00  0.00    -0.038 SA
ENDBRANCH   4  14
TORSDOF 3
ENDMDL
MODEL 5
REMARK VINA RESULT:      -5.5      2.909      3.654
REMARK  3 active torsions:
REMARK  status: ('A' for Active; 'I' for Inactive)
REMARK    1  A    between atoms: C_6  and  C_7 
REMARK    2  A    between atoms: C_7  and  N_8 
REMARK       I    between atoms: N_8  and  C_9 
REMARK       I    between atoms: C_9  and  N_11 
REMARK    3  A    between atoms: N_11  and  C_12 
ROOT
HETATM    1  N   UNL     1     -40.813 -52.580  11.886  1.00  0.00    -0.341 N 
HETATM    2  C   UNL     1     -41.237 -51.268  11.899  1.00  0.00     0.322 C 
HETATM    3  O   UNL     1     -42.228 -50.927  12.533  1.00  0.00    -0.247 OA
HETATM    4  N   UNL     1     -40.411 -50.455  11.168  1.00  0.00    -0.288 N 
HETATM    5  H   UNL     1     -40.185 -52.875  11.154  1.00  0.00     0.164 HD
HETATM    6  H   UNL     1     -39.474 -50.771  10.968  1.00  0.00     0.172 HD
ENDROOT
BRANCH   1   7
HETATM    7  C   UNL     1     -41.554 -53.602  12.613  1.00  0.00     0.160 C 
BRANCH   7   8
HETATM    8  C   UNL     1     -40.728 -54.327  13.711  1.00  0.00     0.240 C 
HETATM    9  N   UNL     1     -41.379 -54.475  15.025  1.00  0.00     0.090 N 
HETATM   10  C   UNL     1     -42.736 -54.996  15.002  1.00  0.00     0.310 C 
HETATM   11  C   UNL     1     -41.267 -53.200  15.731  1.00  0.00     0.272 C 
HETATM   12  C   UNL     1     -39.993 -52.564  15.187  1.00  0.00     0.032 C 
HETATM   13  C   UNL     1     -39.488 -53.532  14.124  1.00  0.00     0.039 C 
ENDBRANCH   7   8
ENDBRANCH   1   7
BRANCH   4  14
HETATM   14  C   UNL     1     -40.600 -49.108  10.969  1.00  0.00     0.169 A 
HETATM   15  N   UNL     1     -41.506 -48.624  10.145  1.00  0.00    -0.279 N 
HETATM   16  N   UNL     1     -41.484 -47.240  10.103  1.00  0.00    -0.296 N 
ATOM     17  HN  UNL     1     -42.148 -49.201   9.601  1.00  0.00     0.189 HD
HETATM   18  C   UNL     1     -40.584 -46.738  10.923  1.00  0.00     0.066 A 
ATOM     19  HN  UNL     1     -42.092 -46.677   9.508  1.00  0.00     0.187 HD
HETATM   20  C   UNL     1     -40.291 -45.295  11.104  1.00  0.00     0.078 C 
HETATM   21  S   UNL     1     -39.734 -47.917  11.829  1.00  0.00    -0.038 SA
ENDBRANCH   4  14
TORSDOF 3
ENDMDL
MODEL 6
REMARK VINA RESULT:      -5.4      2.998      3.531
REMARK  3 active torsions:
REMARK  status: ('A' for Active; 'I' for Inactive)
REMARK    1  A    between atoms: C_6  and  C_7 
REMARK    2  A    between atoms: C_7  and  N_8 
REMARK       I    between atoms: N_8  and  C_9 
REMARK       I    between atoms: C_9  and  N_11 
REMARK    3  A    between atoms: N_11  and  C_12 
ROOT
HETATM    1  N   UNL     1     -43.075 -51.078  12.365  1.00  0.00    -0.341 N 
HETATM    2  C   UNL     1     -42.089 -50.114  12.317  1.00  0.00     0.322 C 
HETATM    3  O   UNL     1     -41.096 -50.187  13.030  1.00  0.00    -0.247 OA
HETATM    4  N   UNL     1     -42.361 -49.149  11.384  1.00  0.00    -0.288 N 
HETATM    5  H   UNL     1     -43.984 -50.854  11.988  1.00  0.00     0.164 HD
HETATM    6  H   UNL     1     -43.019 -49.358  10.648  1.00  0.00     0.172 HD
ENDROOT
BRANCH   1   7
HETATM    7  C   UNL     1     -42.969 -52.198  13.290  1.00  0.00     0.160 C 
BRANCH   7   8
HETATM    8  C   UNL     1     -44.091 -52.245  14.362  1.00  0.00     0.240 C 
HETATM    9  N   UNL     1     -44.677 -53.571  14.635  1.00  0.00     0.090 N 
HETATM   10  C   UNL     1     -43.725 -54.645  14.867  1.00  0.00     0.310 C 
HETATM   11  C   UNL     1     -45.631 -53.871  13.570  1.00  0.00     0.272 C 
HETATM   12  C   UNL     1     -46.132 -52.509  13.101  1.00  0.00     0.032 C 
HETATM   13  C   UNL     1     -45.349 -51.493  13.921  1.00  0.00     0.039 C 
ENDBRANCH   7   8
ENDBRANCH   1   7
BRANCH   4  14
HETATM   14  C   UNL     1     -41.579 -48.044  11.137  1.00  0.00     0.169 A 
HETATM   15  N   UNL     1     -40.291 -48.120  10.877  1.00  0.00    -0.279 N 
HETATM   16  N   UNL     1     -39.725 -46.870  10.686  1.00  0.00    -0.296 N 
ATOM     17  HN  UNL     1     -39.771 -48.996  10.822  1.00  0.00     0.189 HD
HETATM   18  C   UNL     1     -40.619 -45.907  10.778  1.00  0.00     0.066 A 
ATOM     19  HN  UNL     1     -38.735 -46.715  10.498  1.00  0.00     0.187 HD
HETATM   20  C   UNL     1     -40.341 -44.456  10.647  1.00  0.00     0.078 C 
HETATM   21  S   UNL     1     -42.214 -46.464  11.062  1.00  0.00    -0.038 SA
ENDBRANCH   4  14
TORSDOF 3
ENDMDL
MODEL 7
REMARK VINA RESULT:      -5.4      3.738      6.609
REMARK  3 active torsions:
REMARK  status: ('A' for Active; 'I' for Inactive)
REMARK    1  A    between atoms: C_6  and  C_7 
REMARK    2  A    between atoms: C_7  and  N_8 
REMARK       I    between atoms: N_8  and  C_9 
REMARK       I    between atoms: C_9  and  N_11 
REMARK    3  A    between atoms: N_11  and  C_12 
ROOT
HETATM    1  N   UNL     1     -42.021 -48.958  10.888  1.00  0.00    -0.341 N 
HETATM    2  C   UNL     1     -41.199 -49.893  11.482  1.00  0.00     0.322 C 
HETATM    3  O   UNL     1     -40.033 -49.633  11.752  1.00  0.00    -0.247 OA
HETATM    4  N   UNL     1     -41.858 -51.066  11.739  1.00  0.00    -0.288 N 
HETATM    5  H   UNL     1     -42.862 -49.279  10.433  1.00  0.00     0.164 HD
HETATM    6  H   UNL     1     -42.866 -51.057  11.777  1.00  0.00     0.172 HD
ENDROOT
BRANCH   1   7
HETATM    7  C   UNL     1     -41.509 -47.639  10.541  1.00  0.00     0.160 C 
BRANCH   7   8
HETATM    8  C   UNL     1     -42.270 -46.465  11.216  1.00  0.00     0.240 C 
HETATM    9  N   UNL     1     -41.446 -45.328  11.667  1.00  0.00     0.090 N 
HETATM   10  C   UNL     1     -40.499 -44.811  10.694  1.00  0.00     0.310 C 
HETATM   11  C   UNL     1     -40.820 -45.699  12.935  1.00  0.00     0.272 C 
HETATM   12  C   UNL     1     -41.786 -46.694  13.569  1.00  0.00     0.032 C 
HETATM   13  C   UNL     1     -42.902 -46.872  12.548  1.00  0.00     0.039 C 
ENDBRANCH   7   8
ENDBRANCH   1   7
BRANCH   4  14
HETATM   14  C   UNL     1     -41.289 -52.189  12.292  1.00  0.00     0.169 A 
HETATM   15  N   UNL     1     -41.080 -53.297  11.613  1.00  0.00    -0.279 N 
HETATM   16  N   UNL     1     -40.517 -54.290  12.397  1.00  0.00    -0.296 N 
ATOM     17  HN  UNL     1     -41.306 -53.410  10.624  1.00  0.00     0.189 HD
HETATM   18  C   UNL     1     -40.295 -53.877  13.627  1.00  0.00     0.066 A 
ATOM     19  HN  UNL     1     -40.301 -55.229  12.061  1.00  0.00     0.187 HD
HETATM   20  C   UNL     1     -39.723 -54.697  14.723  1.00  0.00     0.078 C 
HETATM   21  S   UNL     1     -40.720 -52.240  13.899  1.00  0.00    -0.038 SA
ENDBRANCH   4  14
TORSDOF 3
ENDMDL
MODEL 8
REMARK VINA RESULT:      -5.3      1.922      2.527
REMARK  3 active torsions:
REMARK  status: ('A' for Active; 'I' for Inactive)
REMARK    1  A    between atoms: C_6  and  C_7 
REMARK    2  A    between atoms: C_7  and  N_8 
REMARK       I    between atoms: N_8  and  C_9 
REMARK       I    between atoms: C_9  and  N_11 
REMARK    3  A    between atoms: N_11  and  C_12 
ROOT
HETATM    1  N   UNL     1     -44.180 -50.378  14.603  1.00  0.00    -0.341 N 
HETATM    2  C   UNL     1     -43.016 -50.735  13.954  1.00  0.00     0.322 C 
HETATM    3  O   UNL     1     -42.513 -51.840  14.114  1.00  0.00    -0.247 OA
HETATM    4  N   UNL     1     -42.563 -49.738  13.131  1.00  0.00    -0.288 N 
HETATM    5  H   UNL     1     -44.410 -49.399  14.673  1.00  0.00     0.164 HD
HETATM    6  H   UNL     1     -43.210 -49.024  12.833  1.00  0.00     0.172 HD
ENDROOT
BRANCH   1   7
HETATM    7  C   UNL     1     -44.827 -51.306  15.521  1.00  0.00     0.160 C 
BRANCH   7   8
HETATM    8  C   UNL     1     -46.235 -51.776  15.061  1.00  0.00     0.240 C 
HETATM    9  N   UNL     1     -46.470 -53.232  15.068  1.00  0.00     0.090 N 
HETATM   10  C   UNL     1     -46.090 -53.927  16.286  1.00  0.00     0.310 C 
HETATM   11  C   UNL     1     -45.851 -53.795  13.869  1.00  0.00     0.272 C 
HETATM   12  C   UNL     1     -45.890 -52.667  12.844  1.00  0.00     0.032 C 
HETATM   13  C   UNL     1     -46.493 -51.479  13.582  1.00  0.00     0.039 C 
ENDBRANCH   7   8
ENDBRANCH   1   7
BRANCH   4  14
HETATM   14  C   UNL     1     -41.409 -49.791  12.384  1.00  0.00     0.169 A 
HETATM   15  N   UNL     1     -41.403 -49.995  11.084  1.00  0.00    -0.279 N 
HETATM   16  N   UNL     1     -40.118 -50.028  10.568  1.00  0.00    -0.296 N 
ATOM     17  HN  UNL     1     -42.246 -50.115  10.522  1.00  0.00     0.189 HD
HETATM   18  C   UNL     1     -39.211 -49.814  11.498  1.00  0.00     0.066 A 
ATOM     19  HN  UNL     1     -39.902 -50.198   9.586  1.00  0.00     0.187 HD
HETATM   20  C   UNL     1     -37.743 -49.804  11.285  1.00  0.00     0.078 C 
HETATM   21  S   UNL     1     -39.864 -49.519  13.054  1.00  0.00    -0.038 SA
ENDBRANCH   4  14
TORSDOF 3
ENDMDL
MODEL 9
REMARK VINA RESULT:      -5.2      4.023      5.339
REMARK  3 active torsions:
REMARK  status: ('A' for Active; 'I' for Inactive)
REMARK    1  A    between atoms: C_6  and  C_7 
REMARK    2  A    between atoms: C_7  and  N_8 
REMARK       I    between atoms: N_8  and  C_9 
REMARK       I    between atoms: C_9  and  N_11 
REMARK    3  A    between atoms: N_11  and  C_12 
ROOT
HETATM    1  N   UNL     1     -40.241 -50.833  11.897  1.00  0.00    -0.341 N 
HETATM    2  C   UNL     1     -40.583 -49.499  11.821  1.00  0.00     0.322 C 
HETATM    3  O   UNL     1     -40.345 -48.729  12.743  1.00  0.00    -0.247 OA
HETATM    4  N   UNL     1     -41.158 -49.185  10.618  1.00  0.00    -0.288 N 
HETATM    5  H   UNL     1     -40.688 -51.480  11.265  1.00  0.00     0.164 HD
HETATM    6  H   UNL     1     -41.009 -49.802   9.834  1.00  0.00     0.172 HD
ENDROOT
BRANCH   1   7
HETATM    7  C   UNL     1     -39.608 -51.366  13.096  1.00  0.00     0.160 C 
BRANCH   7   8
HETATM    8  C   UNL     1     -40.573 -52.145  14.031  1.00  0.00     0.240 C 
HETATM    9  N   UNL     1     -39.958 -53.171  14.893  1.00  0.00     0.090 N 
HETATM   10  C   UNL     1     -38.782 -52.749  15.636  1.00  0.00     0.310 C 
HETATM   11  C   UNL     1     -39.724 -54.363  14.080  1.00  0.00     0.272 C 
HETATM   12  C   UNL     1     -40.802 -54.316  13.002  1.00  0.00     0.032 C 
HETATM   13  C   UNL     1     -41.558 -53.019  13.252  1.00  0.00     0.039 C 
ENDBRANCH   7   8
ENDBRANCH   1   7
BRANCH   4  14
HETATM   14  C   UNL     1     -41.634 -47.943  10.268  1.00  0.00     0.169 A 
HETATM   15  N   UNL     1     -40.890 -46.857  10.288  1.00  0.00    -0.279 N 
HETATM   16  N   UNL     1     -41.604 -45.731   9.915  1.00  0.00    -0.296 N 
ATOM     17  HN  UNL     1     -39.903 -46.847  10.547  1.00  0.00     0.189 HD
HETATM   18  C   UNL     1     -42.848 -46.021   9.597  1.00  0.00     0.066 A 
ATOM     19  HN  UNL     1     -41.212 -44.789   9.889  1.00  0.00     0.187 HD
HETATM   20  C   UNL     1     -43.882 -45.044   9.176  1.00  0.00     0.078 C 
HETATM   21  S   UNL     1     -43.219 -47.691   9.694  1.00  0.00    -0.038 SA
ENDBRANCH   4  14
TORSDOF 3
ENDMDL
