MODEL 1
REMARK VINA RESULT:      -6.3      0.000      0.000
REMARK  4 active torsions:
REMARK  status: ('A' for Active; 'I' for Inactive)
REMARK       I    between atoms: N_2  and  C_3 
REMARK    1  A    between atoms: C_3  and  C_5 
REMARK    2  A    between atoms: N_10  and  C_11 
REMARK    3  A    between atoms: C_11  and  C_12 
REMARK       I    between atoms: C_12  and  N_14 
REMARK    4  A    between atoms: N_14  and  C_15 
ROOT
HETATM    1  C   UNL     1     -43.007 -53.356  12.933  1.00  0.00     0.047 A 
HETATM    2  C   UNL     1     -42.268 -54.296  13.753  1.00  0.00     0.024 A 
HETATM    3  C   UNL     1     -40.948 -54.160  13.936  1.00  0.00     0.075 A 
HETATM    4  C   UNL     1     -40.209 -53.039  13.298  1.00  0.00     0.247 A 
HETATM    5  O   UNL     1     -39.008 -52.916  13.513  1.00  0.00    -0.268 OA
HETATM    6  N   UNL     1     -40.971 -52.190  12.496  1.00  0.00    -0.315 N 
HETATM    7  C   UNL     1     -42.338 -52.368  12.310  1.00  0.00     0.111 A 
ENDROOT
BRANCH   6   8
HETATM    8  C   UNL     1     -40.293 -51.054  11.863  1.00  0.00     0.234 C 
BRANCH   8   9
HETATM    9  C   UNL     1     -41.010 -49.705  12.041  1.00  0.00     0.236 C 
HETATM   10  O   UNL     1     -41.129 -49.187  13.151  1.00  0.00    -0.272 OA
HETATM   11  N   UNL     1     -41.496 -49.119  10.892  1.00  0.00    -0.355 N 
HETATM   12  H   UNL     1     -41.215 -49.522  10.008  1.00  0.00     0.162 HD
BRANCH  11  13
HETATM   13  C   UNL     1     -42.184 -47.847  10.898  1.00  0.00     0.084 C 
HETATM   14  C   UNL     1     -43.152 -47.702   9.720  1.00  0.00     0.025 C 
HETATM   15  C   UNL     1     -43.078 -46.238   9.283  1.00  0.00     0.002 C 
HETATM   16  C   UNL     1     -42.148 -45.547  10.272  1.00  0.00     0.002 C 
HETATM   17  C   UNL     1     -41.234 -46.659  10.761  1.00  0.00     0.025 C 
ENDBRANCH  11  13
ENDBRANCH   8   9
ENDBRANCH   6   8
BRANCH   1  18
HETATM   18  C   UNL     1     -44.488 -53.443  12.714  1.00  0.00     0.252 C 
HETATM   19  N   UNL     1     -45.100 -52.234  12.475  1.00  0.00    -0.361 N 
HETATM   20  C   UNL     1     -46.511 -52.155  12.194  1.00  0.00     0.149 C 
HETATM   21  H   UNL     1     -44.544 -51.405  12.322  1.00  0.00     0.162 HD
HETATM   22  O   UNL     1     -45.079 -54.515  12.700  1.00  0.00    -0.268 OA
ENDBRANCH   1  18
TORSDOF 4
ENDMDL
MODEL 2
REMARK VINA RESULT:      -6.3      1.812      5.548
REMARK  4 active torsions:
REMARK  status: ('A' for Active; 'I' for Inactive)
REMARK       I    between atoms: N_2  and  C_3 
REMARK    1  A    between atoms: C_3  and  C_5 
REMARK    2  A    between atoms: N_10  and  C_11 
REMARK    3  A    between atoms: C_11  and  C_12 
REMARK       I    between atoms: C_12  and  N_14 
REMARK    4  A    between atoms: N_14  and  C_15 
ROOT
HETATM    1  C   UNL     1     -40.484 -48.845  11.369  1.00  0.00     0.047 A 
HETATM    2  C   UNL     1     -39.215 -48.607  12.028  1.00  0.00     0.024 A 
HETATM    3  C   UNL     1     -38.561 -49.602  12.641  1.00  0.00     0.075 A 
HETATM    4  C   UNL     1     -39.126 -50.977  12.663  1.00  0.00     0.247 A 
HETATM    5  O   UNL     1     -38.489 -51.877  13.199  1.00  0.00    -0.268 OA
HETATM    6  N   UNL     1     -40.364 -51.131  12.041  1.00  0.00    -0.315 N 
HETATM    7  C   UNL     1     -41.029 -50.075  11.428  1.00  0.00     0.111 A 
ENDROOT
BRANCH   6   8
HETATM    8  C   UNL     1     -40.954 -52.475  12.014  1.00  0.00     0.234 C 
BRANCH   8   9
HETATM    9  C   UNL     1     -42.123 -52.676  12.993  1.00  0.00     0.236 C 
HETATM   10  O   UNL     1     -41.941 -53.152  14.113  1.00  0.00    -0.272 OA
HETATM   11  N   UNL     1     -43.367 -52.290  12.543  1.00  0.00    -0.355 N 
HETATM   12  H   UNL     1     -43.408 -51.760  11.682  1.00  0.00     0.162 HD
BRANCH  11  13
HETATM   13  C   UNL     1     -44.559 -52.408  13.352  1.00  0.00     0.084 C 
HETATM   14  C   UNL     1     -45.831 -52.510  12.505  1.00  0.00     0.025 C 
HETATM   15  C   UNL     1     -46.912 -51.735  13.261  1.00  0.00     0.002 C 
HETATM   16  C   UNL     1     -46.274 -51.287  14.569  1.00  0.00     0.002 C 
HETATM   17  C   UNL     1     -44.792 -51.193  14.247  1.00  0.00     0.025 C 
ENDBRANCH  11  13
ENDBRANCH   8   9
ENDBRANCH   6   8
BRANCH   1  18
HETATM   18  C   UNL     1     -41.248 -47.777  10.645  1.00  0.00     0.252 C 
HETATM   19  N   UNL     1     -42.258 -48.247   9.838  1.00  0.00    -0.361 N 
HETATM   20  C   UNL     1     -43.118 -47.344   9.115  1.00  0.00     0.149 C 
HETATM   21  H   UNL     1     -42.525 -49.221   9.874  1.00  0.00     0.162 HD
HETATM   22  O   UNL     1     -41.012 -46.586  10.809  1.00  0.00    -0.268 OA
ENDBRANCH   1  18
TORSDOF 4
ENDMDL
MODEL 3
REMARK VINA RESULT:      -6.1      2.092      6.542
REMARK  4 active torsions:
REMARK  status: ('A' for Active; 'I' for Inactive)
REMARK       I    between atoms: N_2  and  C_3 
REMARK    1  A    between atoms: C_3  and  C_5 
REMARK    2  A    between atoms: N_10  and  C_11 
REMARK    3  A    between atoms: C_11  and  C_12 
REMARK       I    between atoms: C_12  and  N_14 
REMARK    4  A    between atoms: N_14  and  C_15 
ROOT
HETATM    1  C   UNL     1     -42.254 -46.921  10.197  1.00  0.00     0.047 A 
HETATM    2  C   UNL     1     -41.317 -45.950  10.725  1.00  0.00     0.024 A 
HETATM    3  C   UNL     1     -40.241 -46.339  11.422  1.00  0.00     0.075 A 
HETATM    4  C   UNL     1     -39.985 -47.781  11.672  1.00  0.00     0.247 A 
HETATM    5  O   UNL     1     -38.974 -48.112  12.280  1.00  0.00    -0.268 OA
HETATM    6  N   UNL     1     -40.942 -48.662  11.167  1.00  0.00    -0.315 N 
HETATM    7  C   UNL     1     -42.059 -48.226  10.462  1.00  0.00     0.111 A 
ENDROOT
BRANCH   6   8
HETATM    8  C   UNL     1     -40.723 -50.099  11.367  1.00  0.00     0.234 C 
BRANCH   8   9
HETATM    9  C   UNL     1     -41.575 -50.722  12.485  1.00  0.00     0.236 C 
HETATM   10  O   UNL     1     -41.577 -50.252  13.622  1.00  0.00    -0.272 OA
HETATM   11  N   UNL     1     -42.329 -51.821  12.134  1.00  0.00    -0.355 N 
HETATM   12  H   UNL     1     -42.400 -52.043  11.150  1.00  0.00     0.162 HD
BRANCH  11  13
HETATM   13  C   UNL     1     -43.187 -52.509  13.073  1.00  0.00     0.084 C 
HETATM   14  C   UNL     1     -42.407 -53.446  13.999  1.00  0.00     0.025 C 
HETATM   15  C   UNL     1     -43.295 -54.672  14.215  1.00  0.00     0.002 C 
HETATM   16  C   UNL     1     -44.604 -54.378  13.495  1.00  0.00     0.002 C 
HETATM   17  C   UNL     1     -44.211 -53.412  12.389  1.00  0.00     0.025 C 
ENDBRANCH  11  13
ENDBRANCH   8   9
ENDBRANCH   6   8
BRANCH   1  18
HETATM   18  C   UNL     1     -43.460 -46.546   9.388  1.00  0.00     0.252 C 
HETATM   19  N   UNL     1     -44.630 -47.140   9.801  1.00  0.00    -0.361 N 
HETATM   20  C   UNL     1     -45.886 -46.843   9.160  1.00  0.00     0.149 C 
HETATM   21  H   UNL     1     -44.657 -47.660  10.667  1.00  0.00     0.162 HD
HETATM   22  O   UNL     1     -43.400 -45.736   8.471  1.00  0.00    -0.268 OA
ENDBRANCH   1  18
TORSDOF 4
ENDMDL
MODEL 4
REMARK VINA RESULT:      -6.0      4.537      6.684
REMARK  4 active torsions:
REMARK  status: ('A' for Active; 'I' for Inactive)
REMARK       I    between atoms: N_2  and  C_3 
REMARK    1  A    between atoms: C_3  and  C_5 
REMARK    2  A    between atoms: N_10  and  C_11 
REMARK    3  A    between atoms: C_11  and  C_12 
REMARK       I    between atoms: C_12  and  N_14 
REMARK    4  A    between atoms: N_14  and  C_15 
ROOT
HETATM    1  C   UNL     1     -46.825 -52.106  15.574  1.00  0.00     0.047 A 
HETATM    2  C   UNL     1     -46.867 -51.240  14.413  1.00  0.00     0.024 A 
HETATM    3  C   UNL     1     -46.309 -51.614  13.254  1.00  0.00     0.075 A 
HETATM    4  C   UNL     1     -45.630 -52.930  13.134  1.00  0.00     0.247 A 
HETATM    5  O   UNL     1     -45.161 -53.265  12.052  1.00  0.00    -0.268 OA
HETATM    6  N   UNL     1     -45.596 -53.702  14.295  1.00  0.00    -0.315 N 
HETATM    7  C   UNL     1     -46.168 -53.278  15.490  1.00  0.00     0.111 A 
ENDROOT
BRANCH   6   8
HETATM    8  C   UNL     1     -44.958 -55.021  14.223  1.00  0.00     0.234 C 
BRANCH   8   9
HETATM    9  C   UNL     1     -43.515 -55.060  14.753  1.00  0.00     0.236 C 
HETATM   10  O   UNL     1     -43.134 -55.960  15.500  1.00  0.00    -0.272 OA
HETATM   11  N   UNL     1     -42.687 -54.040  14.336  1.00  0.00    -0.355 N 
HETATM   12  H   UNL     1     -43.024 -53.437  13.597  1.00  0.00     0.162 HD
BRANCH  11  13
HETATM   13  C   UNL     1     -41.301 -53.947  14.741  1.00  0.00     0.084 C 
HETATM   14  C   UNL     1     -40.899 -52.519  15.120  1.00  0.00     0.025 C 
HETATM   15  C   UNL     1     -39.462 -52.335  14.629  1.00  0.00     0.002 C 
HETATM   16  C   UNL     1     -39.030 -53.683  14.069  1.00  0.00     0.002 C 
HETATM   17  C   UNL     1     -40.331 -54.336  13.628  1.00  0.00     0.025 C 
ENDBRANCH  11  13
ENDBRANCH   8   9
ENDBRANCH   6   8
BRANCH   1  18
HETATM   18  C   UNL     1     -47.455 -51.751  16.889  1.00  0.00     0.252 C 
HETATM   19  N   UNL     1     -46.941 -52.433  17.968  1.00  0.00    -0.361 N 
HETATM   20  C   UNL     1     -47.403 -52.168  19.307  1.00  0.00     0.149 C 
HETATM   21  H   UNL     1     -46.114 -53.003  17.861  1.00  0.00     0.162 HD
HETATM   22  O   UNL     1     -48.317 -50.887  16.982  1.00  0.00    -0.268 OA
ENDBRANCH   1  18
TORSDOF 4
ENDMDL
MODEL 5
REMARK VINA RESULT:      -5.6      1.685      2.011
REMARK  4 active torsions:
REMARK  status: ('A' for Active; 'I' for Inactive)
REMARK       I    between atoms: N_2  and  C_3 
REMARK    1  A    between atoms: C_3  and  C_5 
REMARK    2  A    between atoms: N_10  and  C_11 
REMARK    3  A    between atoms: C_11  and  C_12 
REMARK       I    between atoms: C_12  and  N_14 
REMARK    4  A    between atoms: N_14  and  C_15 
ROOT
HETATM    1  C   UNL     1     -43.167 -54.045  14.691  1.00  0.00     0.047 A 
HETATM    2  C   UNL     1     -42.158 -54.685  15.512  1.00  0.00     0.024 A 
HETATM    3  C   UNL     1     -40.871 -54.695  15.139  1.00  0.00     0.075 A 
HETATM    4  C   UNL     1     -40.449 -54.049  13.869  1.00  0.00     0.247 A 
HETATM    5  O   UNL     1     -39.260 -54.039  13.570  1.00  0.00    -0.268 OA
HETATM    6  N   UNL     1     -41.472 -53.480  13.110  1.00  0.00    -0.315 N 
HETATM    7  C   UNL     1     -42.802 -53.502  13.515  1.00  0.00     0.111 A 
ENDROOT
BRANCH   6   8
HETATM    8  C   UNL     1     -41.104 -52.809  11.859  1.00  0.00     0.234 C 
BRANCH   8   9
HETATM    9  C   UNL     1     -40.807 -51.307  12.005  1.00  0.00     0.236 C 
HETATM   10  O   UNL     1     -39.688 -50.905  12.323  1.00  0.00    -0.272 OA
HETATM   11  N   UNL     1     -41.859 -50.452  11.756  1.00  0.00    -0.355 N 
HETATM   12  H   UNL     1     -42.694 -50.848  11.343  1.00  0.00     0.162 HD
BRANCH  11  13
HETATM   13  C   UNL     1     -41.733 -49.014  11.842  1.00  0.00     0.084 C 
HETATM   14  C   UNL     1     -42.945 -48.361  12.511  1.00  0.00     0.025 C 
HETATM   15  C   UNL     1     -43.177 -47.038  11.779  1.00  0.00     0.002 C 
HETATM   16  C   UNL     1     -42.042 -46.907  10.773  1.00  0.00     0.002 C 
HETATM   17  C   UNL     1     -41.643 -48.344  10.474  1.00  0.00     0.025 C 
ENDBRANCH  11  13
ENDBRANCH   8   9
ENDBRANCH   6   8
BRANCH   1  18
HETATM   18  C   UNL     1     -44.617 -53.980  15.071  1.00  0.00     0.252 C 
HETATM   19  N   UNL     1     -45.355 -53.074  14.345  1.00  0.00    -0.361 N 
HETATM   20  C   UNL     1     -46.773 -52.930  14.553  1.00  0.00     0.149 C 
HETATM   21  H   UNL     1     -44.950 -52.620  13.539  1.00  0.00     0.162 HD
HETATM   22  O   UNL     1     -45.097 -54.718  15.922  1.00  0.00    -0.268 OA
ENDBRANCH   1  18
TORSDOF 4
ENDMDL
MODEL 6
REMARK VINA RESULT:      -5.4      2.353      5.863
REMARK  4 active torsions:
REMARK  status: ('A' for Active; 'I' for Inactive)
REMARK       I    between atoms: N_2  and  C_3 
REMARK    1  A    between atoms: C_3  and  C_5 
REMARK    2  A    between atoms: N_10  and  C_11 
REMARK    3  A    between atoms: C_11  and  C_12 
REMARK       I    between atoms: C_12  and  N_14 
REMARK    4  A    between atoms: N_14  and  C_15 
ROOT
HETATM    1  C   UNL     1     -39.633 -48.310  12.815  1.00  0.00     0.047 A 
HETATM    2  C   UNL     1     -38.355 -48.655  13.406  1.00  0.00     0.024 A 
HETATM    3  C   UNL     1     -37.958 -49.931  13.492  1.00  0.00     0.075 A 
HETATM    4  C   UNL     1     -38.823 -51.027  12.983  1.00  0.00     0.247 A 
HETATM    5  O   UNL     1     -38.420 -52.183  13.040  1.00  0.00    -0.268 OA
HETATM    6  N   UNL     1     -40.053 -50.631  12.458  1.00  0.00    -0.315 N 
HETATM    7  C   UNL     1     -40.446 -49.298  12.399  1.00  0.00     0.111 A 
ENDROOT
BRANCH   6   8
HETATM    8  C   UNL     1     -40.936 -51.673  11.921  1.00  0.00     0.234 C 
BRANCH   8   9
HETATM    9  C   UNL     1     -42.024 -52.152  12.896  1.00  0.00     0.236 C 
HETATM   10  O   UNL     1     -41.760 -52.927  13.815  1.00  0.00    -0.272 OA
HETATM   11  N   UNL     1     -43.292 -51.658  12.682  1.00  0.00    -0.355 N 
HETATM   12  H   UNL     1     -43.393 -50.904  12.015  1.00  0.00     0.162 HD
BRANCH  11  13
HETATM   13  C   UNL     1     -44.417 -52.007  13.521  1.00  0.00     0.084 C 
HETATM   14  C   UNL     1     -45.724 -52.112  12.732  1.00  0.00     0.025 C 
HETATM   15  C   UNL     1     -46.822 -51.563  13.645  1.00  0.00     0.002 C 
HETATM   16  C   UNL     1     -46.147 -51.246  14.973  1.00  0.00     0.002 C 
HETATM   17  C   UNL     1     -44.702 -50.961  14.596  1.00  0.00     0.025 C 
ENDBRANCH  11  13
ENDBRANCH   8   9
ENDBRANCH   6   8
BRANCH   1  18
HETATM   18  C   UNL     1     -40.118 -46.898  12.669  1.00  0.00     0.252 C 
HETATM   19  N   UNL     1     -41.486 -46.770  12.610  1.00  0.00    -0.361 N 
HETATM   20  C   UNL     1     -42.112 -45.475  12.522  1.00  0.00     0.149 C 
HETATM   21  H   UNL     1     -42.079 -47.565  12.802  1.00  0.00     0.162 HD
HETATM   22  O   UNL     1     -39.348 -45.946  12.656  1.00  0.00    -0.268 OA
ENDBRANCH   1  18
TORSDOF 4
ENDMDL
MODEL 7
REMARK VINA RESULT:      -5.4      2.807      3.374
REMARK  4 active torsions:
REMARK  status: ('A' for Active; 'I' for Inactive)
REMARK       I    between atoms: N_2  and  C_3 
REMARK    1  A    between atoms: C_3  and  C_5 
REMARK    2  A    between atoms: N_10  and  C_11 
REMARK    3  A    between atoms: C_11  and  C_12 
REMARK       I    between atoms: C_12  and  N_14 
REMARK    4  A    between atoms: N_14  and  C_15 
ROOT
HETATM    1  C   UNL     1     -44.260 -53.383  13.325  1.00  0.00     0.047 A 
HETATM    2  C   UNL     1     -43.884 -54.344  14.343  1.00  0.00     0.024 A 
HETATM    3  C   UNL     1     -42.600 -54.677  14.534  1.00  0.00     0.075 A 
HETATM    4  C   UNL     1     -41.530 -54.069  13.701  1.00  0.00     0.247 A 
HETATM    5  O   UNL     1     -40.361 -54.363  13.921  1.00  0.00    -0.268 OA
HETATM    6  N   UNL     1     -41.962 -53.178  12.718  1.00  0.00    -0.315 N 
HETATM    7  C   UNL     1     -43.304 -52.865  12.531  1.00  0.00     0.111 A 
ENDROOT
BRANCH   6   8
HETATM    8  C   UNL     1     -40.942 -52.532  11.884  1.00  0.00     0.234 C 
BRANCH   8   9
HETATM    9  C   UNL     1     -40.732 -51.037  12.179  1.00  0.00     0.236 C 
HETATM   10  O   UNL     1     -41.528 -50.190  11.775  1.00  0.00    -0.272 OA
HETATM   11  N   UNL     1     -39.616 -50.715  12.920  1.00  0.00    -0.355 N 
HETATM   12  H   UNL     1     -39.107 -51.475  13.352  1.00  0.00     0.162 HD
BRANCH  11  13
HETATM   13  C   UNL     1     -39.290 -49.354  13.286  1.00  0.00     0.084 C 
HETATM   14  C   UNL     1     -37.798 -49.049  13.130  1.00  0.00     0.025 C 
HETATM   15  C   UNL     1     -37.428 -48.119  14.287  1.00  0.00     0.002 C 
HETATM   16  C   UNL     1     -38.727 -47.826  15.026  1.00  0.00     0.002 C 
HETATM   17  C   UNL     1     -39.594 -49.045  14.750  1.00  0.00     0.025 C 
ENDBRANCH  11  13
ENDBRANCH   8   9
ENDBRANCH   6   8
BRANCH   1  18
HETATM   18  C   UNL     1     -45.677 -52.952  13.084  1.00  0.00     0.252 C 
HETATM   19  N   UNL     1     -45.865 -52.243  11.920  1.00  0.00    -0.361 N 
HETATM   20  C   UNL     1     -47.177 -51.803  11.519  1.00  0.00     0.149 C 
HETATM   21  H   UNL     1     -45.118 -52.170  11.244  1.00  0.00     0.162 HD
HETATM   22  O   UNL     1     -46.586 -53.259  13.844  1.00  0.00    -0.268 OA
ENDBRANCH   1  18
TORSDOF 4
ENDMDL
MODEL 8
REMARK VINA RESULT:      -5.2      2.213      4.098
REMARK  4 active torsions:
REMARK  status: ('A' for Active; 'I' for Inactive)
REMARK       I    between atoms: N_2  and  C_3 
REMARK    1  A    between atoms: C_3  and  C_5 
REMARK    2  A    between atoms: N_10  and  C_11 
REMARK    3  A    between atoms: C_11  and  C_12 
REMARK       I    between atoms: C_12  and  N_14 
REMARK    4  A    between atoms: N_14  and  C_15 
ROOT
HETATM    1  C   UNL     1     -41.705 -54.634  15.085  1.00  0.00     0.047 A 
HETATM    2  C   UNL     1     -43.023 -55.222  15.223  1.00  0.00     0.024 A 
HETATM    3  C   UNL     1     -44.000 -54.934  14.353  1.00  0.00     0.075 A 
HETATM    4  C   UNL     1     -43.754 -54.000  13.224  1.00  0.00     0.247 A 
HETATM    5  O   UNL     1     -44.653 -53.783  12.420  1.00  0.00    -0.268 OA
HETATM    6  N   UNL     1     -42.476 -53.444  13.167  1.00  0.00    -0.315 N 
HETATM    7  C   UNL     1     -41.487 -53.748  14.096  1.00  0.00     0.111 A 
ENDROOT
BRANCH   6   8
HETATM    8  C   UNL     1     -42.175 -52.533  12.056  1.00  0.00     0.234 C 
BRANCH   8   9
HETATM    9  C   UNL     1     -42.140 -51.045  12.445  1.00  0.00     0.236 C 
HETATM   10  O   UNL     1     -42.673 -50.644  13.478  1.00  0.00    -0.272 OA
HETATM   11  N   UNL     1     -41.477 -50.206  11.576  1.00  0.00    -0.355 N 
HETATM   12  H   UNL     1     -40.928 -50.634  10.841  1.00  0.00     0.162 HD
BRANCH  11  13
HETATM   13  C   UNL     1     -41.350 -48.785  11.810  1.00  0.00     0.084 C 
HETATM   14  C   UNL     1     -42.122 -47.953  10.782  1.00  0.00     0.025 C 
HETATM   15  C   UNL     1     -41.271 -46.711  10.510  1.00  0.00     0.002 C 
HETATM   16  C   UNL     1     -40.079 -46.800  11.454  1.00  0.00     0.002 C 
HETATM   17  C   UNL     1     -39.910 -48.291  11.698  1.00  0.00     0.025 C 
ENDBRANCH  11  13
ENDBRANCH   8   9
ENDBRANCH   6   8
BRANCH   1  18
HETATM   18  C   UNL     1     -40.566 -54.939  16.013  1.00  0.00     0.252 C 
HETATM   19  N   UNL     1     -40.585 -56.211  16.538  1.00  0.00    -0.361 N 
HETATM   20  C   UNL     1     -39.533 -56.675  17.406  1.00  0.00     0.149 C 
HETATM   21  H   UNL     1     -41.242 -56.894  16.189  1.00  0.00     0.162 HD
HETATM   22  O   UNL     1     -39.675 -54.129  16.233  1.00  0.00    -0.268 OA
ENDBRANCH   1  18
TORSDOF 4
ENDMDL
MODEL 9
REMARK VINA RESULT:      -5.2      2.046      2.518
REMARK  4 active torsions:
REMARK  status: ('A' for Active; 'I' for Inactive)
REMARK       I    between atoms: N_2  and  C_3 
REMARK    1  A    between atoms: C_3  and  C_5 
REMARK    2  A    between atoms: N_10  and  C_11 
REMARK    3  A    between atoms: C_11  and  C_12 
REMARK       I    between atoms: C_12  and  N_14 
REMARK    4  A    between atoms: N_14  and  C_15 
ROOT
HETATM    1  C   UNL     1     -42.851 -53.233  12.882  1.00  0.00     0.047 A 
HETATM    2  C   UNL     1     -42.126 -54.093  13.796  1.00  0.00     0.024 A 
HETATM    3  C   UNL     1     -40.826 -53.892  14.045  1.00  0.00     0.075 A 
HETATM    4  C   UNL     1     -40.094 -52.780  13.385  1.00  0.00     0.247 A 
HETATM    5  O   UNL     1     -38.914 -52.595  13.659  1.00  0.00    -0.268 OA
HETATM    6  N   UNL     1     -40.840 -52.011  12.492  1.00  0.00    -0.315 N 
HETATM    7  C   UNL     1     -42.186 -52.256  12.239  1.00  0.00     0.111 A 
ENDROOT
BRANCH   6   8
HETATM    8  C   UNL     1     -40.170 -50.885  11.831  1.00  0.00     0.234 C 
BRANCH   8   9
HETATM    9  C   UNL     1     -40.892 -49.536  11.985  1.00  0.00     0.236 C 
HETATM   10  O   UNL     1     -41.524 -49.041  11.052  1.00  0.00    -0.272 OA
HETATM   11  N   UNL     1     -40.791 -48.929  13.218  1.00  0.00    -0.355 N 
HETATM   12  H   UNL     1     -40.397 -49.473  13.975  1.00  0.00     0.162 HD
BRANCH  11  13
HETATM   13  C   UNL     1     -41.424 -47.664  13.518  1.00  0.00     0.084 C 
HETATM   14  C   UNL     1     -40.586 -46.803  14.467  1.00  0.00     0.025 C 
HETATM   15  C   UNL     1     -41.579 -46.087  15.385  1.00  0.00     0.002 C 
HETATM   16  C   UNL     1     -42.966 -46.468  14.886  1.00  0.00     0.002 C 
HETATM   17  C   UNL     1     -42.765 -47.825  14.230  1.00  0.00     0.025 C 
ENDBRANCH  11  13
ENDBRANCH   8   9
ENDBRANCH   6   8
BRANCH   1  18
HETATM   18  C   UNL     1     -44.313 -53.395  12.584  1.00  0.00     0.252 C 
HETATM   19  N   UNL     1     -45.020 -52.215  12.550  1.00  0.00    -0.361 N 
HETATM   20  C   UNL     1     -46.424 -52.196  12.227  1.00  0.00     0.149 C 
HETATM   21  H   UNL     1     -44.533 -51.331  12.581  1.00  0.00     0.162 HD
HETATM   22  O   UNL     1     -44.808 -54.488  12.344  1.00  0.00    -0.268 OA
ENDBRANCH   1  18
TORSDOF 4
ENDMDL
