MODEL 1
REMARK VINA RESULT:      -6.3      0.000      0.000
REMARK  8 active torsions:
REMARK  status: ('A' for Active; 'I' for Inactive)
REMARK    1  A    between atoms: C_2  and  N_4 
REMARK    2  A    between atoms: N_3  and  C_11 
REMARK    3  A    between atoms: C_16  and  C_24 
REMARK    4  A    between atoms: C_17  and  C_25 
REMARK    5  A    between atoms: C_17  and  C_26 
REMARK    6  A    between atoms: C_24  and  O_27 
REMARK    7  A    between atoms: C_25  and  O_28 
REMARK    8  A    between atoms: C_26  and  O_29 
ROOT
HETATM    1  C   UNL     1     -42.172 -50.307  13.279  1.00  0.00     0.117 A 
HETATM    2  C   UNL     1     -42.187 -51.729  13.320  1.00  0.00     0.115 A 
HETATM    3  N   UNL     1     -41.531 -48.369  12.478  1.00  0.00    -0.322 N 
HETATM    4  C   UNL     1     -41.360 -49.719  12.319  1.00  0.00     0.140 A 
HETATM    5  N   UNL     1     -42.850 -49.322  13.987  1.00  0.00    -0.346 N 
ATOM      6  HN  UNL     1     -43.534 -49.457  14.731  1.00  0.00     0.167 HD
HETATM    7  C   UNL     1     -42.422 -48.174  13.494  1.00  0.00     0.185 A 
HETATM    8  N   UNL     1     -41.363 -52.371  12.436  1.00  0.00    -0.341 N 
ATOM      9  HN  UNL     1     -41.301 -53.389  12.446  1.00  0.00     0.167 HD
HETATM   10  N   UNL     1     -40.574 -50.333  11.418  1.00  0.00    -0.336 N 
ATOM     11  HN  UNL     1     -40.007 -49.849  10.722  1.00  0.00     0.168 HD
HETATM   12  C   UNL     1     -40.634 -51.663  11.554  1.00  0.00     0.183 A 
ENDROOT
BRANCH   2  13
HETATM   13  N   UNL     1     -43.014 -52.516  14.132  1.00  0.00    -0.258 NA
HETATM   14  C   UNL     1     -43.294 -53.877  13.623  1.00  0.00     0.065 C 
HETATM   15  C   UNL     1     -44.275 -53.622  12.450  1.00  0.00     0.028 C 
HETATM   16  C   UNL     1     -44.115 -54.450  14.793  1.00  0.00     0.022 C 
HETATM   17  C   UNL     1     -44.985 -52.315  12.889  1.00  0.00     0.029 C 
HETATM   18  C   UNL     1     -44.420 -52.100  14.317  1.00  0.00     0.071 C 
HETATM   19  C   UNL     1     -44.902 -53.219  15.275  1.00  0.00     0.022 C 
BRANCH  17  20
HETATM   20  C   UNL     1     -46.493 -52.347  12.735  1.00  0.00     0.170 C 
BRANCH  20  21
HETATM   21  O   UNL     1     -46.828 -52.454  11.354  1.00  0.00    -0.400 OA
HETATM   22  H   UNL     1     -47.560 -51.838  11.174  1.00  0.00     0.209 HD
ENDBRANCH  20  21
ENDBRANCH  17  20
ENDBRANCH   2  13
BRANCH   3  23
HETATM   23  C   UNL     1     -40.826 -47.397  11.686  1.00  0.00     0.094 C 
HETATM   24  C   UNL     1     -40.650 -46.025  12.407  1.00  0.00     0.039 C 
HETATM   25  C   UNL     1     -40.759 -45.353  10.996  1.00  0.00     0.006 C 
HETATM   26  C   UNL     1     -41.649 -46.597  10.635  1.00  0.00     0.039 C 
BRANCH  25  27
HETATM   27  C   UNL     1     -41.472 -44.000  11.031  1.00  0.00     0.175 C 
BRANCH  27  28
HETATM   28  O   UNL     1     -40.577 -42.962  10.650  1.00  0.00    -0.400 OA
HETATM   29  H   UNL     1     -40.262 -43.175   9.747  1.00  0.00     0.209 HD
ENDBRANCH  27  28
ENDBRANCH  25  27
BRANCH  25  30
HETATM   30  C   UNL     1     -39.407 -45.247  10.271  1.00  0.00     0.175 C 
BRANCH  30  31
HETATM   31  O   UNL     1     -39.616 -44.811   8.932  1.00  0.00    -0.400 OA
HETATM   32  H   UNL     1     -40.450 -44.302   8.915  1.00  0.00     0.209 HD
ENDBRANCH  30  31
ENDBRANCH  25  30
ENDBRANCH   3  23
TORSDOF 8
ENDMDL
MODEL 2
REMARK VINA RESULT:      -6.1      2.016      3.081
REMARK  8 active torsions:
REMARK  status: ('A' for Active; 'I' for Inactive)
REMARK    1  A    between atoms: C_2  and  N_4 
REMARK    2  A    between atoms: N_3  and  C_11 
REMARK    3  A    between atoms: C_16  and  C_24 
REMARK    4  A    between atoms: C_17  and  C_25 
REMARK    5  A    between atoms: C_17  and  C_26 
REMARK    6  A    between atoms: C_24  and  O_27 
REMARK    7  A    between atoms: C_25  and  O_28 
REMARK    8  A    between atoms: C_26  and  O_29 
ROOT
HETATM    1  C   UNL     1     -43.024 -49.759  13.168  1.00  0.00     0.117 A 
HETATM    2  C   UNL     1     -43.663 -50.696  14.027  1.00  0.00     0.115 A 
HETATM    3  N   UNL     1     -41.995 -47.872  12.735  1.00  0.00    -0.322 N 
HETATM    4  C   UNL     1     -42.573 -48.584  13.752  1.00  0.00     0.140 A 
HETATM    5  N   UNL     1     -42.691 -49.769  11.819  1.00  0.00    -0.346 N 
ATOM      6  HN  UNL     1     -42.869 -50.514  11.145  1.00  0.00     0.167 HD
HETATM    7  C   UNL     1     -42.097 -48.612  11.592  1.00  0.00     0.185 A 
HETATM    8  N   UNL     1     -43.808 -50.321  15.334  1.00  0.00    -0.341 N 
ATOM      9  HN  UNL     1     -44.295 -50.935  15.988  1.00  0.00     0.167 HD
HETATM   10  N   UNL     1     -42.671 -48.215  15.042  1.00  0.00    -0.336 N 
ATOM     11  HN  UNL     1     -42.307 -47.342  15.422  1.00  0.00     0.168 HD
HETATM   12  C   UNL     1     -43.310 -49.146  15.760  1.00  0.00     0.183 A 
ENDROOT
BRANCH   2  13
HETATM   13  N   UNL     1     -44.090 -51.980  13.664  1.00  0.00    -0.258 NA
HETATM   14  C   UNL     1     -44.020 -52.999  14.736  1.00  0.00     0.065 C 
HETATM   15  C   UNL     1     -42.500 -53.274  14.865  1.00  0.00     0.028 C 
HETATM   16  C   UNL     1     -44.648 -54.207  14.015  1.00  0.00     0.022 C 
HETATM   17  C   UNL     1     -41.986 -52.975  13.433  1.00  0.00     0.029 C 
HETATM   18  C   UNL     1     -43.305 -52.724  12.657  1.00  0.00     0.071 C 
HETATM   19  C   UNL     1     -44.149 -54.022  12.571  1.00  0.00     0.022 C 
BRANCH  17  20
HETATM   20  C   UNL     1     -41.043 -54.026  12.881  1.00  0.00     0.170 C 
BRANCH  20  21
HETATM   21  O   UNL     1     -40.532 -53.592  11.623  1.00  0.00    -0.400 OA
HETATM   22  H   UNL     1     -40.874 -52.696  11.454  1.00  0.00     0.209 HD
ENDBRANCH  20  21
ENDBRANCH  17  20
ENDBRANCH   2  13
BRANCH   3  23
HETATM   23  C   UNL     1     -41.431 -46.563  12.924  1.00  0.00     0.094 C 
HETATM   24  C   UNL     1     -41.910 -45.525  11.863  1.00  0.00     0.039 C 
HETATM   25  C   UNL     1     -40.499 -44.857  11.985  1.00  0.00     0.006 C 
HETATM   26  C   UNL     1     -40.007 -46.306  12.349  1.00  0.00     0.039 C 
BRANCH  25  27
HETATM   27  C   UNL     1     -39.990 -44.286  10.660  1.00  0.00     0.175 C 
BRANCH  27  28
HETATM   28  O   UNL     1     -40.403 -42.932  10.517  1.00  0.00    -0.400 OA
HETATM   29  H   UNL     1     -41.375 -42.942  10.394  1.00  0.00     0.209 HD
ENDBRANCH  27  28
ENDBRANCH  25  27
BRANCH  25  30
HETATM   30  C   UNL     1     -40.421 -43.809  13.106  1.00  0.00     0.175 C 
BRANCH  30  31
HETATM   31  O   UNL     1     -39.123 -43.224  13.124  1.00  0.00    -0.400 OA
HETATM   32  H   UNL     1     -38.735 -43.340  12.234  1.00  0.00     0.209 HD
ENDBRANCH  30  31
ENDBRANCH  25  30
ENDBRANCH   3  23
TORSDOF 8
ENDMDL
MODEL 3
REMARK VINA RESULT:      -6.0      2.200      7.873
REMARK  8 active torsions:
REMARK  status: ('A' for Active; 'I' for Inactive)
REMARK    1  A    between atoms: C_2  and  N_4 
REMARK    2  A    between atoms: N_3  and  C_11 
REMARK    3  A    between atoms: C_16  and  C_24 
REMARK    4  A    between atoms: C_17  and  C_25 
REMARK    5  A    between atoms: C_17  and  C_26 
REMARK    6  A    between atoms: C_24  and  O_27 
REMARK    7  A    between atoms: C_25  and  O_28 
REMARK    8  A    between atoms: C_26  and  O_29 
ROOT
HETATM    1  C   UNL     1     -41.969 -49.279  11.931  1.00  0.00     0.117 A 
HETATM    2  C   UNL     1     -40.929 -48.518  11.329  1.00  0.00     0.115 A 
HETATM    3  N   UNL     1     -42.771 -51.030  12.979  1.00  0.00    -0.322 N 
HETATM    4  C   UNL     1     -41.615 -50.514  12.456  1.00  0.00     0.140 A 
HETATM    5  N   UNL     1     -43.318 -49.040  12.164  1.00  0.00    -0.346 N 
ATOM      6  HN  UNL     1     -43.849 -48.205  11.916  1.00  0.00     0.167 HD
HETATM    7  C   UNL     1     -43.769 -50.121  12.773  1.00  0.00     0.185 A 
HETATM    8  N   UNL     1     -39.692 -49.102  11.290  1.00  0.00    -0.341 N 
ATOM      9  HN  UNL     1     -38.916 -48.621  10.835  1.00  0.00     0.167 HD
HETATM   10  N   UNL     1     -40.399 -51.087  12.462  1.00  0.00    -0.336 N 
ATOM     11  HN  UNL     1     -40.191 -51.995  12.878  1.00  0.00     0.168 HD
HETATM   12  C   UNL     1     -39.497 -50.310  11.850  1.00  0.00     0.183 A 
ENDROOT
BRANCH   2  13
HETATM   13  N   UNL     1     -41.048 -47.210  10.840  1.00  0.00    -0.258 NA
HETATM   14  C   UNL     1     -39.879 -46.334  11.076  1.00  0.00     0.065 C 
HETATM   15  C   UNL     1     -39.960 -46.036  12.595  1.00  0.00     0.028 C 
HETATM   16  C   UNL     1     -40.327 -45.062  10.332  1.00  0.00     0.022 C 
HETATM   17  C   UNL     1     -41.482 -46.136  12.872  1.00  0.00     0.029 C 
HETATM   18  C   UNL     1     -42.063 -46.323  11.447  1.00  0.00     0.071 C 
HETATM   19  C   UNL     1     -41.843 -45.048  10.591  1.00  0.00     0.022 C 
BRANCH  17  20
HETATM   20  C   UNL     1     -42.037 -44.998  13.706  1.00  0.00     0.170 C 
BRANCH  20  21
HETATM   21  O   UNL     1     -43.458 -45.098  13.760  1.00  0.00    -0.400 OA
HETATM   22  H   UNL     1     -43.691 -46.042  13.804  1.00  0.00     0.209 HD
ENDBRANCH  20  21
ENDBRANCH  17  20
ENDBRANCH   2  13
BRANCH   3  23
HETATM   23  C   UNL     1     -42.835 -52.329  13.592  1.00  0.00     0.094 C 
HETATM   24  C   UNL     1     -43.735 -53.336  12.812  1.00  0.00     0.039 C 
HETATM   25  C   UNL     1     -44.104 -53.967  14.197  1.00  0.00     0.006 C 
HETATM   26  C   UNL     1     -43.848 -52.522  14.758  1.00  0.00     0.039 C 
BRANCH  25  27
HETATM   27  C   UNL     1     -45.548 -54.470  14.261  1.00  0.00     0.175 C 
BRANCH  27  28
HETATM   28  O   UNL     1     -45.605 -55.847  13.908  1.00  0.00    -0.400 OA
HETATM   29  H   UNL     1     -45.359 -55.908  12.961  1.00  0.00     0.209 HD
ENDBRANCH  27  28
ENDBRANCH  25  27
BRANCH  25  30
HETATM   30  C   UNL     1     -43.118 -55.058  14.645  1.00  0.00     0.175 C 
BRANCH  30  31
HETATM   31  O   UNL     1     -43.530 -55.587  15.901  1.00  0.00    -0.400 OA
HETATM   32  H   UNL     1     -42.739 -55.964  16.336  1.00  0.00     0.209 HD
ENDBRANCH  30  31
ENDBRANCH  25  30
ENDBRANCH   3  23
TORSDOF 8
ENDMDL
MODEL 4
REMARK VINA RESULT:      -6.0      2.858      3.650
REMARK  8 active torsions:
REMARK  status: ('A' for Active; 'I' for Inactive)
REMARK    1  A    between atoms: C_2  and  N_4 
REMARK    2  A    between atoms: N_3  and  C_11 
REMARK    3  A    between atoms: C_16  and  C_24 
REMARK    4  A    between atoms: C_17  and  C_25 
REMARK    5  A    between atoms: C_17  and  C_26 
REMARK    6  A    between atoms: C_24  and  O_27 
REMARK    7  A    between atoms: C_25  and  O_28 
REMARK    8  A    between atoms: C_26  and  O_29 
ROOT
HETATM    1  C   UNL     1     -40.330 -49.973  12.134  1.00  0.00     0.117 A 
HETATM    2  C   UNL     1     -39.556 -50.949  12.821  1.00  0.00     0.115 A 
HETATM    3  N   UNL     1     -40.720 -47.956  11.368  1.00  0.00    -0.322 N 
HETATM    4  C   UNL     1     -39.808 -48.688  12.081  1.00  0.00     0.140 A 
HETATM    5  N   UNL     1     -41.527 -50.022  11.431  1.00  0.00    -0.346 N 
ATOM      6  HN  UNL     1     -42.119 -50.838  11.275  1.00  0.00     0.167 HD
HETATM    7  C   UNL     1     -41.740 -48.790  11.007  1.00  0.00     0.185 A 
HETATM    8  N   UNL     1     -38.396 -50.509  13.399  1.00  0.00    -0.341 N 
ATOM      9  HN  UNL     1     -37.820 -51.155  13.939  1.00  0.00     0.167 HD
HETATM   10  N   UNL     1     -38.653 -48.246  12.609  1.00  0.00    -0.336 N 
ATOM     11  HN  UNL     1     -38.310 -47.289  12.527  1.00  0.00     0.168 HD
HETATM   12  C   UNL     1     -38.014 -49.227  13.257  1.00  0.00     0.183 A 
ENDROOT
BRANCH   2  13
HETATM   13  N   UNL     1     -39.844 -52.318  12.896  1.00  0.00    -0.258 NA
HETATM   14  C   UNL     1     -41.269 -52.656  13.109  1.00  0.00     0.065 C 
HETATM   15  C   UNL     1     -41.507 -52.274  14.593  1.00  0.00     0.028 C 
HETATM   16  C   UNL     1     -41.206 -54.193  13.034  1.00  0.00     0.022 C 
HETATM   17  C   UNL     1     -40.102 -52.473  15.216  1.00  0.00     0.029 C 
HETATM   18  C   UNL     1     -39.305 -53.088  14.037  1.00  0.00     0.071 C 
HETATM   19  C   UNL     1     -39.845 -54.498  13.682  1.00  0.00     0.022 C 
BRANCH  17  20
HETATM   20  C   UNL     1     -40.108 -53.237  16.526  1.00  0.00     0.170 C 
BRANCH  20  21
HETATM   21  O   UNL     1     -41.418 -53.738  16.779  1.00  0.00    -0.400 OA
HETATM   22  H   UNL     1     -42.036 -52.986  16.754  1.00  0.00     0.209 HD
ENDBRANCH  20  21
ENDBRANCH  17  20
ENDBRANCH   2  13
BRANCH   3  23
HETATM   23  C   UNL     1     -40.564 -46.548  11.118  1.00  0.00     0.094 C 
HETATM   24  C   UNL     1     -41.146 -45.652  12.253  1.00  0.00     0.039 C 
HETATM   25  C   UNL     1     -41.504 -44.606  11.145  1.00  0.00     0.006 C 
HETATM   26  C   UNL     1     -41.620 -45.861  10.205  1.00  0.00     0.039 C 
BRANCH  25  27
HETATM   27  C   UNL     1     -42.806 -43.853  11.429  1.00  0.00     0.175 C 
BRANCH  27  28
HETATM   28  O   UNL     1     -43.426 -43.464  10.208  1.00  0.00    -0.400 OA
HETATM   29  H   UNL     1     -44.282 -43.939  10.160  1.00  0.00     0.209 HD
ENDBRANCH  27  28
ENDBRANCH  25  27
BRANCH  25  30
HETATM   30  C   UNL     1     -40.356 -43.630  10.841  1.00  0.00     0.175 C 
BRANCH  30  31
HETATM   31  O   UNL     1     -40.884 -42.328  10.610  1.00  0.00    -0.400 OA
HETATM   32  H   UNL     1     -41.858 -42.393  10.656  1.00  0.00     0.209 HD
ENDBRANCH  30  31
ENDBRANCH  25  30
ENDBRANCH   3  23
TORSDOF 8
ENDMDL
MODEL 5
REMARK VINA RESULT:      -6.0      2.385      3.227
REMARK  8 active torsions:
REMARK  status: ('A' for Active; 'I' for Inactive)
REMARK    1  A    between atoms: C_2  and  N_4 
REMARK    2  A    between atoms: N_3  and  C_11 
REMARK    3  A    between atoms: C_16  and  C_24 
REMARK    4  A    between atoms: C_17  and  C_25 
REMARK    5  A    between atoms: C_17  and  C_26 
REMARK    6  A    between atoms: C_24  and  O_27 
REMARK    7  A    between atoms: C_25  and  O_28 
REMARK    8  A    between atoms: C_26  and  O_29 
ROOT
HETATM    1  C   UNL     1     -42.006 -49.459  12.642  1.00  0.00     0.117 A 
HETATM    2  C   UNL     1     -41.626 -50.798  12.346  1.00  0.00     0.115 A 
HETATM    3  N   UNL     1     -41.920 -47.285  12.373  1.00  0.00    -0.322 N 
HETATM    4  C   UNL     1     -41.378 -48.457  11.916  1.00  0.00     0.140 A 
HETATM    5  N   UNL     1     -42.940 -48.898  13.504  1.00  0.00    -0.346 N 
ATOM      6  HN  UNL     1     -43.569 -49.391  14.139  1.00  0.00     0.167 HD
HETATM    7  C   UNL     1     -42.843 -47.592  13.331  1.00  0.00     0.185 A 
HETATM    8  N   UNL     1     -40.645 -50.957  11.406  1.00  0.00    -0.341 N 
ATOM      9  HN  UNL     1     -40.302 -51.892  11.181  1.00  0.00     0.167 HD
HETATM   10  N   UNL     1     -40.441 -48.596  10.961  1.00  0.00    -0.336 N 
ATOM     11  HN  UNL     1     -40.023 -47.822  10.447  1.00  0.00     0.168 HD
HETATM   12  C   UNL     1     -40.131 -49.885  10.776  1.00  0.00     0.183 A 
ENDROOT
BRANCH   2  13
HETATM   13  N   UNL     1     -42.211 -51.953  12.882  1.00  0.00    -0.258 NA
HETATM   14  C   UNL     1     -42.445 -51.927  14.343  1.00  0.00     0.065 C 
HETATM   15  C   UNL     1     -41.019 -52.079  14.933  1.00  0.00     0.028 C 
HETATM   16  C   UNL     1     -43.168 -53.274  14.534  1.00  0.00     0.022 C 
HETATM   17  C   UNL     1     -40.287 -52.886  13.831  1.00  0.00     0.029 C 
HETATM   18  C   UNL     1     -41.439 -53.213  12.845  1.00  0.00     0.071 C 
HETATM   19  C   UNL     1     -42.468 -54.171  13.498  1.00  0.00     0.022 C 
BRANCH  17  20
HETATM   20  C   UNL     1     -39.469 -54.051  14.355  1.00  0.00     0.170 C 
BRANCH  20  21
HETATM   21  O   UNL     1     -38.861 -54.734  13.261  1.00  0.00    -0.400 OA
HETATM   22  H   UNL     1     -39.441 -54.635  12.486  1.00  0.00     0.209 HD
ENDBRANCH  20  21
ENDBRANCH  17  20
ENDBRANCH   2  13
BRANCH   3  23
HETATM   23  C   UNL     1     -41.504 -45.996  11.891  1.00  0.00     0.094 C 
HETATM   24  C   UNL     1     -40.197 -45.478  12.565  1.00  0.00     0.039 C 
HETATM   25  C   UNL     1     -40.779 -44.032  12.416  1.00  0.00     0.006 C 
HETATM   26  C   UNL     1     -42.177 -44.743  12.522  1.00  0.00     0.039 C 
BRANCH  25  27
HETATM   27  C   UNL     1     -40.401 -43.110  13.578  1.00  0.00     0.175 C 
BRANCH  27  28
HETATM   28  O   UNL     1     -39.194 -42.417  13.284  1.00  0.00    -0.400 OA
HETATM   29  H   UNL     1     -38.761 -42.899  12.549  1.00  0.00     0.209 HD
ENDBRANCH  27  28
ENDBRANCH  25  27
BRANCH  25  30
HETATM   30  C   UNL     1     -40.445 -43.382  11.064  1.00  0.00     0.175 C 
BRANCH  30  31
HETATM   31  O   UNL     1     -40.768 -41.996  11.106  1.00  0.00    -0.400 OA
HETATM   32  H   UNL     1     -40.043 -41.539  11.576  1.00  0.00     0.209 HD
ENDBRANCH  30  31
ENDBRANCH  25  30
ENDBRANCH   3  23
TORSDOF 8
ENDMDL
MODEL 6
REMARK VINA RESULT:      -5.9      3.650      7.668
REMARK  8 active torsions:
REMARK  status: ('A' for Active; 'I' for Inactive)
REMARK    1  A    between atoms: C_2  and  N_4 
REMARK    2  A    between atoms: N_3  and  C_11 
REMARK    3  A    between atoms: C_16  and  C_24 
REMARK    4  A    between atoms: C_17  and  C_25 
REMARK    5  A    between atoms: C_17  and  C_26 
REMARK    6  A    between atoms: C_24  and  O_27 
REMARK    7  A    between atoms: C_25  and  O_28 
REMARK    8  A    between atoms: C_26  and  O_29 
ROOT
HETATM    1  C   UNL     1     -41.124 -50.267  11.921  1.00  0.00     0.117 A 
HETATM    2  C   UNL     1     -40.761 -49.053  11.274  1.00  0.00     0.115 A 
HETATM    3  N   UNL     1     -40.704 -52.074  13.090  1.00  0.00    -0.322 N 
HETATM    4  C   UNL     1     -40.102 -50.972  12.541  1.00  0.00     0.140 A 
HETATM    5  N   UNL     1     -42.333 -50.920  12.123  1.00  0.00    -0.346 N 
ATOM      6  HN  UNL     1     -43.256 -50.620  11.809  1.00  0.00     0.167 HD
HETATM    7  C   UNL     1     -42.038 -52.010  12.807  1.00  0.00     0.185 A 
HETATM    8  N   UNL     1     -39.432 -48.729  11.290  1.00  0.00    -0.341 N 
ATOM      9  HN  UNL     1     -39.107 -47.891  10.807  1.00  0.00     0.167 HD
HETATM   10  N   UNL     1     -38.798 -50.650  12.601  1.00  0.00    -0.336 N 
ATOM     11  HN  UNL     1     -38.089 -51.200  13.086  1.00  0.00     0.168 HD
HETATM   12  C   UNL     1     -38.553 -49.512  11.941  1.00  0.00     0.183 A 
ENDROOT
BRANCH   2  13
HETATM   13  N   UNL     1     -41.649 -48.141  10.687  1.00  0.00    -0.258 NA
HETATM   14  C   UNL     1     -41.148 -46.753  10.571  1.00  0.00     0.065 C 
HETATM   15  C   UNL     1     -41.196 -46.236  12.032  1.00  0.00     0.028 C 
HETATM   16  C   UNL     1     -42.317 -46.097   9.811  1.00  0.00     0.022 C 
HETATM   17  C   UNL     1     -42.355 -47.065  12.640  1.00  0.00     0.029 C 
HETATM   18  C   UNL     1     -42.902 -47.821  11.402  1.00  0.00     0.071 C 
HETATM   19  C   UNL     1     -43.538 -46.834  10.390  1.00  0.00     0.022 C 
BRANCH  17  20
HETATM   20  C   UNL     1     -43.344 -46.249  13.450  1.00  0.00     0.170 C 
BRANCH  20  21
HETATM   21  O   UNL     1     -43.166 -44.865  13.162  1.00  0.00    -0.400 OA
HETATM   22  H   UNL     1     -43.354 -44.729  12.217  1.00  0.00     0.209 HD
ENDBRANCH  20  21
ENDBRANCH  17  20
ENDBRANCH   2  13
BRANCH   3  23
HETATM   23  C   UNL     1     -39.971 -53.088  13.799  1.00  0.00     0.094 C 
HETATM   24  C   UNL     1     -40.872 -54.248  14.322  1.00  0.00     0.039 C 
HETATM   25  C   UNL     1     -39.895 -54.361  15.540  1.00  0.00     0.006 C 
HETATM   26  C   UNL     1     -39.653 -52.826  15.300  1.00  0.00     0.039 C 
BRANCH  25  27
HETATM   27  C   UNL     1     -40.604 -54.736  16.844  1.00  0.00     0.175 C 
BRANCH  27  28
HETATM   28  O   UNL     1     -39.709 -54.613  17.943  1.00  0.00    -0.400 OA
HETATM   29  H   UNL     1     -39.524 -53.657  18.054  1.00  0.00     0.209 HD
ENDBRANCH  27  28
ENDBRANCH  25  27
BRANCH  25  30
HETATM   30  C   UNL     1     -38.700 -55.290  15.273  1.00  0.00     0.175 C 
BRANCH  30  31
HETATM   31  O   UNL     1     -38.767 -56.417  16.141  1.00  0.00    -0.400 OA
HETATM   32  H   UNL     1     -38.343 -57.168  15.681  1.00  0.00     0.209 HD
ENDBRANCH  30  31
ENDBRANCH  25  30
ENDBRANCH   3  23
TORSDOF 8
ENDMDL
MODEL 7
REMARK VINA RESULT:      -5.6      2.357      3.398
REMARK  8 active torsions:
REMARK  status: ('A' for Active; 'I' for Inactive)
REMARK    1  A    between atoms: C_2  and  N_4 
REMARK    2  A    between atoms: N_3  and  C_11 
REMARK    3  A    between atoms: C_16  and  C_24 
REMARK    4  A    between atoms: C_17  and  C_25 
REMARK    5  A    between atoms: C_17  and  C_26 
REMARK    6  A    between atoms: C_24  and  O_27 
REMARK    7  A    between atoms: C_25  and  O_28 
REMARK    8  A    between atoms: C_26  and  O_29 
ROOT
HETATM    1  C   UNL     1     -40.663 -50.587  13.236  1.00  0.00     0.117 A 
HETATM    2  C   UNL     1     -40.728 -51.447  14.367  1.00  0.00     0.115 A 
HETATM    3  N   UNL     1     -40.997 -48.691  12.185  1.00  0.00    -0.322 N 
HETATM    4  C   UNL     1     -41.191 -49.312  13.391  1.00  0.00     0.140 A 
HETATM    5  N   UNL     1     -40.128 -50.720  11.960  1.00  0.00    -0.346 N 
ATOM      6  HN  UNL     1     -39.650 -51.534  11.574  1.00  0.00     0.167 HD
HETATM    7  C   UNL     1     -40.368 -49.572  11.353  1.00  0.00     0.185 A 
HETATM    8  N   UNL     1     -41.345 -50.944  15.479  1.00  0.00    -0.341 N 
ATOM      9  HN  UNL     1     -41.457 -51.530  16.307  1.00  0.00     0.167 HD
HETATM   10  N   UNL     1     -41.766 -48.788  14.487  1.00  0.00    -0.336 N 
ATOM     11  HN  UNL     1     -42.125 -47.835  14.551  1.00  0.00     0.168 HD
HETATM   12  C   UNL     1     -41.805 -49.680  15.484  1.00  0.00     0.183 A 
ENDROOT
BRANCH   2  13
HETATM   13  N   UNL     1     -40.160 -52.725  14.457  1.00  0.00    -0.258 NA
HETATM   14  C   UNL     1     -40.346 -53.588  13.269  1.00  0.00     0.065 C 
HETATM   15  C   UNL     1     -41.844 -53.980  13.345  1.00  0.00     0.028 C 
HETATM   16  C   UNL     1     -39.525 -54.822  13.688  1.00  0.00     0.022 C 
HETATM   17  C   UNL     1     -42.123 -53.929  14.869  1.00  0.00     0.029 C 
HETATM   18  C   UNL     1     -40.709 -53.670  15.452  1.00  0.00     0.071 C 
HETATM   19  C   UNL     1     -39.779 -54.885  15.204  1.00  0.00     0.022 C 
BRANCH  17  20
HETATM   20  C   UNL     1     -42.885 -55.128  15.400  1.00  0.00     0.170 C 
BRANCH  20  21
HETATM   21  O   UNL     1     -44.118 -55.257  14.696  1.00  0.00    -0.400 OA
HETATM   22  H   UNL     1     -43.934 -55.139  13.747  1.00  0.00     0.209 HD
ENDBRANCH  20  21
ENDBRANCH  17  20
ENDBRANCH   2  13
BRANCH   3  23
HETATM   23  C   UNL     1     -41.443 -47.350  11.921  1.00  0.00     0.094 C 
HETATM   24  C   UNL     1     -42.925 -47.275  11.443  1.00  0.00     0.039 C 
HETATM   25  C   UNL     1     -42.505 -46.045  10.569  1.00  0.00     0.006 C 
HETATM   26  C   UNL     1     -41.096 -46.740  10.532  1.00  0.00     0.039 C 
BRANCH  25  27
HETATM   27  C   UNL     1     -43.256 -45.972   9.238  1.00  0.00     0.175 C 
BRANCH  27  28
HETATM   28  O   UNL     1     -44.067 -44.803   9.195  1.00  0.00    -0.400 OA
HETATM   29  H   UNL     1     -43.978 -44.363  10.065  1.00  0.00     0.209 HD
ENDBRANCH  27  28
ENDBRANCH  25  27
BRANCH  25  30
HETATM   30  C   UNL     1     -42.588 -44.709  11.326  1.00  0.00     0.175 C 
BRANCH  30  31
HETATM   31  O   UNL     1     -42.006 -43.677  10.538  1.00  0.00    -0.400 OA
HETATM   32  H   UNL     1     -42.606 -42.905  10.574  1.00  0.00     0.209 HD
ENDBRANCH  30  31
ENDBRANCH  25  30
ENDBRANCH   3  23
TORSDOF 8
ENDMDL
MODEL 8
REMARK VINA RESULT:      -5.6      2.917      8.070
REMARK  8 active torsions:
REMARK  status: ('A' for Active; 'I' for Inactive)
REMARK    1  A    between atoms: C_2  and  N_4 
REMARK    2  A    between atoms: N_3  and  C_11 
REMARK    3  A    between atoms: C_16  and  C_24 
REMARK    4  A    between atoms: C_17  and  C_25 
REMARK    5  A    between atoms: C_17  and  C_26 
REMARK    6  A    between atoms: C_24  and  O_27 
REMARK    7  A    between atoms: C_25  and  O_28 
REMARK    8  A    between atoms: C_26  and  O_29 
ROOT
HETATM    1  C   UNL     1     -40.791 -47.418  12.614  1.00  0.00     0.117 A 
HETATM    2  C   UNL     1     -40.992 -46.322  11.729  1.00  0.00     0.115 A 
HETATM    3  N   UNL     1     -40.896 -49.534  13.179  1.00  0.00    -0.322 N 
HETATM    4  C   UNL     1     -41.207 -48.665  12.167  1.00  0.00     0.140 A 
HETATM    5  N   UNL     1     -40.205 -47.541  13.867  1.00  0.00    -0.346 N 
ATOM      6  HN  UNL     1     -39.783 -46.799  14.427  1.00  0.00     0.167 HD
HETATM    7  C   UNL     1     -40.307 -48.819  14.183  1.00  0.00     0.185 A 
HETATM    8  N   UNL     1     -41.617 -46.604  10.545  1.00  0.00    -0.341 N 
ATOM      9  HN  UNL     1     -41.825 -45.851   9.888  1.00  0.00     0.167 HD
HETATM   10  N   UNL     1     -41.788 -48.966  10.993  1.00  0.00    -0.336 N 
ATOM     11  HN  UNL     1     -42.061 -49.907  10.709  1.00  0.00     0.168 HD
HETATM   12  C   UNL     1     -41.960 -47.870  10.245  1.00  0.00     0.183 A 
ENDROOT
BRANCH   2  13
HETATM   13  N   UNL     1     -40.548 -45.009  11.937  1.00  0.00    -0.258 NA
HETATM   14  C   UNL     1     -40.969 -44.392  13.215  1.00  0.00     0.065 C 
HETATM   15  C   UNL     1     -42.477 -44.109  12.992  1.00  0.00     0.028 C 
HETATM   16  C   UNL     1     -40.229 -43.044  13.130  1.00  0.00     0.022 C 
HETATM   17  C   UNL     1     -42.554 -43.905  11.458  1.00  0.00     0.029 C 
HETATM   18  C   UNL     1     -41.059 -43.946  11.047  1.00  0.00     0.071 C 
HETATM   19  C   UNL     1     -40.294 -42.728  11.626  1.00  0.00     0.022 C 
BRANCH  17  20
HETATM   20  C   UNL     1     -43.359 -42.692  11.033  1.00  0.00     0.170 C 
BRANCH  20  21
HETATM   21  O   UNL     1     -43.812 -41.993  12.190  1.00  0.00    -0.400 OA
HETATM   22  H   UNL     1     -43.603 -42.537  12.969  1.00  0.00     0.209 HD
ENDBRANCH  20  21
ENDBRANCH  17  20
ENDBRANCH   2  13
BRANCH   3  23
HETATM   23  C   UNL     1     -41.203 -50.938  13.121  1.00  0.00     0.094 C 
HETATM   24  C   UNL     1     -40.886 -51.694  14.447  1.00  0.00     0.039 C 
HETATM   25  C   UNL     1     -40.534 -52.941  13.567  1.00  0.00     0.006 C 
HETATM   26  C   UNL     1     -40.141 -51.877  12.478  1.00  0.00     0.039 C 
BRANCH  25  27
HETATM   27  C   UNL     1     -39.386 -53.775  14.140  1.00  0.00     0.175 C 
BRANCH  27  28
HETATM   28  O   UNL     1     -39.091 -54.866  13.276  1.00  0.00    -0.400 OA
HETATM   29  H   UNL     1     -38.930 -54.488  12.386  1.00  0.00     0.209 HD
ENDBRANCH  27  28
ENDBRANCH  25  27
BRANCH  25  30
HETATM   30  C   UNL     1     -41.754 -53.821  13.251  1.00  0.00     0.175 C 
BRANCH  30  31
HETATM   31  O   UNL     1     -41.941 -54.771  14.295  1.00  0.00    -0.400 OA
HETATM   32  H   UNL     1     -41.976 -55.657  13.884  1.00  0.00     0.209 HD
ENDBRANCH  30  31
ENDBRANCH  25  30
ENDBRANCH   3  23
TORSDOF 8
ENDMDL
MODEL 9
REMARK VINA RESULT:      -5.6      3.187      4.105
REMARK  8 active torsions:
REMARK  status: ('A' for Active; 'I' for Inactive)
REMARK    1  A    between atoms: C_2  and  N_4 
REMARK    2  A    between atoms: N_3  and  C_11 
REMARK    3  A    between atoms: C_16  and  C_24 
REMARK    4  A    between atoms: C_17  and  C_25 
REMARK    5  A    between atoms: C_17  and  C_26 
REMARK    6  A    between atoms: C_24  and  O_27 
REMARK    7  A    between atoms: C_25  and  O_28 
REMARK    8  A    between atoms: C_26  and  O_29 
ROOT
HETATM    1  C   UNL     1     -41.598 -50.035  14.283  1.00  0.00     0.117 A 
HETATM    2  C   UNL     1     -40.692 -50.473  15.288  1.00  0.00     0.115 A 
HETATM    3  N   UNL     1     -42.313 -48.633  12.756  1.00  0.00    -0.322 N 
HETATM    4  C   UNL     1     -41.317 -48.818  13.678  1.00  0.00     0.140 A 
HETATM    5  N   UNL     1     -42.734 -50.592  13.709  1.00  0.00    -0.346 N 
ATOM      6  HN  UNL     1     -43.160 -51.492  13.932  1.00  0.00     0.167 HD
HETATM    7  C   UNL     1     -43.147 -49.713  12.815  1.00  0.00     0.185 A 
HETATM    8  N   UNL     1     -39.659 -49.628  15.586  1.00  0.00    -0.341 N 
ATOM      9  HN  UNL     1     -39.000 -49.871  16.327  1.00  0.00     0.167 HD
HETATM   10  N   UNL     1     -40.286 -47.992  13.930  1.00  0.00    -0.336 N 
ATOM     11  HN  UNL     1     -40.118 -47.113  13.441  1.00  0.00     0.168 HD
HETATM   12  C   UNL     1     -39.509 -48.477  14.906  1.00  0.00     0.183 A 
ENDROOT
BRANCH   2  13
HETATM   13  N   UNL     1     -40.730 -51.713  15.941  1.00  0.00    -0.258 NA
HETATM   14  C   UNL     1     -39.413 -52.283  16.299  1.00  0.00     0.065 C 
HETATM   15  C   UNL     1     -38.843 -52.745  14.933  1.00  0.00     0.028 C 
HETATM   16  C   UNL     1     -39.853 -53.545  17.065  1.00  0.00     0.022 C 
HETATM   17  C   UNL     1     -40.128 -53.061  14.127  1.00  0.00     0.029 C 
HETATM   18  C   UNL     1     -41.237 -52.884  15.196  1.00  0.00     0.071 C 
HETATM   19  C   UNL     1     -41.118 -53.969  16.298  1.00  0.00     0.022 C 
BRANCH  17  20
HETATM   20  C   UNL     1     -40.084 -54.380  13.382  1.00  0.00     0.170 C 
BRANCH  20  21
HETATM   21  O   UNL     1     -38.756 -54.898  13.410  1.00  0.00    -0.400 OA
HETATM   22  H   UNL     1     -38.722 -55.668  12.815  1.00  0.00     0.209 HD
ENDBRANCH  20  21
ENDBRANCH  17  20
ENDBRANCH   2  13
BRANCH   3  23
HETATM   23  C   UNL     1     -42.403 -47.457  11.934  1.00  0.00     0.094 C 
HETATM   24  C   UNL     1     -43.739 -47.365  11.134  1.00  0.00     0.039 C 
HETATM   25  C   UNL     1     -42.926 -46.657   9.998  1.00  0.00     0.006 C 
HETATM   26  C   UNL     1     -41.717 -47.504  10.538  1.00  0.00     0.039 C 
BRANCH  25  27
HETATM   27  C   UNL     1     -43.424 -47.009   8.595  1.00  0.00     0.175 C 
BRANCH  27  28
HETATM   28  O   UNL     1     -42.768 -46.202   7.623  1.00  0.00    -0.400 OA
HETATM   29  H   UNL     1     -43.342 -46.190   6.829  1.00  0.00     0.209 HD
ENDBRANCH  27  28
ENDBRANCH  25  27
BRANCH  25  30
HETATM   30  C   UNL     1     -42.827 -45.133  10.184  1.00  0.00     0.175 C 
BRANCH  30  31
HETATM   31  O   UNL     1     -43.864 -44.494   9.447  1.00  0.00    -0.400 OA
HETATM   32  H   UNL     1     -43.906 -44.921   8.568  1.00  0.00     0.209 HD
ENDBRANCH  30  31
ENDBRANCH  25  30
ENDBRANCH   3  23
TORSDOF 8
ENDMDL
