MODEL 1
REMARK VINA RESULT:      -5.8      0.000      0.000
REMARK  3 active torsions:
REMARK  status: ('A' for Active; 'I' for Inactive)
REMARK    1  A    between atoms: C_2  and  C_3 
REMARK    2  A    between atoms: C_2  and  C_14 
REMARK    3  A    between atoms: C_3  and  N_4 
REMARK       I    between atoms: N_4  and  C_5 
REMARK       I    between atoms: C_5  and  N_7 
ROOT
HETATM    1  C   UNL     1     -41.709 -51.969  12.108  1.00  0.00     0.133 C 
ENDROOT
BRANCH   1   2
HETATM    2  C   UNL     1     -40.771 -51.041  12.902  1.00  0.00     0.037 C 
HETATM    3  C   UNL     1     -41.226 -50.900  14.356  1.00  0.00     0.017 C 
BRANCH   2   4
HETATM    4  C   UNL     1     -40.528 -49.734  12.196  1.00  0.00     0.003 A 
HETATM    5  C   UNL     1     -39.282 -49.259  11.679  1.00  0.00     0.038 A 
HETATM    6  C   UNL     1     -37.941 -49.894  11.707  1.00  0.00     0.071 C 
HETATM    7  N   UNL     1     -39.412 -48.063  11.098  1.00  0.00    -0.265 N 
HETATM    8  O   UNL     1     -40.739 -47.724  11.227  1.00  0.00    -0.242 OA
ATOM      9  HN  UNL     1     -38.678 -47.514  10.651  1.00  0.00     0.194 HD
HETATM   10  C   UNL     1     -41.403 -48.710  11.883  1.00  0.00     0.081 A 
HETATM   11  C   UNL     1     -42.843 -48.460  12.092  1.00  0.00     0.079 C 
ENDBRANCH   2   4
ENDBRANCH   1   2
BRANCH   1  12
HETATM   12  N   UNL     1     -43.119 -51.867  12.465  1.00  0.00    -0.342 N 
HETATM   13  C   UNL     1     -43.739 -52.985  12.979  1.00  0.00     0.318 C 
HETATM   14  O   UNL     1     -43.098 -54.010  13.179  1.00  0.00    -0.247 OA
HETATM   15  N   UNL     1     -45.094 -52.853  13.228  1.00  0.00    -0.326 N 
HETATM   16  C   UNL     1     -45.811 -51.566  13.248  1.00  0.00     0.154 C 
HETATM   17  C   UNL     1     -45.934 -53.963  13.749  1.00  0.00     0.108 C 
HETATM   18  C   UNL     1     -46.383 -51.283  14.642  1.00  0.00     0.187 C 
HETATM   19  O   UNL     1     -47.222 -52.357  15.088  1.00  0.00    -0.388 OA
HETATM   20  C   UNL     1     -46.482 -53.588  15.142  1.00  0.00     0.192 C 
HETATM   21  C   UNL     1     -45.331 -55.368  13.798  1.00  0.00     0.034 C 
HETATM   22  H   UNL     1     -43.688 -51.375  11.793  1.00  0.00     0.164 HD
ENDBRANCH   1  12
TORSDOF 3
ENDMDL
MODEL 2
REMARK VINA RESULT:      -5.8      2.322      7.036
REMARK  3 active torsions:
REMARK  status: ('A' for Active; 'I' for Inactive)
REMARK    1  A    between atoms: C_2  and  C_3 
REMARK    2  A    between atoms: C_2  and  C_14 
REMARK    3  A    between atoms: C_3  and  N_4 
REMARK       I    between atoms: N_4  and  C_5 
REMARK       I    between atoms: C_5  and  N_7 
ROOT
HETATM    1  C   UNL     1     -42.589 -50.689  12.973  1.00  0.00     0.133 C 
ENDROOT
BRANCH   1   2
HETATM    2  C   UNL     1     -43.564 -51.108  14.090  1.00  0.00     0.037 C 
HETATM    3  C   UNL     1     -42.859 -51.190  15.445  1.00  0.00     0.017 C 
BRANCH   2   4
HETATM    4  C   UNL     1     -44.357 -52.336  13.725  1.00  0.00     0.003 A 
HETATM    5  C   UNL     1     -45.781 -52.451  13.672  1.00  0.00     0.038 A 
HETATM    6  C   UNL     1     -46.824 -51.436  13.962  1.00  0.00     0.071 C 
HETATM    7  N   UNL     1     -46.165 -53.676  13.301  1.00  0.00    -0.265 N 
HETATM    8  O   UNL     1     -45.005 -54.391  13.110  1.00  0.00    -0.242 OA
ATOM      9  HN  UNL     1     -47.120 -54.011  13.184  1.00  0.00     0.194 HD
HETATM   10  C   UNL     1     -43.930 -53.601  13.366  1.00  0.00     0.081 A 
HETATM   11  C   UNL     1     -42.619 -54.260  13.203  1.00  0.00     0.079 C 
ENDBRANCH   2   4
ENDBRANCH   1   2
BRANCH   1  12
HETATM   12  N   UNL     1     -43.039 -49.569  12.155  1.00  0.00    -0.342 N 
HETATM   13  C   UNL     1     -42.442 -48.342  12.352  1.00  0.00     0.318 C 
HETATM   14  O   UNL     1     -41.523 -48.225  13.153  1.00  0.00    -0.247 OA
HETATM   15  N   UNL     1     -42.962 -47.302  11.603  1.00  0.00    -0.326 N 
HETATM   16  C   UNL     1     -43.870 -47.478  10.456  1.00  0.00     0.154 C 
HETATM   17  C   UNL     1     -42.468 -45.903  11.709  1.00  0.00     0.108 C 
HETATM   18  C   UNL     1     -43.220 -46.971   9.163  1.00  0.00     0.187 C 
HETATM   19  O   UNL     1     -42.799 -45.606   9.293  1.00  0.00    -0.388 OA
HETATM   20  C   UNL     1     -41.849 -45.469  10.364  1.00  0.00     0.192 C 
HETATM   21  C   UNL     1     -41.510 -45.557  12.848  1.00  0.00     0.034 C 
HETATM   22  H   UNL     1     -44.039 -49.508  12.042  1.00  0.00     0.164 HD
ENDBRANCH   1  12
TORSDOF 3
ENDMDL
MODEL 3
REMARK VINA RESULT:      -5.8      1.607      6.379
REMARK  3 active torsions:
REMARK  status: ('A' for Active; 'I' for Inactive)
REMARK    1  A    between atoms: C_2  and  C_3 
REMARK    2  A    between atoms: C_2  and  C_14 
REMARK    3  A    between atoms: C_3  and  N_4 
REMARK       I    between atoms: N_4  and  C_5 
REMARK       I    between atoms: C_5  and  N_7 
ROOT
HETATM    1  C   UNL     1     -43.953 -53.492  12.441  1.00  0.00     0.133 C 
ENDROOT
BRANCH   1   2
HETATM    2  C   UNL     1     -44.634 -53.834  13.779  1.00  0.00     0.037 C 
HETATM    3  C   UNL     1     -45.276 -55.222  13.740  1.00  0.00     0.017 C 
BRANCH   2   4
HETATM    4  C   UNL     1     -45.552 -52.736  14.250  1.00  0.00     0.003 A 
HETATM    5  C   UNL     1     -45.714 -52.272  15.593  1.00  0.00     0.038 A 
HETATM    6  C   UNL     1     -45.057 -52.736  16.840  1.00  0.00     0.071 C 
HETATM    7  N   UNL     1     -46.600 -51.276  15.668  1.00  0.00    -0.265 N 
HETATM    8  O   UNL     1     -47.044 -51.069  14.382  1.00  0.00    -0.242 OA
ATOM      9  HN  UNL     1     -46.889 -50.772  16.507  1.00  0.00     0.194 HD
HETATM   10  C   UNL     1     -46.429 -51.937  13.539  1.00  0.00     0.081 A 
HETATM   11  C   UNL     1     -46.828 -51.820  12.122  1.00  0.00     0.079 C 
ENDBRANCH   2   4
ENDBRANCH   1   2
BRANCH   1  12
HETATM   12  N   UNL     1     -43.169 -52.262  12.447  1.00  0.00    -0.342 N 
HETATM   13  C   UNL     1     -41.845 -52.341  12.820  1.00  0.00     0.318 C 
HETATM   14  O   UNL     1     -41.340 -53.427  13.078  1.00  0.00    -0.247 OA
HETATM   15  N   UNL     1     -41.172 -51.133  12.882  1.00  0.00    -0.326 N 
HETATM   16  C   UNL     1     -41.683 -49.870  12.321  1.00  0.00     0.154 C 
HETATM   17  C   UNL     1     -39.750 -51.020  13.299  1.00  0.00     0.108 C 
HETATM   18  C   UNL     1     -40.768 -49.362  11.200  1.00  0.00     0.187 C 
HETATM   19  O   UNL     1     -39.415 -49.224  11.656  1.00  0.00    -0.388 OA
HETATM   20  C   UNL     1     -38.906 -50.486  12.121  1.00  0.00     0.192 C 
HETATM   21  C   UNL     1     -39.069 -52.250  13.899  1.00  0.00     0.034 C 
HETATM   22  H   UNL     1     -43.644 -51.465  12.843  1.00  0.00     0.164 HD
ENDBRANCH   1  12
TORSDOF 3
ENDMDL
MODEL 4
REMARK VINA RESULT:      -5.7      2.795      6.570
REMARK  3 active torsions:
REMARK  status: ('A' for Active; 'I' for Inactive)
REMARK    1  A    between atoms: C_2  and  C_3 
REMARK    2  A    between atoms: C_2  and  C_14 
REMARK    3  A    between atoms: C_3  and  N_4 
REMARK       I    between atoms: N_4  and  C_5 
REMARK       I    between atoms: C_5  and  N_7 
ROOT
HETATM    1  C   UNL     1     -44.851 -50.671  16.012  1.00  0.00     0.133 C 
ENDROOT
BRANCH   1   2
HETATM    2  C   UNL     1     -46.210 -51.237  15.560  1.00  0.00     0.037 C 
HETATM    3  C   UNL     1     -47.290 -51.010  16.620  1.00  0.00     0.017 C 
BRANCH   2   4
HETATM    4  C   UNL     1     -46.104 -52.659  15.073  1.00  0.00     0.003 A 
HETATM    5  C   UNL     1     -46.185 -53.107  13.717  1.00  0.00     0.038 A 
HETATM    6  C   UNL     1     -46.400 -52.328  12.474  1.00  0.00     0.071 C 
HETATM    7  N   UNL     1     -46.039 -54.432  13.627  1.00  0.00    -0.265 N 
HETATM    8  O   UNL     1     -45.867 -54.881  14.916  1.00  0.00    -0.242 OA
ATOM      9  HN  UNL     1     -46.053 -54.995  12.776  1.00  0.00     0.194 HD
HETATM   10  C   UNL     1     -45.910 -53.832  15.777  1.00  0.00     0.081 A 
HETATM   11  C   UNL     1     -45.745 -54.187  17.201  1.00  0.00     0.079 C 
ENDBRANCH   2   4
ENDBRANCH   1   2
BRANCH   1  12
HETATM   12  N   UNL     1     -43.770 -50.825  15.045  1.00  0.00    -0.342 N 
HETATM   13  C   UNL     1     -42.726 -51.665  15.370  1.00  0.00     0.318 C 
HETATM   14  O   UNL     1     -42.748 -52.300  16.417  1.00  0.00    -0.247 OA
HETATM   15  N   UNL     1     -41.694 -51.712  14.450  1.00  0.00    -0.326 N 
HETATM   16  C   UNL     1     -41.777 -51.172  13.082  1.00  0.00     0.154 C 
HETATM   17  C   UNL     1     -40.471 -52.534  14.648  1.00  0.00     0.108 C 
HETATM   18  C   UNL     1     -41.631 -52.290  12.044  1.00  0.00     0.187 C 
HETATM   19  O   UNL     1     -40.418 -53.029  12.242  1.00  0.00    -0.388 OA
HETATM   20  C   UNL     1     -40.393 -53.620  13.554  1.00  0.00     0.192 C 
HETATM   21  C   UNL     1     -40.240 -53.172  16.018  1.00  0.00     0.034 C 
HETATM   22  H   UNL     1     -43.466 -49.965  14.616  1.00  0.00     0.164 HD
ENDBRANCH   1  12
TORSDOF 3
ENDMDL
MODEL 5
REMARK VINA RESULT:      -5.7      2.313      3.493
REMARK  3 active torsions:
REMARK  status: ('A' for Active; 'I' for Inactive)
REMARK    1  A    between atoms: C_2  and  C_3 
REMARK    2  A    between atoms: C_2  and  C_14 
REMARK    3  A    between atoms: C_3  and  N_4 
REMARK       I    between atoms: N_4  and  C_5 
REMARK       I    between atoms: C_5  and  N_7 
ROOT
HETATM    1  C   UNL     1     -41.191 -49.619  11.471  1.00  0.00     0.133 C 
ENDROOT
BRANCH   1   2
HETATM    2  C   UNL     1     -41.689 -48.353  12.193  1.00  0.00     0.037 C 
HETATM    3  C   UNL     1     -43.055 -48.582  12.842  1.00  0.00     0.017 C 
BRANCH   2   4
HETATM    4  C   UNL     1     -41.611 -47.128  11.320  1.00  0.00     0.003 A 
HETATM    5  C   UNL     1     -40.731 -46.013  11.486  1.00  0.00     0.038 A 
HETATM    6  C   UNL     1     -39.706 -45.763  12.528  1.00  0.00     0.071 C 
HETATM    7  N   UNL     1     -40.910 -45.096  10.530  1.00  0.00    -0.265 N 
HETATM    8  O   UNL     1     -41.912 -45.585   9.723  1.00  0.00    -0.242 OA
ATOM      9  HN  UNL     1     -40.408 -44.216  10.421  1.00  0.00     0.194 HD
HETATM   10  C   UNL     1     -42.334 -46.787  10.192  1.00  0.00     0.081 A 
HETATM   11  C   UNL     1     -43.419 -47.415   9.411  1.00  0.00     0.079 C 
ENDBRANCH   2   4
ENDBRANCH   1   2
BRANCH   1  12
HETATM   12  N   UNL     1     -41.941 -50.832  11.772  1.00  0.00    -0.342 N 
HETATM   13  C   UNL     1     -41.291 -51.845  12.444  1.00  0.00     0.318 C 
HETATM   14  O   UNL     1     -40.135 -51.693  12.821  1.00  0.00    -0.247 OA
HETATM   15  N   UNL     1     -42.028 -53.000  12.634  1.00  0.00    -0.326 N 
HETATM   16  C   UNL     1     -43.484 -53.098  12.430  1.00  0.00     0.154 C 
HETATM   17  C   UNL     1     -41.480 -54.208  13.306  1.00  0.00     0.108 C 
HETATM   18  C   UNL     1     -44.198 -53.429  13.745  1.00  0.00     0.187 C 
HETATM   19  O   UNL     1     -43.671 -54.624  14.337  1.00  0.00    -0.388 OA
HETATM   20  C   UNL     1     -42.266 -54.478  14.607  1.00  0.00     0.192 C 
HETATM   21  C   UNL     1     -39.980 -54.260  13.594  1.00  0.00     0.034 C 
HETATM   22  H   UNL     1     -42.518 -51.167  11.016  1.00  0.00     0.164 HD
ENDBRANCH   1  12
TORSDOF 3
ENDMDL
MODEL 6
REMARK VINA RESULT:      -5.6      2.190      6.829
REMARK  3 active torsions:
REMARK  status: ('A' for Active; 'I' for Inactive)
REMARK    1  A    between atoms: C_2  and  C_3 
REMARK    2  A    between atoms: C_2  and  C_14 
REMARK    3  A    between atoms: C_3  and  N_4 
REMARK       I    between atoms: N_4  and  C_5 
REMARK       I    between atoms: C_5  and  N_7 
ROOT
HETATM    1  C   UNL     1     -44.606 -50.635  15.852  1.00  0.00     0.133 C 
ENDROOT
BRANCH   1   2
HETATM    2  C   UNL     1     -46.039 -51.143  15.601  1.00  0.00     0.037 C 
HETATM    3  C   UNL     1     -46.948 -50.861  16.798  1.00  0.00     0.017 C 
BRANCH   2   4
HETATM    4  C   UNL     1     -46.062 -52.571  15.122  1.00  0.00     0.003 A 
HETATM    5  C   UNL     1     -46.203 -53.019  13.771  1.00  0.00     0.038 A 
HETATM    6  C   UNL     1     -46.369 -52.231  12.525  1.00  0.00     0.071 C 
HETATM    7  N   UNL     1     -46.173 -54.352  13.687  1.00  0.00    -0.265 N 
HETATM    8  O   UNL     1     -46.020 -54.807  14.977  1.00  0.00    -0.242 OA
ATOM      9  HN  UNL     1     -46.248 -54.916  12.841  1.00  0.00     0.194 HD
HETATM   10  C   UNL     1     -45.960 -53.753  15.831  1.00  0.00     0.081 A 
HETATM   11  C   UNL     1     -45.803 -54.113  17.255  1.00  0.00     0.079 C 
ENDBRANCH   2   4
ENDBRANCH   1   2
BRANCH   1  12
HETATM   12  N   UNL     1     -43.580 -51.259  15.025  1.00  0.00    -0.342 N 
HETATM   13  C   UNL     1     -43.010 -50.506  14.022  1.00  0.00     0.318 C 
HETATM   14  O   UNL     1     -43.325 -49.330  13.878  1.00  0.00    -0.247 OA
HETATM   15  N   UNL     1     -42.100 -51.173  13.222  1.00  0.00    -0.326 N 
HETATM   16  C   UNL     1     -41.519 -52.488  13.545  1.00  0.00     0.154 C 
HETATM   17  C   UNL     1     -41.413 -50.531  12.069  1.00  0.00     0.108 C 
HETATM   18  C   UNL     1     -40.001 -52.381  13.735  1.00  0.00     0.187 C 
HETATM   19  O   UNL     1     -39.372 -51.800  12.584  1.00  0.00    -0.388 OA
HETATM   20  C   UNL     1     -39.893 -50.482  12.335  1.00  0.00     0.192 C 
HETATM   21  C   UNL     1     -41.896 -49.156  11.611  1.00  0.00     0.034 C 
HETATM   22  H   UNL     1     -43.789 -52.204  14.739  1.00  0.00     0.164 HD
ENDBRANCH   1  12
TORSDOF 3
ENDMDL
MODEL 7
REMARK VINA RESULT:      -5.6      2.351      3.438
REMARK  3 active torsions:
REMARK  status: ('A' for Active; 'I' for Inactive)
REMARK    1  A    between atoms: C_2  and  C_3 
REMARK    2  A    between atoms: C_2  and  C_14 
REMARK    3  A    between atoms: C_3  and  N_4 
REMARK       I    between atoms: N_4  and  C_5 
REMARK       I    between atoms: C_5  and  N_7 
ROOT
HETATM    1  C   UNL     1     -42.948 -49.115  12.670  1.00  0.00     0.133 C 
ENDROOT
BRANCH   1   2
HETATM    2  C   UNL     1     -42.345 -48.682  11.320  1.00  0.00     0.037 C 
HETATM    3  C   UNL     1     -40.877 -49.097  11.206  1.00  0.00     0.017 C 
BRANCH   2   4
HETATM    4  C   UNL     1     -42.608 -47.231  11.016  1.00  0.00     0.003 A 
HETATM    5  C   UNL     1     -43.432 -46.711   9.969  1.00  0.00     0.038 A 
HETATM    6  C   UNL     1     -44.212 -47.431   8.933  1.00  0.00     0.071 C 
HETATM    7  N   UNL     1     -43.462 -45.375   9.981  1.00  0.00    -0.265 N 
HETATM    8  O   UNL     1     -42.655 -44.990  11.027  1.00  0.00    -0.242 OA
ATOM      9  HN  UNL     1     -43.977 -44.767   9.345  1.00  0.00     0.194 HD
HETATM   10  C   UNL     1     -42.142 -46.088  11.640  1.00  0.00     0.081 A 
HETATM   11  C   UNL     1     -41.248 -45.805  12.780  1.00  0.00     0.079 C 
ENDBRANCH   2   4
ENDBRANCH   1   2
BRANCH   1  12
HETATM   12  N   UNL     1     -43.727 -50.347  12.627  1.00  0.00    -0.342 N 
HETATM   13  C   UNL     1     -43.113 -51.515  13.025  1.00  0.00     0.318 C 
HETATM   14  O   UNL     1     -41.966 -51.494  13.454  1.00  0.00    -0.247 OA
HETATM   15  N   UNL     1     -43.875 -52.662  12.891  1.00  0.00    -0.326 N 
HETATM   16  C   UNL     1     -45.326 -52.668  12.636  1.00  0.00     0.154 C 
HETATM   17  C   UNL     1     -43.367 -54.016  13.235  1.00  0.00     0.108 C 
HETATM   18  C   UNL     1     -46.082 -53.314  13.804  1.00  0.00     0.187 C 
HETATM   19  O   UNL     1     -45.592 -54.634  14.074  1.00  0.00    -0.388 OA
HETATM   20  C   UNL     1     -44.192 -54.597  14.403  1.00  0.00     0.192 C 
HETATM   21  C   UNL     1     -41.876 -54.177  13.533  1.00  0.00     0.034 C 
HETATM   22  H   UNL     1     -44.289 -50.459  11.797  1.00  0.00     0.164 HD
ENDBRANCH   1  12
TORSDOF 3
ENDMDL
MODEL 8
REMARK VINA RESULT:      -5.6      1.917      7.254
REMARK  3 active torsions:
REMARK  status: ('A' for Active; 'I' for Inactive)
REMARK    1  A    between atoms: C_2  and  C_3 
REMARK    2  A    between atoms: C_2  and  C_14 
REMARK    3  A    between atoms: C_3  and  N_4 
REMARK       I    between atoms: N_4  and  C_5 
REMARK       I    between atoms: C_5  and  N_7 
ROOT
HETATM    1  C   UNL     1     -44.619 -50.875  13.425  1.00  0.00     0.133 C 
ENDROOT
BRANCH   1   2
HETATM    2  C   UNL     1     -45.575 -52.057  13.179  1.00  0.00     0.037 C 
HETATM    3  C   UNL     1     -46.862 -51.599  12.489  1.00  0.00     0.017 C 
BRANCH   2   4
HETATM    4  C   UNL     1     -45.794 -52.883  14.419  1.00  0.00     0.003 A 
HETATM    5  C   UNL     1     -46.133 -52.398  15.722  1.00  0.00     0.038 A 
HETATM    6  C   UNL     1     -46.343 -51.006  16.188  1.00  0.00     0.071 C 
HETATM    7  N   UNL     1     -46.266 -53.395  16.600  1.00  0.00    -0.265 N 
HETATM    8  O   UNL     1     -46.011 -54.552  15.899  1.00  0.00    -0.242 OA
ATOM      9  HN  UNL     1     -46.508 -53.316  17.588  1.00  0.00     0.194 HD
HETATM   10  C   UNL     1     -45.724 -54.251  14.606  1.00  0.00     0.081 A 
HETATM   11  C   UNL     1     -45.422 -55.414  13.748  1.00  0.00     0.079 C 
ENDBRANCH   2   4
ENDBRANCH   1   2
BRANCH   1  12
HETATM   12  N   UNL     1     -43.265 -51.066  12.919  1.00  0.00    -0.342 N 
HETATM   13  C   UNL     1     -42.600 -49.967  12.418  1.00  0.00     0.318 C 
HETATM   14  O   UNL     1     -43.123 -48.859  12.456  1.00  0.00    -0.247 OA
HETATM   15  N   UNL     1     -41.351 -50.223  11.882  1.00  0.00    -0.326 N 
HETATM   16  C   UNL     1     -40.608 -51.481  12.071  1.00  0.00     0.154 C 
HETATM   17  C   UNL     1     -40.504 -49.168  11.264  1.00  0.00     0.108 C 
HETATM   18  C   UNL     1     -39.303 -51.234  12.836  1.00  0.00     0.187 C 
HETATM   19  O   UNL     1     -38.496 -50.244  12.183  1.00  0.00    -0.388 OA
HETATM   20  C   UNL     1     -39.207 -48.998  12.084  1.00  0.00     0.192 C 
HETATM   21  C   UNL     1     -41.128 -47.796  11.005  1.00  0.00     0.034 C 
HETATM   22  H   UNL     1     -43.141 -51.893  12.356  1.00  0.00     0.164 HD
ENDBRANCH   1  12
TORSDOF 3
ENDMDL
MODEL 9
REMARK VINA RESULT:      -5.5      2.173      6.880
REMARK  3 active torsions:
REMARK  status: ('A' for Active; 'I' for Inactive)
REMARK    1  A    between atoms: C_2  and  C_3 
REMARK    2  A    between atoms: C_2  and  C_14 
REMARK    3  A    between atoms: C_3  and  N_4 
REMARK       I    between atoms: N_4  and  C_5 
REMARK       I    between atoms: C_5  and  N_7 
ROOT
HETATM    1  C   UNL     1     -42.226 -51.603  14.021  1.00  0.00     0.133 C 
ENDROOT
BRANCH   1   2
HETATM    2  C   UNL     1     -41.816 -53.084  13.924  1.00  0.00     0.037 C 
HETATM    3  C   UNL     1     -40.981 -53.351  12.670  1.00  0.00     0.017 C 
BRANCH   2   4
HETATM    4  C   UNL     1     -42.988 -54.014  14.102  1.00  0.00     0.003 A 
HETATM    5  C   UNL     1     -44.221 -53.984  13.377  1.00  0.00     0.038 A 
HETATM    6  C   UNL     1     -44.667 -53.061  12.305  1.00  0.00     0.071 C 
HETATM    7  N   UNL     1     -45.049 -54.956  13.771  1.00  0.00    -0.265 N 
HETATM    8  O   UNL     1     -44.383 -55.638  14.764  1.00  0.00    -0.242 OA
ATOM      9  HN  UNL     1     -45.982 -55.153  13.410  1.00  0.00     0.194 HD
HETATM   10  C   UNL     1     -43.163 -55.078  14.967  1.00  0.00     0.081 A 
HETATM   11  C   UNL     1     -42.350 -55.718  16.020  1.00  0.00     0.079 C 
ENDBRANCH   2   4
ENDBRANCH   1   2
BRANCH   1  12
HETATM   12  N   UNL     1     -41.539 -50.714  13.090  1.00  0.00    -0.342 N 
HETATM   13  C   UNL     1     -42.281 -49.738  12.462  1.00  0.00     0.318 C 
HETATM   14  O   UNL     1     -43.468 -49.595  12.731  1.00  0.00    -0.247 OA
HETATM   15  N   UNL     1     -41.595 -48.976  11.533  1.00  0.00    -0.326 N 
HETATM   16  C   UNL     1     -40.128 -48.956  11.398  1.00  0.00     0.154 C 
HETATM   17  C   UNL     1     -42.240 -47.901  10.733  1.00  0.00     0.108 C 
HETATM   18  C   UNL     1     -39.571 -47.561  11.706  1.00  0.00     0.187 C 
HETATM   19  O   UNL     1     -40.186 -46.561  10.882  1.00  0.00    -0.388 OA
HETATM   20  C   UNL     1     -41.609 -46.539  11.091  1.00  0.00     0.192 C 
HETATM   21  C   UNL     1     -43.764 -47.784  10.770  1.00  0.00     0.034 C 
HETATM   22  H   UNL     1     -40.890 -51.176  12.472  1.00  0.00     0.164 HD
ENDBRANCH   1  12
TORSDOF 3
ENDMDL
