MODEL 1
REMARK VINA RESULT:      -6.5      0.000      0.000
REMARK  6 active torsions:
REMARK  status: ('A' for Active; 'I' for Inactive)
REMARK    1  A    between atoms: C_2  and  C_5 
REMARK    2  A    between atoms: C_5  and  N_6 
REMARK    3  A    between atoms: C_8  and  C_12 
REMARK       I    between atoms: C_12  and  N_14 
REMARK    4  A    between atoms: N_14  and  C_15 
REMARK    5  A    between atoms: C_15  and  C_16 
REMARK    6  A    between atoms: C_16  and  C_17 
ROOT
HETATM    1  C   UNL     1     -42.360 -52.361  12.278  1.00  0.00     0.223 C 
HETATM    2  O   UNL     1     -41.240 -52.508  11.797  1.00  0.00    -0.273 OA
HETATM    3  N   UNL     1     -42.873 -51.114  12.568  1.00  0.00    -0.360 N 
HETATM    4  H   UNL     1     -43.854 -51.021  12.796  1.00  0.00     0.162 HD
ENDROOT
BRANCH   1   5
HETATM    5  C   UNL     1     -43.239 -53.534  12.679  1.00  0.00     0.104 C 
HETATM    6  C   UNL     1     -44.713 -53.131  12.644  1.00  0.00     0.140 C 
HETATM    7  N   UNL     1     -45.300 -53.681  13.838  1.00  0.00    -0.343 N 
HETATM    8  C   UNL     1     -44.349 -54.161  14.721  1.00  0.00     0.220 C 
HETATM    9  C   UNL     1     -42.987 -54.031  14.101  1.00  0.00     0.118 C 
HETATM   10  O   UNL     1     -44.574 -54.567  15.848  1.00  0.00    -0.273 OA
BRANCH   7  11
HETATM   11  C   UNL     1     -46.575 -53.175  14.357  1.00  0.00     0.243 C 
BRANCH  11  12
HETATM   12  C   UNL     1     -46.652 -51.644  14.525  1.00  0.00     0.403 C 
HETATM   13  F   UNL     1     -45.460 -51.090  14.845  1.00  0.00    -0.169 F 
HETATM   14  F   UNL     1     -47.541 -51.296  15.482  1.00  0.00    -0.169 F 
HETATM   15  F   UNL     1     -47.058 -51.063  13.370  1.00  0.00    -0.169 F 
ENDBRANCH  11  12
ENDBRANCH   7  11
ENDBRANCH   1   5
BRANCH   3  16
HETATM   16  C   UNL     1     -42.136 -49.927  12.149  1.00  0.00     0.128 C 
BRANCH  16  17
HETATM   17  C   UNL     1     -42.839 -48.631  12.529  1.00  0.00     0.076 C 
BRANCH  17  18
HETATM   18  C   UNL     1     -43.060 -47.758  11.323  1.00  0.00     0.010 A 
HETATM   19  C   UNL     1     -42.217 -46.679  11.061  1.00  0.00     0.025 A 
HETATM   20  C   UNL     1     -42.448 -45.902   9.929  1.00  0.00     0.003 A 
HETATM   21  C   UNL     1     -43.504 -46.227   9.087  1.00  0.00     0.017 A 
HETATM   22  C   UNL     1     -44.287 -47.316   9.414  1.00  0.00     0.088 A 
HETATM   23  N   UNL     1     -44.089 -48.088  10.507  1.00  0.00    -0.369 N 
ATOM     24  HN  UNL     1     -44.691 -48.886  10.708  1.00  0.00     0.165 HD
ENDBRANCH  17  18
ENDBRANCH  16  17
ENDBRANCH   3  16
TORSDOF 6
ENDMDL
MODEL 2
REMARK VINA RESULT:      -6.4      4.256      7.111
REMARK  6 active torsions:
REMARK  status: ('A' for Active; 'I' for Inactive)
REMARK    1  A    between atoms: C_2  and  C_5 
REMARK    2  A    between atoms: C_5  and  N_6 
REMARK    3  A    between atoms: C_8  and  C_12 
REMARK       I    between atoms: C_12  and  N_14 
REMARK    4  A    between atoms: N_14  and  C_15 
REMARK    5  A    between atoms: C_15  and  C_16 
REMARK    6  A    between atoms: C_16  and  C_17 
ROOT
HETATM    1  C   UNL     1     -40.838 -47.093  11.628  1.00  0.00     0.223 C 
HETATM    2  O   UNL     1     -39.917 -46.587  10.992  1.00  0.00    -0.273 OA
HETATM    3  N   UNL     1     -40.642 -48.169  12.467  1.00  0.00    -0.360 N 
HETATM    4  H   UNL     1     -41.379 -48.445  13.102  1.00  0.00     0.162 HD
ENDROOT
BRANCH   1   5
HETATM    5  C   UNL     1     -42.281 -46.639  11.479  1.00  0.00     0.104 C 
HETATM    6  C   UNL     1     -43.089 -47.682  10.709  1.00  0.00     0.140 C 
HETATM    7  N   UNL     1     -43.897 -46.942   9.774  1.00  0.00    -0.343 N 
HETATM    8  C   UNL     1     -43.527 -45.612   9.693  1.00  0.00     0.220 C 
HETATM    9  C   UNL     1     -42.436 -45.340  10.690  1.00  0.00     0.118 C 
HETATM   10  O   UNL     1     -43.971 -44.803   8.897  1.00  0.00    -0.273 OA
BRANCH   7  11
HETATM   11  C   UNL     1     -44.491 -47.597   8.604  1.00  0.00     0.243 C 
BRANCH  11  12
HETATM   12  C   UNL     1     -45.993 -47.926   8.730  1.00  0.00     0.403 C 
HETATM   13  F   UNL     1     -46.772 -46.821   8.750  1.00  0.00    -0.169 F 
HETATM   14  F   UNL     1     -46.251 -48.635   9.852  1.00  0.00    -0.169 F 
HETATM   15  F   UNL     1     -46.401 -48.676   7.678  1.00  0.00    -0.169 F 
ENDBRANCH  11  12
ENDBRANCH   7  11
ENDBRANCH   1   5
BRANCH   3  16
HETATM   16  C   UNL     1     -39.282 -48.625  12.733  1.00  0.00     0.128 C 
BRANCH  16  17
HETATM   17  C   UNL     1     -38.886 -49.826  11.883  1.00  0.00     0.076 C 
BRANCH  17  18
HETATM   18  C   UNL     1     -39.640 -51.060  12.302  1.00  0.00     0.010 A 
HETATM   19  C   UNL     1     -39.316 -51.726  13.483  1.00  0.00     0.025 A 
HETATM   20  C   UNL     1     -40.045 -52.857  13.840  1.00  0.00     0.003 A 
HETATM   21  C   UNL     1     -41.078 -53.287  13.017  1.00  0.00     0.017 A 
HETATM   22  C   UNL     1     -41.339 -52.566  11.869  1.00  0.00     0.088 A 
HETATM   23  N   UNL     1     -40.649 -51.466  11.494  1.00  0.00    -0.369 N 
ATOM     24  HN  UNL     1     -40.878 -50.962  10.639  1.00  0.00     0.165 HD
ENDBRANCH  17  18
ENDBRANCH  16  17
ENDBRANCH   3  16
TORSDOF 6
ENDMDL
MODEL 3
REMARK VINA RESULT:      -6.4      1.299      1.769
REMARK  6 active torsions:
REMARK  status: ('A' for Active; 'I' for Inactive)
REMARK    1  A    between atoms: C_2  and  C_5 
REMARK    2  A    between atoms: C_5  and  N_6 
REMARK    3  A    between atoms: C_8  and  C_12 
REMARK       I    between atoms: C_12  and  N_14 
REMARK    4  A    between atoms: N_14  and  C_15 
REMARK    5  A    between atoms: C_15  and  C_16 
REMARK    6  A    between atoms: C_16  and  C_17 
ROOT
HETATM    1  C   UNL     1     -41.344 -52.837  12.949  1.00  0.00     0.223 C 
HETATM    2  O   UNL     1     -40.151 -53.126  12.897  1.00  0.00    -0.273 OA
HETATM    3  N   UNL     1     -41.777 -51.530  13.012  1.00  0.00    -0.360 N 
HETATM    4  H   UNL     1     -42.759 -51.324  12.878  1.00  0.00     0.162 HD
ENDROOT
BRANCH   1   5
HETATM    5  C   UNL     1     -42.437 -53.889  13.039  1.00  0.00     0.104 C 
HETATM    6  C   UNL     1     -43.767 -53.318  12.548  1.00  0.00     0.140 C 
HETATM    7  N   UNL     1     -44.759 -53.765  13.492  1.00  0.00    -0.343 N 
HETATM    8  C   UNL     1     -44.197 -54.331  14.622  1.00  0.00     0.220 C 
HETATM    9  C   UNL     1     -42.704 -54.376  14.462  1.00  0.00     0.118 C 
HETATM   10  O   UNL     1     -44.809 -54.679  15.616  1.00  0.00    -0.273 OA
BRANCH   7  11
HETATM   11  C   UNL     1     -46.063 -53.101  13.591  1.00  0.00     0.243 C 
BRANCH  11  12
HETATM   12  C   UNL     1     -46.007 -51.566  13.729  1.00  0.00     0.403 C 
HETATM   13  F   UNL     1     -47.070 -51.060  14.394  1.00  0.00    -0.169 F 
HETATM   14  F   UNL     1     -45.949 -50.963  12.520  1.00  0.00    -0.169 F 
HETATM   15  F   UNL     1     -44.899 -51.194  14.416  1.00  0.00    -0.169 F 
ENDBRANCH  11  12
ENDBRANCH   7  11
ENDBRANCH   1   5
BRANCH   3  16
HETATM   16  C   UNL     1     -40.808 -50.451  12.855  1.00  0.00     0.128 C 
BRANCH  16  17
HETATM   17  C   UNL     1     -40.526 -50.121  11.395  1.00  0.00     0.076 C 
BRANCH  17  18
HETATM   18  C   UNL     1     -40.987 -48.729  11.054  1.00  0.00     0.010 A 
HETATM   19  C   UNL     1     -40.237 -47.617  11.434  1.00  0.00     0.025 A 
HETATM   20  C   UNL     1     -40.691 -46.347  11.088  1.00  0.00     0.003 A 
HETATM   21  C   UNL     1     -41.873 -46.222  10.369  1.00  0.00     0.017 A 
HETATM   22  C   UNL     1     -42.552 -47.373  10.026  1.00  0.00     0.088 A 
HETATM   23  N   UNL     1     -42.137 -48.620  10.348  1.00  0.00    -0.369 N 
ATOM     24  HN  UNL     1     -42.669 -49.444  10.070  1.00  0.00     0.165 HD
ENDBRANCH  17  18
ENDBRANCH  16  17
ENDBRANCH   3  16
TORSDOF 6
ENDMDL
MODEL 4
REMARK VINA RESULT:      -6.1      2.367      3.744
REMARK  6 active torsions:
REMARK  status: ('A' for Active; 'I' for Inactive)
REMARK    1  A    between atoms: C_2  and  C_5 
REMARK    2  A    between atoms: C_5  and  N_6 
REMARK    3  A    between atoms: C_8  and  C_12 
REMARK       I    between atoms: C_12  and  N_14 
REMARK    4  A    between atoms: N_14  and  C_15 
REMARK    5  A    between atoms: C_15  and  C_16 
REMARK    6  A    between atoms: C_16  and  C_17 
ROOT
HETATM    1  C   UNL     1     -41.814 -52.728  12.371  1.00  0.00     0.223 C 
HETATM    2  O   UNL     1     -40.606 -52.938  12.295  1.00  0.00    -0.273 OA
HETATM    3  N   UNL     1     -42.347 -51.467  12.209  1.00  0.00    -0.360 N 
HETATM    4  H   UNL     1     -43.347 -51.360  12.104  1.00  0.00     0.162 HD
ENDROOT
BRANCH   1   5
HETATM    5  C   UNL     1     -42.812 -53.814  12.737  1.00  0.00     0.104 C 
HETATM    6  C   UNL     1     -44.237 -53.347  12.443  1.00  0.00     0.140 C 
HETATM    7  N   UNL     1     -45.025 -53.750  13.579  1.00  0.00    -0.343 N 
HETATM    8  C   UNL     1     -44.246 -54.186  14.635  1.00  0.00     0.220 C 
HETATM    9  C   UNL     1     -42.802 -54.181  14.220  1.00  0.00     0.118 C 
HETATM   10  O   UNL     1     -44.658 -54.469  15.746  1.00  0.00    -0.273 OA
BRANCH   7  11
HETATM   11  C   UNL     1     -46.329 -53.136  13.851  1.00  0.00     0.243 C 
BRANCH  11  12
HETATM   12  C   UNL     1     -46.344 -51.594  13.831  1.00  0.00     0.403 C 
HETATM   13  F   UNL     1     -45.148 -51.054  14.156  1.00  0.00    -0.169 F 
HETATM   14  F   UNL     1     -47.269 -51.098  14.683  1.00  0.00    -0.169 F 
HETATM   15  F   UNL     1     -46.657 -51.141  12.592  1.00  0.00    -0.169 F 
ENDBRANCH  11  12
ENDBRANCH   7  11
ENDBRANCH   1   5
BRANCH   3  16
HETATM   16  C   UNL     1     -41.478 -50.377  11.780  1.00  0.00     0.128 C 
BRANCH  16  17
HETATM   17  C   UNL     1     -41.121 -49.426  12.915  1.00  0.00     0.076 C 
BRANCH  17  18
HETATM   18  C   UNL     1     -39.749 -49.722  13.462  1.00  0.00     0.010 A 
HETATM   19  C   UNL     1     -39.365 -49.249  14.715  1.00  0.00     0.025 A 
HETATM   20  C   UNL     1     -38.092 -49.554  15.190  1.00  0.00     0.003 A 
HETATM   21  C   UNL     1     -37.243 -50.326  14.406  1.00  0.00     0.017 A 
HETATM   22  C   UNL     1     -37.704 -50.760  13.180  1.00  0.00     0.088 A 
HETATM   23  N   UNL     1     -38.933 -50.479  12.691  1.00  0.00    -0.369 N 
ATOM     24  HN  UNL     1     -39.233 -50.824  11.780  1.00  0.00     0.165 HD
ENDBRANCH  17  18
ENDBRANCH  16  17
ENDBRANCH   3  16
TORSDOF 6
ENDMDL
MODEL 5
REMARK VINA RESULT:      -6.1      4.481      8.123
REMARK  6 active torsions:
REMARK  status: ('A' for Active; 'I' for Inactive)
REMARK    1  A    between atoms: C_2  and  C_5 
REMARK    2  A    between atoms: C_5  and  N_6 
REMARK    3  A    between atoms: C_8  and  C_12 
REMARK       I    between atoms: C_12  and  N_14 
REMARK    4  A    between atoms: N_14  and  C_15 
REMARK    5  A    between atoms: C_15  and  C_16 
REMARK    6  A    between atoms: C_16  and  C_17 
ROOT
HETATM    1  C   UNL     1     -42.016 -49.090  11.650  1.00  0.00     0.223 C 
HETATM    2  O   UNL     1     -42.856 -48.843  12.511  1.00  0.00    -0.273 OA
HETATM    3  N   UNL     1     -41.283 -50.258  11.659  1.00  0.00    -0.360 N 
HETATM    4  H   UNL     1     -40.733 -50.506  10.847  1.00  0.00     0.162 HD
ENDROOT
BRANCH   1   5
HETATM    5  C   UNL     1     -41.648 -48.100  10.558  1.00  0.00     0.104 C 
HETATM    6  C   UNL     1     -41.080 -46.820  11.170  1.00  0.00     0.140 C 
HETATM    7  N   UNL     1     -41.691 -45.733  10.448  1.00  0.00    -0.343 N 
HETATM    8  C   UNL     1     -42.730 -46.155   9.639  1.00  0.00     0.220 C 
HETATM    9  C   UNL     1     -42.837 -47.652   9.710  1.00  0.00     0.118 C 
HETATM   10  O   UNL     1     -43.482 -45.424   9.018  1.00  0.00    -0.273 OA
BRANCH   7  11
HETATM   11  C   UNL     1     -41.712 -44.375  11.000  1.00  0.00     0.243 C 
BRANCH  11  12
HETATM   12  C   UNL     1     -40.337 -43.683  11.091  1.00  0.00     0.403 C 
HETATM   13  F   UNL     1     -39.591 -44.133  12.125  1.00  0.00    -0.169 F 
HETATM   14  F   UNL     1     -40.466 -42.344  11.224  1.00  0.00    -0.169 F 
HETATM   15  F   UNL     1     -39.621 -43.907   9.962  1.00  0.00    -0.169 F 
ENDBRANCH  11  12
ENDBRANCH   7  11
ENDBRANCH   1   5
BRANCH   3  16
HETATM   16  C   UNL     1     -41.620 -51.301  12.621  1.00  0.00     0.128 C 
BRANCH  16  17
HETATM   17  C   UNL     1     -42.061 -52.598  11.955  1.00  0.00     0.076 C 
BRANCH  17  18
HETATM   18  C   UNL     1     -43.285 -53.163  12.625  1.00  0.00     0.010 A 
HETATM   19  C   UNL     1     -43.174 -54.189  13.563  1.00  0.00     0.025 A 
HETATM   20  C   UNL     1     -44.329 -54.677  14.169  1.00  0.00     0.003 A 
HETATM   21  C   UNL     1     -45.558 -54.125  13.830  1.00  0.00     0.017 A 
HETATM   22  C   UNL     1     -45.580 -53.107  12.898  1.00  0.00     0.088 A 
HETATM   23  N   UNL     1     -44.477 -52.613  12.291  1.00  0.00    -0.369 N 
ATOM     24  HN  UNL     1     -44.540 -51.858  11.610  1.00  0.00     0.165 HD
ENDBRANCH  17  18
ENDBRANCH  16  17
ENDBRANCH   3  16
TORSDOF 6
ENDMDL
MODEL 6
REMARK VINA RESULT:      -5.8      3.226      3.853
REMARK  6 active torsions:
REMARK  status: ('A' for Active; 'I' for Inactive)
REMARK    1  A    between atoms: C_2  and  C_5 
REMARK    2  A    between atoms: C_5  and  N_6 
REMARK    3  A    between atoms: C_8  and  C_12 
REMARK       I    between atoms: C_12  and  N_14 
REMARK    4  A    between atoms: N_14  and  C_15 
REMARK    5  A    between atoms: C_15  and  C_16 
REMARK    6  A    between atoms: C_16  and  C_17 
ROOT
HETATM    1  C   UNL     1     -40.872 -53.574  13.936  1.00  0.00     0.223 C 
HETATM    2  O   UNL     1     -39.770 -53.767  13.428  1.00  0.00    -0.273 OA
HETATM    3  N   UNL     1     -41.055 -52.670  14.962  1.00  0.00    -0.360 N 
HETATM    4  H   UNL     1     -41.994 -52.411  15.234  1.00  0.00     0.162 HD
ENDROOT
BRANCH   1   5
HETATM    5  C   UNL     1     -42.105 -54.372  13.546  1.00  0.00     0.104 C 
HETATM    6  C   UNL     1     -43.098 -53.484  12.797  1.00  0.00     0.140 C 
HETATM    7  N   UNL     1     -44.394 -53.801  13.337  1.00  0.00    -0.343 N 
HETATM    8  C   UNL     1     -44.316 -54.583  14.476  1.00  0.00     0.220 C 
HETATM    9  C   UNL     1     -42.878 -54.929  14.739  1.00  0.00     0.118 C 
HETATM   10  O   UNL     1     -45.256 -54.889  15.188  1.00  0.00    -0.273 OA
BRANCH   7  11
HETATM   11  C   UNL     1     -45.529 -52.887  13.168  1.00  0.00     0.243 C 
BRANCH  11  12
HETATM   12  C   UNL     1     -45.376 -51.518  13.861  1.00  0.00     0.403 C 
HETATM   13  F   UNL     1     -44.643 -51.583  14.996  1.00  0.00    -0.169 F 
HETATM   14  F   UNL     1     -46.578 -50.985  14.175  1.00  0.00    -0.169 F 
HETATM   15  F   UNL     1     -44.751 -50.640  13.040  1.00  0.00    -0.169 F 
ENDBRANCH  11  12
ENDBRANCH   7  11
ENDBRANCH   1   5
BRANCH   3  16
HETATM   16  C   UNL     1     -39.948 -51.804  15.351  1.00  0.00     0.128 C 
BRANCH  16  17
HETATM   17  C   UNL     1     -40.076 -50.395  14.787  1.00  0.00     0.076 C 
BRANCH  17  18
HETATM   18  C   UNL     1     -39.164 -50.198  13.605  1.00  0.00     0.010 A 
HETATM   19  C   UNL     1     -38.042 -51.005  13.429  1.00  0.00     0.025 A 
HETATM   20  C   UNL     1     -37.231 -50.799  12.316  1.00  0.00     0.003 A 
HETATM   21  C   UNL     1     -37.565 -49.801  11.409  1.00  0.00     0.017 A 
HETATM   22  C   UNL     1     -38.697 -49.051  11.653  1.00  0.00     0.088 A 
HETATM   23  N   UNL     1     -39.504 -49.226  12.725  1.00  0.00    -0.369 N 
ATOM     24  HN  UNL     1     -40.333 -48.651  12.864  1.00  0.00     0.165 HD
ENDBRANCH  17  18
ENDBRANCH  16  17
ENDBRANCH   3  16
TORSDOF 6
ENDMDL
MODEL 7
REMARK VINA RESULT:      -5.8      3.057      3.907
REMARK  6 active torsions:
REMARK  status: ('A' for Active; 'I' for Inactive)
REMARK    1  A    between atoms: C_2  and  C_5 
REMARK    2  A    between atoms: C_5  and  N_6 
REMARK    3  A    between atoms: C_8  and  C_12 
REMARK       I    between atoms: C_12  and  N_14 
REMARK    4  A    between atoms: N_14  and  C_15 
REMARK    5  A    between atoms: C_15  and  C_16 
REMARK    6  A    between atoms: C_16  and  C_17 
ROOT
HETATM    1  C   UNL     1     -40.637 -51.952  12.362  1.00  0.00     0.223 C 
HETATM    2  O   UNL     1     -39.742 -51.747  13.177  1.00  0.00    -0.273 OA
HETATM    3  N   UNL     1     -40.923 -51.059  11.351  1.00  0.00    -0.360 N 
HETATM    4  H   UNL     1     -41.541 -51.338  10.601  1.00  0.00     0.162 HD
ENDROOT
BRANCH   1   5
HETATM    5  C   UNL     1     -41.562 -53.155  12.447  1.00  0.00     0.104 C 
HETATM    6  C   UNL     1     -42.979 -52.711  12.808  1.00  0.00     0.140 C 
HETATM    7  N   UNL     1     -43.444 -53.646  13.800  1.00  0.00    -0.343 N 
HETATM    8  C   UNL     1     -42.431 -54.460  14.275  1.00  0.00     0.220 C 
HETATM    9  C   UNL     1     -41.163 -54.159  13.528  1.00  0.00     0.118 C 
HETATM   10  O   UNL     1     -42.534 -55.250  15.196  1.00  0.00    -0.273 OA
BRANCH   7  11
HETATM   11  C   UNL     1     -44.577 -53.323  14.672  1.00  0.00     0.243 C 
BRANCH  11  12
HETATM   12  C   UNL     1     -45.880 -54.089  14.364  1.00  0.00     0.403 C 
HETATM   13  F   UNL     1     -46.430 -54.653  15.464  1.00  0.00    -0.169 F 
HETATM   14  F   UNL     1     -45.674 -55.069  13.456  1.00  0.00    -0.169 F 
HETATM   15  F   UNL     1     -46.810 -53.250  13.846  1.00  0.00    -0.169 F 
ENDBRANCH  11  12
ENDBRANCH   7  11
ENDBRANCH   1   5
BRANCH   3  16
HETATM   16  C   UNL     1     -40.042 -49.915  11.142  1.00  0.00     0.128 C 
BRANCH  16  17
HETATM   17  C   UNL     1     -40.513 -48.667  11.876  1.00  0.00     0.076 C 
BRANCH  17  18
HETATM   18  C   UNL     1     -39.465 -48.173  12.838  1.00  0.00     0.010 A 
HETATM   19  C   UNL     1     -39.501 -46.866  13.321  1.00  0.00     0.025 A 
HETATM   20  C   UNL     1     -38.521 -46.452  14.218  1.00  0.00     0.003 A 
HETATM   21  C   UNL     1     -37.539 -47.352  14.614  1.00  0.00     0.017 A 
HETATM   22  C   UNL     1     -37.579 -48.629  14.094  1.00  0.00     0.088 A 
HETATM   23  N   UNL     1     -38.517 -49.061  13.220  1.00  0.00    -0.369 N 
ATOM     24  HN  UNL     1     -38.510 -50.016  12.864  1.00  0.00     0.165 HD
ENDBRANCH  17  18
ENDBRANCH  16  17
ENDBRANCH   3  16
TORSDOF 6
ENDMDL
MODEL 8
REMARK VINA RESULT:      -5.6      2.034      2.524
REMARK  6 active torsions:
REMARK  status: ('A' for Active; 'I' for Inactive)
REMARK    1  A    between atoms: C_2  and  C_5 
REMARK    2  A    between atoms: C_5  and  N_6 
REMARK    3  A    between atoms: C_8  and  C_12 
REMARK       I    between atoms: C_12  and  N_14 
REMARK    4  A    between atoms: N_14  and  C_15 
REMARK    5  A    between atoms: C_15  and  C_16 
REMARK    6  A    between atoms: C_16  and  C_17 
ROOT
HETATM    1  C   UNL     1     -40.962 -51.291  12.467  1.00  0.00     0.223 C 
HETATM    2  O   UNL     1     -40.751 -50.686  13.515  1.00  0.00    -0.273 OA
HETATM    3  N   UNL     1     -40.977 -50.652  11.245  1.00  0.00    -0.360 N 
HETATM    4  H   UNL     1     -40.980 -51.203  10.397  1.00  0.00     0.162 HD
ENDROOT
BRANCH   1   5
HETATM    5  C   UNL     1     -41.314 -52.769  12.432  1.00  0.00     0.104 C 
HETATM    6  C   UNL     1     -42.792 -52.956  12.089  1.00  0.00     0.140 C 
HETATM    7  N   UNL     1     -43.279 -53.971  12.987  1.00  0.00    -0.343 N 
HETATM    8  C   UNL     1     -42.376 -54.265  13.992  1.00  0.00     0.220 C 
HETATM    9  C   UNL     1     -41.115 -53.479  13.770  1.00  0.00     0.118 C 
HETATM   10  O   UNL     1     -42.591 -54.998  14.942  1.00  0.00    -0.273 OA
BRANCH   7  11
HETATM   11  C   UNL     1     -44.715 -54.132  13.239  1.00  0.00     0.243 C 
BRANCH  11  12
HETATM   12  C   UNL     1     -45.442 -52.861  13.722  1.00  0.00     0.403 C 
HETATM   13  F   UNL     1     -44.675 -52.092  14.527  1.00  0.00    -0.169 F 
HETATM   14  F   UNL     1     -46.575 -53.164  14.395  1.00  0.00    -0.169 F 
HETATM   15  F   UNL     1     -45.798 -52.090  12.665  1.00  0.00    -0.169 F 
ENDBRANCH  11  12
ENDBRANCH   7  11
ENDBRANCH   1   5
BRANCH   3  16
HETATM   16  C   UNL     1     -40.576 -49.252  11.170  1.00  0.00     0.128 C 
BRANCH  16  17
HETATM   17  C   UNL     1     -41.631 -48.371  10.515  1.00  0.00     0.076 C 
BRANCH  17  18
HETATM   18  C   UNL     1     -41.320 -46.911  10.713  1.00  0.00     0.010 A 
HETATM   19  C   UNL     1     -42.294 -46.032  11.182  1.00  0.00     0.025 A 
HETATM   20  C   UNL     1     -41.963 -44.692  11.363  1.00  0.00     0.003 A 
HETATM   21  C   UNL     1     -40.671 -44.269  11.078  1.00  0.00     0.017 A 
HETATM   22  C   UNL     1     -39.764 -45.204  10.624  1.00  0.00     0.088 A 
HETATM   23  N   UNL     1     -40.056 -46.511  10.437  1.00  0.00    -0.369 N 
ATOM     24  HN  UNL     1     -39.352 -47.169  10.102  1.00  0.00     0.165 HD
ENDBRANCH  17  18
ENDBRANCH  16  17
ENDBRANCH   3  16
TORSDOF 6
ENDMDL
MODEL 9
REMARK VINA RESULT:      -5.5      2.167      2.759
REMARK  6 active torsions:
REMARK  status: ('A' for Active; 'I' for Inactive)
REMARK    1  A    between atoms: C_2  and  C_5 
REMARK    2  A    between atoms: C_5  and  N_6 
REMARK    3  A    between atoms: C_8  and  C_12 
REMARK       I    between atoms: C_12  and  N_14 
REMARK    4  A    between atoms: N_14  and  C_15 
REMARK    5  A    between atoms: C_15  and  C_16 
REMARK    6  A    between atoms: C_16  and  C_17 
ROOT
HETATM    1  C   UNL     1     -41.954 -49.804  12.510  1.00  0.00     0.223 C 
HETATM    2  O   UNL     1     -41.201 -49.204  13.274  1.00  0.00    -0.273 OA
HETATM    3  N   UNL     1     -42.230 -49.339  11.242  1.00  0.00    -0.360 N 
HETATM    4  H   UNL     1     -42.708 -49.941  10.585  1.00  0.00     0.162 HD
ENDROOT
BRANCH   1   5
HETATM    5  C   UNL     1     -42.714 -51.053  12.924  1.00  0.00     0.104 C 
HETATM    6  C   UNL     1     -44.122 -50.688  13.393  1.00  0.00     0.140 C 
HETATM    7  N   UNL     1     -44.355 -51.465  14.583  1.00  0.00    -0.343 N 
HETATM    8  C   UNL     1     -43.205 -52.076  15.048  1.00  0.00     0.220 C 
HETATM    9  C   UNL     1     -42.077 -51.799  14.096  1.00  0.00     0.118 C 
HETATM   10  O   UNL     1     -43.106 -52.690  16.096  1.00  0.00    -0.273 OA
BRANCH   7  11
HETATM   11  C   UNL     1     -45.409 -51.097  15.533  1.00  0.00     0.243 C 
BRANCH  11  12
HETATM   12  C   UNL     1     -46.837 -51.508  15.119  1.00  0.00     0.403 C 
HETATM   13  F   UNL     1     -47.162 -51.090  13.874  1.00  0.00    -0.169 F 
HETATM   14  F   UNL     1     -47.761 -51.017  15.975  1.00  0.00    -0.169 F 
HETATM   15  F   UNL     1     -46.960 -52.857  15.125  1.00  0.00    -0.169 F 
ENDBRANCH  11  12
ENDBRANCH   7  11
ENDBRANCH   1   5
BRANCH   3  16
HETATM   16  C   UNL     1     -41.490 -48.192  10.729  1.00  0.00     0.128 C 
BRANCH  16  17
HETATM   17  C   UNL     1     -42.400 -47.094  10.194  1.00  0.00     0.076 C 
BRANCH  17  18
HETATM   18  C   UNL     1     -41.888 -45.730  10.571  1.00  0.00     0.010 A 
HETATM   19  C   UNL     1     -40.528 -45.433  10.493  1.00  0.00     0.025 A 
HETATM   20  C   UNL     1     -40.095 -44.156  10.840  1.00  0.00     0.003 A 
HETATM   21  C   UNL     1     -41.029 -43.211  11.246  1.00  0.00     0.017 A 
HETATM   22  C   UNL     1     -42.357 -43.583  11.288  1.00  0.00     0.088 A 
HETATM   23  N   UNL     1     -42.808 -44.815  10.960  1.00  0.00    -0.369 N 
ATOM     24  HN  UNL     1     -43.800 -45.046  11.003  1.00  0.00     0.165 HD
ENDBRANCH  17  18
ENDBRANCH  16  17
ENDBRANCH   3  16
TORSDOF 6
ENDMDL
