MODEL 1
REMARK VINA RESULT:      -5.2      0.000      0.000
REMARK  5 active torsions:
REMARK  status: ('A' for Active; 'I' for Inactive)
REMARK    1  A    between atoms: C_2  and  C_3 
REMARK       I    between atoms: C_2  and  N_9 
REMARK    2  A    between atoms: C_3  and  O_4 
REMARK    3  A    between atoms: O_4  and  C_5 
REMARK    4  A    between atoms: C_5  and  C_6 
REMARK    5  A    between atoms: N_9  and  C_10 
ROOT
HETATM    1  O   UNL     1     -40.434 -46.651  10.869  1.00  0.00    -0.271 OA
HETATM    2  C   UNL     1     -41.433 -47.297  10.527  1.00  0.00     0.246 C 
HETATM    3  N   UNL     1     -42.293 -46.727   9.636  1.00  0.00    -0.310 N 
HETATM    4  H   UNL     1     -41.954 -45.856   9.252  1.00  0.00     0.170 HD
ENDROOT
BRANCH   3   5
HETATM    5  C   UNL     1     -43.530 -47.206   9.196  1.00  0.00     0.123 A 
HETATM    6  C   UNL     1     -43.615 -47.780   7.930  1.00  0.00     0.136 A 
HETATM    7  N   UNL     1     -44.762 -48.290   7.416  1.00  0.00    -0.371 N 
HETATM    8  C   UNL     1     -45.840 -48.195   8.225  1.00  0.00     0.104 A 
ATOM      9  HN  UNL     1     -44.808 -48.714   6.489  1.00  0.00     0.164 HD
HETATM   10  C   UNL     1     -45.772 -47.603   9.472  1.00  0.00     0.106 A 
HETATM   11  N   UNL     1     -44.626 -47.087   9.969  1.00  0.00    -0.350 N 
ATOM     12  HN  UNL     1     -44.593 -46.631  10.881  1.00  0.00     0.166 HD
ENDBRANCH   3   5
BRANCH   2  13
HETATM   13  C   UNL     1     -41.641 -48.736  11.019  1.00  0.00     0.270 C 
BRANCH  13  14
HETATM   14  O   UNL     1     -40.570 -49.637  10.763  1.00  0.00    -0.382 OA
BRANCH  14  15
HETATM   15  C   UNL     1     -39.938 -50.098  11.953  1.00  0.00     0.172 C 
BRANCH  15  16
HETATM   16  C   UNL     1     -38.506 -49.667  11.915  1.00  0.00     0.009 A 
HETATM   17  C   UNL     1     -37.417 -50.683  12.145  1.00  0.00     0.007 A 
HETATM   18  C   UNL     1     -37.672 -49.616  13.173  1.00  0.00     0.007 A 
ENDBRANCH  15  16
ENDBRANCH  14  15
ENDBRANCH  13  14
ENDBRANCH   2  13
TORSDOF 5
ENDMDL
MODEL 2
REMARK VINA RESULT:      -5.1      2.508      6.174
REMARK  5 active torsions:
REMARK  status: ('A' for Active; 'I' for Inactive)
REMARK    1  A    between atoms: C_2  and  C_3 
REMARK       I    between atoms: C_2  and  N_9 
REMARK    2  A    between atoms: C_3  and  O_4 
REMARK    3  A    between atoms: O_4  and  C_5 
REMARK    4  A    between atoms: C_5  and  C_6 
REMARK    5  A    between atoms: N_9  and  C_10 
ROOT
HETATM    1  O   UNL     1     -41.423 -44.909   9.960  1.00  0.00    -0.271 OA
HETATM    2  C   UNL     1     -41.516 -46.023  10.492  1.00  0.00     0.246 C 
HETATM    3  N   UNL     1     -40.386 -46.586  11.006  1.00  0.00    -0.310 N 
HETATM    4  H   UNL     1     -39.588 -45.966  10.997  1.00  0.00     0.170 HD
ENDROOT
BRANCH   3   5
HETATM    5  C   UNL     1     -40.221 -47.866  11.542  1.00  0.00     0.123 A 
HETATM    6  C   UNL     1     -39.795 -47.990  12.862  1.00  0.00     0.136 A 
HETATM    7  N   UNL     1     -39.621 -49.184  13.483  1.00  0.00    -0.371 N 
HETATM    8  C   UNL     1     -39.885 -50.266  12.718  1.00  0.00     0.104 A 
ATOM      9  HN  UNL     1     -39.314 -49.259  14.452  1.00  0.00     0.164 HD
HETATM   10  C   UNL     1     -40.281 -50.154  11.399  1.00  0.00     0.106 A 
HETATM   11  N   UNL     1     -40.440 -48.959  10.788  1.00  0.00    -0.350 N 
ATOM     12  HN  UNL     1     -40.711 -48.889   9.807  1.00  0.00     0.166 HD
ENDBRANCH   3   5
BRANCH   2  13
HETATM   13  C   UNL     1     -42.883 -46.701  10.653  1.00  0.00     0.270 C 
BRANCH  13  14
HETATM   14  O   UNL     1     -43.153 -47.770   9.753  1.00  0.00    -0.382 OA
BRANCH  14  15
HETATM   15  C   UNL     1     -44.188 -47.462   8.824  1.00  0.00     0.172 C 
BRANCH  15  16
HETATM   16  C   UNL     1     -45.503 -47.664   9.509  1.00  0.00     0.009 A 
HETATM   17  C   UNL     1     -46.605 -48.405   8.797  1.00  0.00     0.007 A 
HETATM   18  C   UNL     1     -46.741 -46.930   9.054  1.00  0.00     0.007 A 
ENDBRANCH  15  16
ENDBRANCH  14  15
ENDBRANCH  13  14
ENDBRANCH   2  13
TORSDOF 5
ENDMDL
MODEL 3
REMARK VINA RESULT:      -5.0      3.657      5.892
REMARK  5 active torsions:
REMARK  status: ('A' for Active; 'I' for Inactive)
REMARK    1  A    between atoms: C_2  and  C_3 
REMARK       I    between atoms: C_2  and  N_9 
REMARK    2  A    between atoms: C_3  and  O_4 
REMARK    3  A    between atoms: O_4  and  C_5 
REMARK    4  A    between atoms: C_5  and  C_6 
REMARK    5  A    between atoms: N_9  and  C_10 
ROOT
HETATM    1  O   UNL     1     -40.541 -52.814  11.955  1.00  0.00    -0.271 OA
HETATM    2  C   UNL     1     -40.886 -51.629  12.053  1.00  0.00     0.246 C 
HETATM    3  N   UNL     1     -40.401 -50.742  11.139  1.00  0.00    -0.310 N 
HETATM    4  H   UNL     1     -39.884 -51.179  10.389  1.00  0.00     0.170 HD
ENDROOT
BRANCH   3   5
HETATM    5  C   UNL     1     -40.553 -49.353  11.114  1.00  0.00     0.123 A 
HETATM    6  C   UNL     1     -39.696 -48.570  11.883  1.00  0.00     0.136 A 
HETATM    7  N   UNL     1     -39.747 -47.215  11.915  1.00  0.00    -0.371 N 
HETATM    8  C   UNL     1     -40.709 -46.664  11.143  1.00  0.00     0.104 A 
ATOM      9  HN  UNL     1     -39.109 -46.654  12.479  1.00  0.00     0.164 HD
HETATM   10  C   UNL     1     -41.581 -47.432  10.397  1.00  0.00     0.106 A 
HETATM   11  N   UNL     1     -41.528 -48.783  10.382  1.00  0.00    -0.350 N 
ATOM     12  HN  UNL     1     -42.193 -49.341   9.845  1.00  0.00     0.166 HD
ENDBRANCH   3   5
BRANCH   2  13
HETATM   13  C   UNL     1     -41.908 -51.197  13.112  1.00  0.00     0.270 C 
BRANCH  13  14
HETATM   14  O   UNL     1     -43.259 -51.560  12.853  1.00  0.00    -0.382 OA
BRANCH  14  15
HETATM   15  C   UNL     1     -44.174 -50.992  13.786  1.00  0.00     0.172 C 
BRANCH  15  16
HETATM   16  C   UNL     1     -45.376 -51.880  13.858  1.00  0.00     0.009 A 
HETATM   17  C   UNL     1     -46.548 -51.620  12.948  1.00  0.00     0.007 A 
HETATM   18  C   UNL     1     -46.682 -51.381  14.427  1.00  0.00     0.007 A 
ENDBRANCH  15  16
ENDBRANCH  14  15
ENDBRANCH  13  14
ENDBRANCH   2  13
TORSDOF 5
ENDMDL
MODEL 4
REMARK VINA RESULT:      -5.0      5.317      7.294
REMARK  5 active torsions:
REMARK  status: ('A' for Active; 'I' for Inactive)
REMARK    1  A    between atoms: C_2  and  C_3 
REMARK       I    between atoms: C_2  and  N_9 
REMARK    2  A    between atoms: C_3  and  O_4 
REMARK    3  A    between atoms: O_4  and  C_5 
REMARK    4  A    between atoms: C_5  and  C_6 
REMARK    5  A    between atoms: N_9  and  C_10 
ROOT
HETATM    1  O   UNL     1     -44.633 -54.532  12.637  1.00  0.00    -0.271 OA
HETATM    2  C   UNL     1     -43.749 -53.723  12.952  1.00  0.00     0.246 C 
HETATM    3  N   UNL     1     -43.239 -52.918  11.978  1.00  0.00    -0.310 N 
HETATM    4  H   UNL     1     -43.730 -52.991  11.098  1.00  0.00     0.170 HD
ENDROOT
BRANCH   3   5
HETATM    5  C   UNL     1     -42.169 -52.023  12.064  1.00  0.00     0.123 A 
HETATM    6  C   UNL     1     -40.878 -52.530  12.184  1.00  0.00     0.136 A 
HETATM    7  N   UNL     1     -39.771 -51.748  12.256  1.00  0.00    -0.371 N 
HETATM    8  C   UNL     1     -40.010 -50.419  12.212  1.00  0.00     0.104 A 
ATOM      9  HN  UNL     1     -38.831 -52.134  12.338  1.00  0.00     0.164 HD
HETATM   10  C   UNL     1     -41.289 -49.906  12.120  1.00  0.00     0.106 A 
HETATM   11  N   UNL     1     -42.386 -50.694  12.060  1.00  0.00    -0.350 N 
ATOM     12  HN  UNL     1     -43.327 -50.303  12.016  1.00  0.00     0.166 HD
ENDBRANCH   3   5
BRANCH   2  13
HETATM   13  C   UNL     1     -43.315 -53.569  14.415  1.00  0.00     0.270 C 
BRANCH  13  14
HETATM   14  O   UNL     1     -44.282 -53.001  15.291  1.00  0.00    -0.382 OA
BRANCH  14  15
HETATM   15  C   UNL     1     -44.476 -51.608  15.072  1.00  0.00     0.172 C 
BRANCH  15  16
HETATM   16  C   UNL     1     -45.945 -51.357  14.944  1.00  0.00     0.009 A 
HETATM   17  C   UNL     1     -46.876 -52.510  14.675  1.00  0.00     0.007 A 
HETATM   18  C   UNL     1     -46.645 -51.474  13.610  1.00  0.00     0.007 A 
ENDBRANCH  15  16
ENDBRANCH  14  15
ENDBRANCH  13  14
ENDBRANCH   2  13
TORSDOF 5
ENDMDL
MODEL 5
REMARK VINA RESULT:      -4.9      2.789      5.951
REMARK  5 active torsions:
REMARK  status: ('A' for Active; 'I' for Inactive)
REMARK    1  A    between atoms: C_2  and  C_3 
REMARK       I    between atoms: C_2  and  N_9 
REMARK    2  A    between atoms: C_3  and  O_4 
REMARK    3  A    between atoms: O_4  and  C_5 
REMARK    4  A    between atoms: C_5  and  C_6 
REMARK    5  A    between atoms: N_9  and  C_10 
ROOT
HETATM    1  O   UNL     1     -41.043 -46.452  10.471  1.00  0.00    -0.271 OA
HETATM    2  C   UNL     1     -41.639 -47.521  10.657  1.00  0.00     0.246 C 
HETATM    3  N   UNL     1     -41.095 -48.416  11.529  1.00  0.00    -0.310 N 
HETATM    4  H   UNL     1     -40.297 -48.054  12.032  1.00  0.00     0.170 HD
ENDROOT
BRANCH   3   5
HETATM    5  C   UNL     1     -41.516 -49.719  11.811  1.00  0.00     0.123 A 
HETATM    6  C   UNL     1     -42.649 -49.902  12.599  1.00  0.00     0.136 A 
HETATM    7  N   UNL     1     -43.151 -51.123  12.915  1.00  0.00    -0.371 N 
HETATM    8  C   UNL     1     -42.459 -52.169  12.413  1.00  0.00     0.104 A 
ATOM      9  HN  UNL     1     -43.985 -51.241  13.489  1.00  0.00     0.164 HD
HETATM   10  C   UNL     1     -41.318 -51.998  11.653  1.00  0.00     0.106 A 
HETATM   11  N   UNL     1     -40.821 -50.778  11.354  1.00  0.00    -0.350 N 
ATOM     12  HN  UNL     1     -39.965 -50.665  10.811  1.00  0.00     0.166 HD
ENDBRANCH   3   5
BRANCH   2  13
HETATM   13  C   UNL     1     -42.999 -47.783   9.998  1.00  0.00     0.270 C 
BRANCH  13  14
HETATM   14  O   UNL     1     -43.020 -47.721   8.577  1.00  0.00    -0.382 OA
BRANCH  14  15
HETATM   15  C   UNL     1     -44.332 -47.837   8.037  1.00  0.00     0.172 C 
BRANCH  15  16
HETATM   16  C   UNL     1     -45.309 -47.762   9.168  1.00  0.00     0.009 A 
HETATM   17  C   UNL     1     -46.658 -48.419   9.031  1.00  0.00     0.007 A 
HETATM   18  C   UNL     1     -46.558 -46.920   9.066  1.00  0.00     0.007 A 
ENDBRANCH  15  16
ENDBRANCH  14  15
ENDBRANCH  13  14
ENDBRANCH   2  13
TORSDOF 5
ENDMDL
MODEL 6
REMARK VINA RESULT:      -4.9      6.432      8.206
REMARK  5 active torsions:
REMARK  status: ('A' for Active; 'I' for Inactive)
REMARK    1  A    between atoms: C_2  and  C_3 
REMARK       I    between atoms: C_2  and  N_9 
REMARK    2  A    between atoms: C_3  and  O_4 
REMARK    3  A    between atoms: O_4  and  C_5 
REMARK    4  A    between atoms: C_5  and  C_6 
REMARK    5  A    between atoms: N_9  and  C_10 
ROOT
HETATM    1  O   UNL     1     -43.125 -55.898  15.629  1.00  0.00    -0.271 OA
HETATM    2  C   UNL     1     -43.133 -54.985  14.793  1.00  0.00     0.246 C 
HETATM    3  N   UNL     1     -41.946 -54.401  14.466  1.00  0.00    -0.310 N 
HETATM    4  H   UNL     1     -41.145 -54.866  14.871  1.00  0.00     0.170 HD
ENDROOT
BRANCH   3   5
HETATM    5  C   UNL     1     -41.720 -53.291  13.648  1.00  0.00     0.123 A 
HETATM    6  C   UNL     1     -41.320 -53.498  12.331  1.00  0.00     0.136 A 
HETATM    7  N   UNL     1     -41.092 -52.491  11.451  1.00  0.00    -0.371 N 
HETATM    8  C   UNL     1     -41.275 -51.249  11.949  1.00  0.00     0.104 A 
ATOM      9  HN  UNL     1     -40.805 -52.658  10.487  1.00  0.00     0.164 HD
HETATM   10  C   UNL     1     -41.646 -51.031  13.262  1.00  0.00     0.106 A 
HETATM   11  N   UNL     1     -41.858 -52.043  14.133  1.00  0.00    -0.350 N 
ATOM     12  HN  UNL     1     -42.110 -51.869  15.107  1.00  0.00     0.166 HD
ENDBRANCH   3   5
BRANCH   2  13
HETATM   13  C   UNL     1     -44.432 -54.592  14.077  1.00  0.00     0.270 C 
BRANCH  13  14
HETATM   14  O   UNL     1     -45.638 -54.961  14.736  1.00  0.00    -0.382 OA
BRANCH  14  15
HETATM   15  C   UNL     1     -46.607 -53.918  14.741  1.00  0.00     0.172 C 
BRANCH  15  16
HETATM   16  C   UNL     1     -45.912 -52.636  14.409  1.00  0.00     0.009 A 
HETATM   17  C   UNL     1     -46.420 -51.342  14.991  1.00  0.00     0.007 A 
HETATM   18  C   UNL     1     -46.561 -51.604  13.518  1.00  0.00     0.007 A 
ENDBRANCH  15  16
ENDBRANCH  14  15
ENDBRANCH  13  14
ENDBRANCH   2  13
TORSDOF 5
ENDMDL
MODEL 7
REMARK VINA RESULT:      -4.8      6.413      8.070
REMARK  5 active torsions:
REMARK  status: ('A' for Active; 'I' for Inactive)
REMARK    1  A    between atoms: C_2  and  C_3 
REMARK       I    between atoms: C_2  and  N_9 
REMARK    2  A    between atoms: C_3  and  O_4 
REMARK    3  A    between atoms: O_4  and  C_5 
REMARK    4  A    between atoms: C_5  and  C_6 
REMARK    5  A    between atoms: N_9  and  C_10 
ROOT
HETATM    1  O   UNL     1     -45.618 -55.576  13.985  1.00  0.00    -0.271 OA
HETATM    2  C   UNL     1     -44.716 -54.728  14.005  1.00  0.00     0.246 C 
HETATM    3  N   UNL     1     -44.550 -53.940  12.905  1.00  0.00    -0.310 N 
HETATM    4  H   UNL     1     -45.275 -54.061  12.211  1.00  0.00     0.170 HD
ENDROOT
BRANCH   3   5
HETATM    5  C   UNL     1     -43.542 -53.007  12.650  1.00  0.00     0.123 A 
HETATM    6  C   UNL     1     -43.808 -51.657  12.866  1.00  0.00     0.136 A 
HETATM    7  N   UNL     1     -42.894 -50.674  12.667  1.00  0.00    -0.371 N 
HETATM    8  C   UNL     1     -41.689 -51.098  12.229  1.00  0.00     0.104 A 
ATOM      9  HN  UNL     1     -43.101 -49.690  12.836  1.00  0.00     0.164 HD
HETATM   10  C   UNL     1     -41.424 -52.432  11.985  1.00  0.00     0.106 A 
HETATM   11  N   UNL     1     -42.346 -53.402  12.175  1.00  0.00    -0.350 N 
ATOM     12  HN  UNL     1     -42.146 -54.381  11.969  1.00  0.00     0.166 HD
ENDBRANCH   3   5
BRANCH   2  13
HETATM   13  C   UNL     1     -43.878 -54.507  15.271  1.00  0.00     0.270 C 
BRANCH  13  14
HETATM   14  O   UNL     1     -44.135 -53.301  15.981  1.00  0.00    -0.382 OA
BRANCH  14  15
HETATM   15  C   UNL     1     -45.502 -53.161  16.355  1.00  0.00     0.172 C 
BRANCH  15  16
HETATM   16  C   UNL     1     -45.956 -51.792  15.954  1.00  0.00     0.009 A 
HETATM   17  C   UNL     1     -47.395 -51.397  16.156  1.00  0.00     0.007 A 
HETATM   18  C   UNL     1     -46.862 -51.588  14.764  1.00  0.00     0.007 A 
ENDBRANCH  15  16
ENDBRANCH  14  15
ENDBRANCH  13  14
ENDBRANCH   2  13
TORSDOF 5
ENDMDL
MODEL 8
REMARK VINA RESULT:      -4.6      2.741      4.036
REMARK  5 active torsions:
REMARK  status: ('A' for Active; 'I' for Inactive)
REMARK    1  A    between atoms: C_2  and  C_3 
REMARK       I    between atoms: C_2  and  N_9 
REMARK    2  A    between atoms: C_3  and  O_4 
REMARK    3  A    between atoms: O_4  and  C_5 
REMARK    4  A    between atoms: C_5  and  C_6 
REMARK    5  A    between atoms: N_9  and  C_10 
ROOT
HETATM    1  O   UNL     1     -39.773 -49.028  12.162  1.00  0.00    -0.271 OA
HETATM    2  C   UNL     1     -40.879 -48.826  11.641  1.00  0.00     0.246 C 
HETATM    3  N   UNL     1     -40.960 -47.902  10.643  1.00  0.00    -0.310 N 
HETATM    4  H   UNL     1     -40.060 -47.549  10.348  1.00  0.00     0.170 HD
ENDROOT
BRANCH   3   5
HETATM    5  C   UNL     1     -42.101 -47.425   9.993  1.00  0.00     0.123 A 
HETATM    6  C   UNL     1     -42.678 -46.238  10.435  1.00  0.00     0.136 A 
HETATM    7  N   UNL     1     -43.775 -45.680   9.863  1.00  0.00    -0.371 N 
HETATM    8  C   UNL     1     -44.285 -46.371   8.820  1.00  0.00     0.104 A 
ATOM      9  HN  UNL     1     -44.183 -44.806  10.195  1.00  0.00     0.164 HD
HETATM   10  C   UNL     1     -43.737 -47.563   8.391  1.00  0.00     0.106 A 
HETATM   11  N   UNL     1     -42.651 -48.116   8.976  1.00  0.00    -0.350 N 
ATOM     12  HN  UNL     1     -42.268 -49.009   8.665  1.00  0.00     0.166 HD
ENDBRANCH   3   5
BRANCH   2  13
HETATM   13  C   UNL     1     -42.098 -49.666  12.045  1.00  0.00     0.270 C 
BRANCH  13  14
HETATM   14  O   UNL     1     -41.828 -50.789  12.876  1.00  0.00    -0.382 OA
BRANCH  14  15
HETATM   15  C   UNL     1     -42.959 -51.636  13.046  1.00  0.00     0.172 C 
BRANCH  15  16
HETATM   16  C   UNL     1     -44.139 -50.777  13.375  1.00  0.00     0.009 A 
HETATM   17  C   UNL     1     -44.950 -51.070  14.610  1.00  0.00     0.007 A 
HETATM   18  C   UNL     1     -45.549 -51.305  13.251  1.00  0.00     0.007 A 
ENDBRANCH  15  16
ENDBRANCH  14  15
ENDBRANCH  13  14
ENDBRANCH   2  13
TORSDOF 5
ENDMDL
MODEL 9
REMARK VINA RESULT:      -4.6      3.479      4.986
REMARK  5 active torsions:
REMARK  status: ('A' for Active; 'I' for Inactive)
REMARK    1  A    between atoms: C_2  and  C_3 
REMARK       I    between atoms: C_2  and  N_9 
REMARK    2  A    between atoms: C_3  and  O_4 
REMARK    3  A    between atoms: O_4  and  C_5 
REMARK    4  A    between atoms: C_5  and  C_6 
REMARK    5  A    between atoms: N_9  and  C_10 
ROOT
HETATM    1  O   UNL     1     -39.449 -51.275  12.004  1.00  0.00    -0.271 OA
HETATM    2  C   UNL     1     -40.445 -50.567  11.803  1.00  0.00     0.246 C 
HETATM    3  N   UNL     1     -40.295 -49.451  11.034  1.00  0.00    -0.310 N 
HETATM    4  H   UNL     1     -39.384 -49.379  10.604  1.00  0.00     0.170 HD
ENDROOT
BRANCH   3   5
HETATM    5  C   UNL     1     -41.232 -48.449  10.767  1.00  0.00     0.123 A 
HETATM    6  C   UNL     1     -41.402 -47.426  11.696  1.00  0.00     0.136 A 
HETATM    7  N   UNL     1     -42.270 -46.397  11.525  1.00  0.00    -0.371 N 
HETATM    8  C   UNL     1     -42.979 -46.437  10.375  1.00  0.00     0.104 A 
ATOM      9  HN  UNL     1     -42.380 -45.651  12.211  1.00  0.00     0.164 HD
HETATM   10  C   UNL     1     -42.838 -47.463   9.461  1.00  0.00     0.106 A 
HETATM   11  N   UNL     1     -41.978 -48.489   9.647  1.00  0.00    -0.350 N 
ATOM     12  HN  UNL     1     -41.899 -49.253   8.976  1.00  0.00     0.166 HD
ENDBRANCH   3   5
BRANCH   2  13
HETATM   13  C   UNL     1     -41.824 -50.990  12.325  1.00  0.00     0.270 C 
BRANCH  13  14
HETATM   14  O   UNL     1     -42.212 -52.327  12.032  1.00  0.00    -0.382 OA
BRANCH  14  15
HETATM   15  C   UNL     1     -42.898 -52.953  13.112  1.00  0.00     0.172 C 
BRANCH  15  16
HETATM   16  C   UNL     1     -44.104 -53.644  12.559  1.00  0.00     0.009 A 
HETATM   17  C   UNL     1     -45.476 -53.239  13.032  1.00  0.00     0.007 A 
HETATM   18  C   UNL     1     -44.923 -54.586  13.408  1.00  0.00     0.007 A 
ENDBRANCH  15  16
ENDBRANCH  14  15
ENDBRANCH  13  14
ENDBRANCH   2  13
TORSDOF 5
ENDMDL
