MODEL 1
REMARK VINA RESULT:      -6.1      0.000      0.000
REMARK  5 active torsions:
REMARK  status: ('A' for Active; 'I' for Inactive)
REMARK    1  A    between atoms: C_2  and  C_3 
REMARK    2  A    between atoms: C_9  and  N_10 
REMARK       I    between atoms: N_10  and  C_11 
REMARK       I    between atoms: C_11  and  N_13 
REMARK    3  A    between atoms: N_13  and  C_14 
REMARK    4  A    between atoms: C_14  and  C_15 
REMARK    5  A    between atoms: C_15  and  O_19 
ROOT
HETATM    1  N   UNL     1     -41.851 -50.241  11.399  1.00  0.00    -0.306 N 
HETATM    2  C   UNL     1     -42.347 -50.756  12.578  1.00  0.00     0.320 C 
HETATM    3  O   UNL     1     -42.248 -50.239  13.689  1.00  0.00    -0.247 OA
HETATM    4  N   UNL     1     -43.036 -51.948  12.402  1.00  0.00    -0.340 N 
HETATM    5  H   UNL     1     -42.140 -50.676  10.537  1.00  0.00     0.171 HD
HETATM    6  H   UNL     1     -42.642 -52.588  11.726  1.00  0.00     0.164 HD
ENDROOT
BRANCH   1   7
HETATM    7  C   UNL     1     -41.124 -49.057  11.312  1.00  0.00     0.077 A 
HETATM    8  C   UNL     1     -39.757 -48.814  11.644  1.00  0.00     0.053 A 
HETATM    9  N   UNL     1     -39.406 -47.542  11.418  1.00  0.00    -0.301 N 
HETATM   10  N   UNL     1     -40.527 -46.976  10.946  1.00  0.00    -0.305 N 
ATOM     11  HN  UNL     1     -38.497 -47.104  11.570  1.00  0.00     0.187 HD
HETATM   12  C   UNL     1     -40.538 -45.590  10.547  1.00  0.00     0.177 C 
HETATM   13  C   UNL     1     -41.578 -47.833  10.878  1.00  0.00     0.141 A 
BRANCH   8  14
HETATM   14  C   UNL     1     -38.727 -49.756  12.176  1.00  0.00     0.056 C 
HETATM   15  C   UNL     1     -37.516 -49.867  11.263  1.00  0.00     0.011 C 
ENDBRANCH   8  14
ENDBRANCH   1   7
BRANCH   4  16
HETATM   16  C   UNL     1     -43.566 -52.562  13.614  1.00  0.00     0.162 C 
BRANCH  16  17
HETATM   17  C   UNL     1     -45.096 -52.667  13.552  1.00  0.00     0.076 C 
HETATM   18  C   UNL     1     -45.857 -51.421  13.012  1.00  0.00     0.040 C 
HETATM   19  C   UNL     1     -46.776 -51.490  14.250  1.00  0.00     0.006 C 
HETATM   20  C   UNL     1     -45.695 -52.325  14.953  1.00  0.00     0.040 C 
BRANCH  17  21
HETATM   21  O   UNL     1     -45.436 -53.956  12.958  1.00  0.00    -0.383 OA
HETATM   22  C   UNL     1     -45.488 -55.116  13.777  1.00  0.00     0.202 C 
ENDBRANCH  17  21
ENDBRANCH  16  17
ENDBRANCH   4  16
TORSDOF 5
ENDMDL
MODEL 2
REMARK VINA RESULT:      -6.0      1.729      2.717
REMARK  5 active torsions:
REMARK  status: ('A' for Active; 'I' for Inactive)
REMARK    1  A    between atoms: C_2  and  C_3 
REMARK    2  A    between atoms: C_9  and  N_10 
REMARK       I    between atoms: N_10  and  C_11 
REMARK       I    between atoms: C_11  and  N_13 
REMARK    3  A    between atoms: N_13  and  C_14 
REMARK    4  A    between atoms: C_14  and  C_15 
REMARK    5  A    between atoms: C_15  and  O_19 
ROOT
HETATM    1  N   UNL     1     -42.250 -49.296  11.287  1.00  0.00    -0.306 N 
HETATM    2  C   UNL     1     -42.693 -49.521  12.573  1.00  0.00     0.320 C 
HETATM    3  O   UNL     1     -42.854 -48.665  13.440  1.00  0.00    -0.247 OA
HETATM    4  N   UNL     1     -42.994 -50.853  12.818  1.00  0.00    -0.340 N 
HETATM    5  H   UNL     1     -42.318 -50.054  10.626  1.00  0.00     0.171 HD
HETATM    6  H   UNL     1     -42.370 -51.530  12.398  1.00  0.00     0.164 HD
ENDROOT
BRANCH   1   7
HETATM    7  C   UNL     1     -41.884 -48.045  10.798  1.00  0.00     0.077 A 
HETATM    8  C   UNL     1     -42.549 -47.223   9.838  1.00  0.00     0.053 A 
HETATM    9  N   UNL     1     -41.895 -46.074   9.625  1.00  0.00    -0.301 N 
HETATM   10  N   UNL     1     -40.829 -46.153  10.436  1.00  0.00    -0.305 N 
ATOM     11  HN  UNL     1     -42.148 -45.315   8.992  1.00  0.00     0.187 HD
HETATM   12  C   UNL     1     -39.884 -45.066  10.515  1.00  0.00     0.177 C 
HETATM   13  C   UNL     1     -40.772 -47.312  11.143  1.00  0.00     0.141 A 
BRANCH   8  14
HETATM   14  C   UNL     1     -43.817 -47.474   9.091  1.00  0.00     0.056 C 
HETATM   15  C   UNL     1     -43.569 -47.911   7.656  1.00  0.00     0.011 C 
ENDBRANCH   8  14
ENDBRANCH   1   7
BRANCH   4  16
HETATM   16  C   UNL     1     -43.445 -51.166  14.169  1.00  0.00     0.162 C 
BRANCH  16  17
HETATM   17  C   UNL     1     -44.770 -51.938  14.141  1.00  0.00     0.076 C 
HETATM   18  C   UNL     1     -45.801 -51.510  13.056  1.00  0.00     0.040 C 
HETATM   19  C   UNL     1     -46.877 -51.433  14.158  1.00  0.00     0.006 C 
HETATM   20  C   UNL     1     -45.747 -51.327  15.195  1.00  0.00     0.040 C 
BRANCH  17  21
HETATM   21  O   UNL     1     -44.465 -53.362  14.235  1.00  0.00    -0.383 OA
HETATM   22  C   UNL     1     -44.595 -54.187  13.086  1.00  0.00     0.202 C 
ENDBRANCH  17  21
ENDBRANCH  16  17
ENDBRANCH   4  16
TORSDOF 5
ENDMDL
MODEL 3
REMARK VINA RESULT:      -6.0      3.565      5.276
REMARK  5 active torsions:
REMARK  status: ('A' for Active; 'I' for Inactive)
REMARK    1  A    between atoms: C_2  and  C_3 
REMARK    2  A    between atoms: C_9  and  N_10 
REMARK       I    between atoms: N_10  and  C_11 
REMARK       I    between atoms: C_11  and  N_13 
REMARK    3  A    between atoms: N_13  and  C_14 
REMARK    4  A    between atoms: C_14  and  C_15 
REMARK    5  A    between atoms: C_15  and  O_19 
ROOT
HETATM    1  N   UNL     1     -41.173 -47.817  10.233  1.00  0.00    -0.306 N 
HETATM    2  C   UNL     1     -41.368 -48.892  11.072  1.00  0.00     0.320 C 
HETATM    3  O   UNL     1     -42.260 -49.001  11.911  1.00  0.00    -0.247 OA
HETATM    4  N   UNL     1     -40.454 -49.915  10.864  1.00  0.00    -0.340 N 
HETATM    5  H   UNL     1     -40.511 -47.919   9.481  1.00  0.00     0.171 HD
HETATM    6  H   UNL     1     -39.506 -49.625  10.666  1.00  0.00     0.164 HD
ENDROOT
BRANCH   1   7
HETATM    7  C   UNL     1     -41.958 -46.666  10.248  1.00  0.00     0.077 A 
HETATM    8  C   UNL     1     -43.256 -46.455   9.693  1.00  0.00     0.053 A 
HETATM    9  N   UNL     1     -43.699 -45.211   9.915  1.00  0.00    -0.301 N 
HETATM   10  N   UNL     1     -42.704 -44.632  10.605  1.00  0.00    -0.305 N 
ATOM     11  HN  UNL     1     -44.586 -44.799   9.628  1.00  0.00     0.187 HD
HETATM   12  C   UNL     1     -42.825 -43.270  11.066  1.00  0.00     0.177 C 
HETATM   13  C   UNL     1     -41.642 -45.453  10.814  1.00  0.00     0.141 A 
BRANCH   8  14
HETATM   14  C   UNL     1     -44.134 -47.403   8.943  1.00  0.00     0.056 C 
HETATM   15  C   UNL     1     -43.508 -47.860   7.634  1.00  0.00     0.011 C 
ENDBRANCH   8  14
ENDBRANCH   1   7
BRANCH   4  16
HETATM   16  C   UNL     1     -40.587 -51.076  11.737  1.00  0.00     0.162 C 
BRANCH  16  17
HETATM   17  C   UNL     1     -39.401 -51.174  12.706  1.00  0.00     0.076 C 
HETATM   18  C   UNL     1     -39.292 -50.055  13.784  1.00  0.00     0.040 C 
HETATM   19  C   UNL     1     -37.817 -49.857  13.378  1.00  0.00     0.006 C 
HETATM   20  C   UNL     1     -38.137 -50.544  12.041  1.00  0.00     0.040 C 
BRANCH  17  21
HETATM   21  O   UNL     1     -39.314 -52.553  13.175  1.00  0.00    -0.383 OA
HETATM   22  C   UNL     1     -40.464 -53.384  13.130  1.00  0.00     0.202 C 
ENDBRANCH  17  21
ENDBRANCH  16  17
ENDBRANCH   4  16
TORSDOF 5
ENDMDL
MODEL 4
REMARK VINA RESULT:      -5.8      3.885      5.520
REMARK  5 active torsions:
REMARK  status: ('A' for Active; 'I' for Inactive)
REMARK    1  A    between atoms: C_2  and  C_3 
REMARK    2  A    between atoms: C_9  and  N_10 
REMARK       I    between atoms: N_10  and  C_11 
REMARK       I    between atoms: C_11  and  N_13 
REMARK    3  A    between atoms: N_13  and  C_14 
REMARK    4  A    between atoms: C_14  and  C_15 
REMARK    5  A    between atoms: C_15  and  O_19 
ROOT
HETATM    1  N   UNL     1     -41.571 -48.370   9.863  1.00  0.00    -0.306 N 
HETATM    2  C   UNL     1     -41.462 -49.241  10.927  1.00  0.00     0.320 C 
HETATM    3  O   UNL     1     -42.245 -49.328  11.871  1.00  0.00    -0.247 OA
HETATM    4  N   UNL     1     -40.364 -50.082  10.829  1.00  0.00    -0.340 N 
HETATM    5  H   UNL     1     -40.958 -48.510   9.076  1.00  0.00     0.171 HD
HETATM    6  H   UNL     1     -39.520 -49.664  10.462  1.00  0.00     0.164 HD
ENDROOT
BRANCH   1   7
HETATM    7  C   UNL     1     -42.586 -47.426   9.731  1.00  0.00     0.077 A 
HETATM    8  C   UNL     1     -42.588 -46.048  10.104  1.00  0.00     0.053 A 
HETATM    9  N   UNL     1     -43.751 -45.453   9.811  1.00  0.00    -0.301 N 
HETATM   10  N   UNL     1     -44.484 -46.430   9.257  1.00  0.00    -0.305 N 
ATOM     11  HN  UNL     1     -44.018 -44.481   9.972  1.00  0.00     0.187 HD
HETATM   12  C   UNL     1     -45.816 -46.163   8.770  1.00  0.00     0.177 C 
HETATM   13  C   UNL     1     -43.840 -47.624   9.200  1.00  0.00     0.141 A 
BRANCH   8  14
HETATM   14  C   UNL     1     -41.507 -45.235  10.737  1.00  0.00     0.056 C 
HETATM   15  C   UNL     1     -41.263 -45.624  12.187  1.00  0.00     0.011 C 
ENDBRANCH   8  14
ENDBRANCH   1   7
BRANCH   4  16
HETATM   16  C   UNL     1     -40.174 -51.014  11.935  1.00  0.00     0.162 C 
BRANCH  16  17
HETATM   17  C   UNL     1     -38.914 -50.664  12.738  1.00  0.00     0.076 C 
HETATM   18  C   UNL     1     -39.059 -49.536  13.802  1.00  0.00     0.040 C 
HETATM   19  C   UNL     1     -37.806 -48.862  13.207  1.00  0.00     0.006 C 
HETATM   20  C   UNL     1     -38.038 -49.666  11.918  1.00  0.00     0.040 C 
BRANCH  17  21
HETATM   21  O   UNL     1     -38.300 -51.912  13.180  1.00  0.00    -0.383 OA
HETATM   22  C   UNL     1     -38.931 -52.687  14.189  1.00  0.00     0.202 C 
ENDBRANCH  17  21
ENDBRANCH  16  17
ENDBRANCH   4  16
TORSDOF 5
ENDMDL
MODEL 5
REMARK VINA RESULT:      -5.6      2.597      6.497
REMARK  5 active torsions:
REMARK  status: ('A' for Active; 'I' for Inactive)
REMARK    1  A    between atoms: C_2  and  C_3 
REMARK    2  A    between atoms: C_9  and  N_10 
REMARK       I    between atoms: N_10  and  C_11 
REMARK       I    between atoms: C_11  and  N_13 
REMARK    3  A    between atoms: N_13  and  C_14 
REMARK    4  A    between atoms: C_14  and  C_15 
REMARK    5  A    between atoms: C_15  and  O_19 
ROOT
HETATM    1  N   UNL     1     -41.096 -51.369  11.384  1.00  0.00    -0.306 N 
HETATM    2  C   UNL     1     -41.124 -50.025  11.692  1.00  0.00     0.320 C 
HETATM    3  O   UNL     1     -41.125 -49.544  12.823  1.00  0.00    -0.247 OA
HETATM    4  N   UNL     1     -41.114 -49.211  10.568  1.00  0.00    -0.340 N 
HETATM    5  H   UNL     1     -40.933 -51.629  10.425  1.00  0.00     0.171 HD
HETATM    6  H   UNL     1     -41.662 -49.536   9.784  1.00  0.00     0.164 HD
ENDROOT
BRANCH   1   7
HETATM    7  C   UNL     1     -41.102 -52.385  12.335  1.00  0.00     0.077 A 
HETATM    8  C   UNL     1     -42.194 -53.178  12.799  1.00  0.00     0.053 A 
HETATM    9  N   UNL     1     -41.809 -54.070  13.722  1.00  0.00    -0.301 N 
HETATM   10  N   UNL     1     -40.491 -53.856  13.847  1.00  0.00    -0.305 N 
ATOM     11  HN  UNL     1     -42.385 -54.752  14.215  1.00  0.00     0.187 HD
HETATM   12  C   UNL     1     -39.698 -54.663  14.743  1.00  0.00     0.177 C 
HETATM   13  C   UNL     1     -40.027 -52.856  13.054  1.00  0.00     0.141 A 
BRANCH   8  14
HETATM   14  C   UNL     1     -43.632 -53.141  12.397  1.00  0.00     0.056 C 
HETATM   15  C   UNL     1     -44.458 -54.208  13.099  1.00  0.00     0.011 C 
ENDBRANCH   8  14
ENDBRANCH   1   7
BRANCH   4  16
HETATM   16  C   UNL     1     -41.167 -47.776  10.821  1.00  0.00     0.162 C 
BRANCH  16  17
HETATM   17  C   UNL     1     -42.561 -47.215  10.512  1.00  0.00     0.076 C 
HETATM   18  C   UNL     1     -43.209 -47.664   9.169  1.00  0.00     0.040 C 
HETATM   19  C   UNL     1     -43.501 -46.182   8.855  1.00  0.00     0.006 C 
HETATM   20  C   UNL     1     -42.418 -45.796   9.875  1.00  0.00     0.040 C 
BRANCH  17  21
HETATM   21  O   UNL     1     -43.378 -47.346  11.714  1.00  0.00    -0.383 OA
HETATM   22  C   UNL     1     -43.027 -46.624  12.885  1.00  0.00     0.202 C 
ENDBRANCH  17  21
ENDBRANCH  16  17
ENDBRANCH   4  16
TORSDOF 5
ENDMDL
MODEL 6
REMARK VINA RESULT:      -5.5      1.999      3.463
REMARK  5 active torsions:
REMARK  status: ('A' for Active; 'I' for Inactive)
REMARK    1  A    between atoms: C_2  and  C_3 
REMARK    2  A    between atoms: C_9  and  N_10 
REMARK       I    between atoms: N_10  and  C_11 
REMARK       I    between atoms: C_11  and  N_13 
REMARK    3  A    between atoms: N_13  and  C_14 
REMARK    4  A    between atoms: C_14  and  C_15 
REMARK    5  A    between atoms: C_15  and  O_19 
ROOT
HETATM    1  N   UNL     1     -41.664 -49.420  10.989  1.00  0.00    -0.306 N 
HETATM    2  C   UNL     1     -42.392 -49.897  12.058  1.00  0.00     0.320 C 
HETATM    3  O   UNL     1     -43.005 -49.214  12.876  1.00  0.00    -0.247 OA
HETATM    4  N   UNL     1     -42.411 -51.283  12.126  1.00  0.00    -0.340 N 
HETATM    5  H   UNL     1     -41.347 -50.084  10.301  1.00  0.00     0.171 HD
HETATM    6  H   UNL     1     -41.545 -51.747  11.887  1.00  0.00     0.164 HD
ENDROOT
BRANCH   1   7
HETATM    7  C   UNL     1     -41.494 -48.067  10.706  1.00  0.00     0.077 A 
HETATM    8  C   UNL     1     -42.261 -47.223   9.847  1.00  0.00     0.053 A 
HETATM    9  N   UNL     1     -41.796 -45.967   9.835  1.00  0.00    -0.301 N 
HETATM   10  N   UNL     1     -40.750 -46.001  10.675  1.00  0.00    -0.305 N 
ATOM     11  HN  UNL     1     -42.155 -45.170   9.310  1.00  0.00     0.187 HD
HETATM   12  C   UNL     1     -39.995 -44.804  10.956  1.00  0.00     0.177 C 
HETATM   13  C   UNL     1     -40.523 -47.230  11.206  1.00  0.00     0.141 A 
BRANCH   8  14
HETATM   14  C   UNL     1     -43.455 -47.552   9.014  1.00  0.00     0.056 C 
HETATM   15  C   UNL     1     -44.750 -47.505   9.811  1.00  0.00     0.011 C 
ENDBRANCH   8  14
ENDBRANCH   1   7
BRANCH   4  16
HETATM   16  C   UNL     1     -43.143 -51.856  13.249  1.00  0.00     0.162 C 
BRANCH  16  17
HETATM   17  C   UNL     1     -42.763 -53.328  13.460  1.00  0.00     0.076 C 
HETATM   18  C   UNL     1     -42.313 -53.730  14.896  1.00  0.00     0.040 C 
HETATM   19  C   UNL     1     -41.071 -54.405  14.279  1.00  0.00     0.006 C 
HETATM   20  C   UNL     1     -41.280 -53.546  13.022  1.00  0.00     0.040 C 
BRANCH  17  21
HETATM   21  O   UNL     1     -43.791 -54.153  12.835  1.00  0.00    -0.383 OA
HETATM   22  C   UNL     1     -45.067 -54.271  13.447  1.00  0.00     0.202 C 
ENDBRANCH  17  21
ENDBRANCH  16  17
ENDBRANCH   4  16
TORSDOF 5
ENDMDL
MODEL 7
REMARK VINA RESULT:      -5.5      1.343      2.327
REMARK  5 active torsions:
REMARK  status: ('A' for Active; 'I' for Inactive)
REMARK    1  A    between atoms: C_2  and  C_3 
REMARK    2  A    between atoms: C_9  and  N_10 
REMARK       I    between atoms: N_10  and  C_11 
REMARK       I    between atoms: C_11  and  N_13 
REMARK    3  A    between atoms: N_13  and  C_14 
REMARK    4  A    between atoms: C_14  and  C_15 
REMARK    5  A    between atoms: C_15  and  O_19 
ROOT
HETATM    1  N   UNL     1     -41.574 -50.443  11.379  1.00  0.00    -0.306 N 
HETATM    2  C   UNL     1     -42.365 -50.865  12.426  1.00  0.00     0.320 C 
HETATM    3  O   UNL     1     -42.699 -50.188  13.396  1.00  0.00    -0.247 OA
HETATM    4  N   UNL     1     -42.808 -52.172  12.279  1.00  0.00    -0.340 N 
HETATM    5  H   UNL     1     -41.509 -51.037  10.568  1.00  0.00     0.171 HD
HETATM    6  H   UNL     1     -42.140 -52.822  11.887  1.00  0.00     0.164 HD
ENDROOT
BRANCH   1   7
HETATM    7  C   UNL     1     -41.007 -49.174  11.295  1.00  0.00     0.077 A 
HETATM    8  C   UNL     1     -39.701 -48.745  11.681  1.00  0.00     0.053 A 
HETATM    9  N   UNL     1     -39.512 -47.441  11.439  1.00  0.00    -0.301 N 
HETATM   10  N   UNL     1     -40.675 -47.039  10.904  1.00  0.00    -0.305 N 
ATOM     11  HN  UNL     1     -38.677 -46.883  11.620  1.00  0.00     0.187 HD
HETATM   12  C   UNL     1     -40.851 -45.674  10.471  1.00  0.00     0.177 C 
HETATM   13  C   UNL     1     -41.599 -48.030  10.811  1.00  0.00     0.141 A 
BRANCH   8  14
HETATM   14  C   UNL     1     -38.582 -49.531  12.280  1.00  0.00     0.056 C 
HETATM   15  C   UNL     1     -37.506 -49.877  11.263  1.00  0.00     0.011 C 
ENDBRANCH   8  14
ENDBRANCH   1   7
BRANCH   4  16
HETATM   16  C   UNL     1     -43.630 -52.693  13.365  1.00  0.00     0.162 C 
BRANCH  16  17
HETATM   17  C   UNL     1     -42.916 -53.839  14.093  1.00  0.00     0.076 C 
HETATM   18  C   UNL     1     -41.970 -53.437  15.263  1.00  0.00     0.040 C 
HETATM   19  C   UNL     1     -40.873 -54.320  14.633  1.00  0.00     0.006 C 
HETATM   20  C   UNL     1     -41.632 -54.237  13.299  1.00  0.00     0.040 C 
BRANCH  17  21
HETATM   21  O   UNL     1     -43.901 -54.880  14.370  1.00  0.00    -0.383 OA
HETATM   22  C   UNL     1     -45.156 -54.854  13.707  1.00  0.00     0.202 C 
ENDBRANCH  17  21
ENDBRANCH  16  17
ENDBRANCH   4  16
TORSDOF 5
ENDMDL
MODEL 8
REMARK VINA RESULT:      -5.5      3.033      4.900
REMARK  5 active torsions:
REMARK  status: ('A' for Active; 'I' for Inactive)
REMARK    1  A    between atoms: C_2  and  C_3 
REMARK    2  A    between atoms: C_9  and  N_10 
REMARK       I    between atoms: N_10  and  C_11 
REMARK       I    between atoms: C_11  and  N_13 
REMARK    3  A    between atoms: N_13  and  C_14 
REMARK    4  A    between atoms: C_14  and  C_15 
REMARK    5  A    between atoms: C_15  and  O_19 
ROOT
HETATM    1  N   UNL     1     -42.161 -48.689  10.669  1.00  0.00    -0.306 N 
HETATM    2  C   UNL     1     -42.300 -49.401  11.842  1.00  0.00     0.320 C 
HETATM    3  O   UNL     1     -42.823 -48.992  12.876  1.00  0.00    -0.247 OA
HETATM    4  N   UNL     1     -41.812 -50.697  11.751  1.00  0.00    -0.340 N 
HETATM    5  H   UNL     1     -41.865 -49.190   9.847  1.00  0.00     0.171 HD
HETATM    6  H   UNL     1     -40.960 -50.810  11.217  1.00  0.00     0.164 HD
ENDROOT
BRANCH   1   7
HETATM    7  C   UNL     1     -42.571 -47.369  10.508  1.00  0.00     0.077 A 
HETATM    8  C   UNL     1     -43.679 -46.854   9.768  1.00  0.00     0.053 A 
HETATM    9  N   UNL     1     -43.761 -45.520   9.854  1.00  0.00    -0.301 N 
HETATM   10  N   UNL     1     -42.726 -45.182  10.638  1.00  0.00    -0.305 N 
ATOM     11  HN  UNL     1     -44.450 -44.904   9.423  1.00  0.00     0.187 HD
HETATM   12  C   UNL     1     -42.496 -43.804  10.997  1.00  0.00     0.177 C 
HETATM   13  C   UNL     1     -41.982 -46.245  11.040  1.00  0.00     0.141 A 
BRANCH   8  14
HETATM   14  C   UNL     1     -44.702 -47.583   8.962  1.00  0.00     0.056 C 
HETATM   15  C   UNL     1     -46.092 -46.985   9.111  1.00  0.00     0.011 C 
ENDBRANCH   8  14
ENDBRANCH   1   7
BRANCH   4  16
HETATM   16  C   UNL     1     -41.904 -51.500  12.965  1.00  0.00     0.162 C 
BRANCH  16  17
HETATM   17  C   UNL     1     -40.694 -52.433  13.101  1.00  0.00     0.076 C 
HETATM   18  C   UNL     1     -40.947 -53.944  12.822  1.00  0.00     0.040 C 
HETATM   19  C   UNL     1     -40.246 -54.271  14.156  1.00  0.00     0.006 C 
HETATM   20  C   UNL     1     -40.508 -52.824  14.601  1.00  0.00     0.040 C 
BRANCH  17  21
HETATM   21  O   UNL     1     -39.567 -51.815  12.409  1.00  0.00    -0.383 OA
HETATM   22  C   UNL     1     -38.598 -51.090  13.152  1.00  0.00     0.202 C 
ENDBRANCH  17  21
ENDBRANCH  16  17
ENDBRANCH   4  16
TORSDOF 5
ENDMDL
MODEL 9
REMARK VINA RESULT:      -5.4      2.645      4.233
REMARK  5 active torsions:
REMARK  status: ('A' for Active; 'I' for Inactive)
REMARK    1  A    between atoms: C_2  and  C_3 
REMARK    2  A    between atoms: C_9  and  N_10 
REMARK       I    between atoms: N_10  and  C_11 
REMARK       I    between atoms: C_11  and  N_13 
REMARK    3  A    between atoms: N_13  and  C_14 
REMARK    4  A    between atoms: C_14  and  C_15 
REMARK    5  A    between atoms: C_15  and  O_19 
ROOT
HETATM    1  N   UNL     1     -42.173 -49.296  11.269  1.00  0.00    -0.306 N 
HETATM    2  C   UNL     1     -41.249 -50.303  11.451  1.00  0.00     0.320 C 
HETATM    3  O   UNL     1     -40.035 -50.208  11.284  1.00  0.00    -0.247 OA
HETATM    4  N   UNL     1     -41.819 -51.487  11.897  1.00  0.00    -0.340 N 
HETATM    5  H   UNL     1     -43.112 -49.453  11.596  1.00  0.00     0.171 HD
HETATM    6  H   UNL     1     -42.715 -51.724  11.494  1.00  0.00     0.164 HD
ENDROOT
BRANCH   1   7
HETATM    7  C   UNL     1     -41.850 -48.016  10.825  1.00  0.00     0.077 A 
HETATM    8  C   UNL     1     -42.479 -47.228   9.814  1.00  0.00     0.053 A 
HETATM    9  N   UNL     1     -41.889 -46.034   9.671  1.00  0.00    -0.301 N 
HETATM   10  N   UNL     1     -40.900 -46.052  10.577  1.00  0.00    -0.305 N 
ATOM     11  HN  UNL     1     -42.135 -45.286   9.024  1.00  0.00     0.187 HD
HETATM   12  C   UNL     1     -40.044 -44.904  10.752  1.00  0.00     0.177 C 
HETATM   13  C   UNL     1     -40.828 -47.214  11.278  1.00  0.00     0.141 A 
BRANCH   8  14
HETATM   14  C   UNL     1     -43.653 -47.554   8.950  1.00  0.00     0.056 C 
HETATM   15  C   UNL     1     -44.971 -47.456   9.703  1.00  0.00     0.011 C 
ENDBRANCH   8  14
ENDBRANCH   1   7
BRANCH   4  16
HETATM   16  C   UNL     1     -40.901 -52.604  12.087  1.00  0.00     0.162 C 
BRANCH  16  17
HETATM   17  C   UNL     1     -40.783 -52.973  13.572  1.00  0.00     0.076 C 
HETATM   18  C   UNL     1     -39.675 -52.239  14.385  1.00  0.00     0.040 C 
HETATM   19  C   UNL     1     -39.199 -53.610  14.906  1.00  0.00     0.006 C 
HETATM   20  C   UNL     1     -39.920 -54.266  13.717  1.00  0.00     0.040 C 
BRANCH  17  21
HETATM   21  O   UNL     1     -42.126 -52.978  14.144  1.00  0.00    -0.383 OA
HETATM   22  C   UNL     1     -42.853 -54.195  14.218  1.00  0.00     0.202 C 
ENDBRANCH  17  21
ENDBRANCH  16  17
ENDBRANCH   4  16
TORSDOF 5
ENDMDL
