MODEL 1
REMARK VINA RESULT:      -4.7      0.000      0.000
REMARK  1 active torsions:
REMARK  status: ('A' for Active; 'I' for Inactive)
REMARK    1  A    between atoms: C_8  and  C_11 
ROOT
HETATM    1  C   UNL     2     -46.654 -48.220   8.845  1.00  0.00     0.091 C 
HETATM    2  C   UNL     2     -45.449 -47.417   9.213  1.00  0.00     0.100 A 
HETATM    3  N   UNL     2     -45.224 -46.165   8.775  1.00  0.00    -0.248 N 
ATOM      4  HN  UNL     2     -45.812 -45.615   8.149  1.00  0.00     0.196 HD
HETATM    5  O   UNL     2     -44.102 -45.804   9.318  1.00  0.00    -0.222 OA
HETATM    6  C   UNL     2     -43.637 -46.779  10.059  1.00  0.00     0.155 A 
HETATM    7  N   UNL     2     -44.463 -47.842  10.031  1.00  0.00    -0.327 N 
ATOM      8  HN  UNL     2     -44.369 -48.740  10.507  1.00  0.00     0.169 HD
ENDROOT
BRANCH   6   9
HETATM    9  C   UNL     2     -42.368 -46.674  10.848  1.00  0.00     0.119 C 
HETATM   10  C   UNL     2     -41.317 -45.718  10.323  1.00  0.00     0.284 C 
HETATM   11  N   UNL     2     -40.237 -46.675  10.592  1.00  0.00     0.085 N 
HETATM   12  C   UNL     2     -41.273 -47.715  10.698  1.00  0.00     0.284 C 
HETATM   13  H   UNL     2     -39.891 -46.480  11.564  1.00  0.00     0.315 HD
ENDBRANCH   6   9
TORSDOF 1
ENDMDL
MODEL 2
REMARK VINA RESULT:      -4.2      1.941      4.425
REMARK  1 active torsions:
REMARK  status: ('A' for Active; 'I' for Inactive)
REMARK    1  A    between atoms: C_8  and  C_11 
ROOT
HETATM    1  C   UNL     2     -39.772 -49.428  11.518  1.00  0.00     0.091 C 
HETATM    2  C   UNL     2     -40.833 -48.480  11.065  1.00  0.00     0.100 A 
HETATM    3  N   UNL     2     -41.161 -47.356  11.728  1.00  0.00    -0.248 N 
ATOM      4  HN  UNL     2     -40.758 -47.013  12.600  1.00  0.00     0.196 HD
HETATM    5  O   UNL     2     -42.099 -46.799  11.024  1.00  0.00    -0.222 OA
HETATM    6  C   UNL     2     -42.355 -47.535   9.970  1.00  0.00     0.155 A 
HETATM    7  N   UNL     2     -41.569 -48.628   9.943  1.00  0.00    -0.327 N 
ATOM      8  HN  UNL     2     -41.537 -49.378   9.252  1.00  0.00     0.169 HD
ENDROOT
BRANCH   6   9
HETATM    9  C   UNL     2     -43.369 -47.157   8.935  1.00  0.00     0.119 C 
HETATM   10  C   UNL     2     -44.794 -47.604   9.183  1.00  0.00     0.284 C 
HETATM   11  N   UNL     2     -44.971 -47.998   7.781  1.00  0.00     0.085 N 
HETATM   12  C   UNL     2     -43.505 -47.960   7.653  1.00  0.00     0.284 C 
HETATM   13  H   UNL     2     -45.349 -47.161   7.273  1.00  0.00     0.315 HD
ENDBRANCH   6   9
TORSDOF 1
ENDMDL
MODEL 3
REMARK VINA RESULT:      -4.0      6.933      7.539
REMARK  1 active torsions:
REMARK  status: ('A' for Active; 'I' for Inactive)
REMARK    1  A    between atoms: C_8  and  C_11 
ROOT
HETATM    1  C   UNL     2     -46.906 -51.718  11.879  1.00  0.00     0.091 C 
HETATM    2  C   UNL     2     -45.923 -52.648  12.511  1.00  0.00     0.100 A 
HETATM    3  N   UNL     2     -46.265 -53.622  13.374  1.00  0.00    -0.248 N 
ATOM      4  HN  UNL     2     -47.201 -53.845  13.713  1.00  0.00     0.196 HD
HETATM    5  O   UNL     2     -45.154 -54.216  13.685  1.00  0.00    -0.222 OA
HETATM    6  C   UNL     2     -44.158 -53.645  13.054  1.00  0.00     0.155 A 
HETATM    7  N   UNL     2     -44.593 -52.631  12.282  1.00  0.00    -0.327 N 
ATOM      8  HN  UNL     2     -44.055 -52.009  11.679  1.00  0.00     0.169 HD
ENDROOT
BRANCH   6   9
HETATM    9  C   UNL     2     -42.739 -54.113  13.173  1.00  0.00     0.119 C 
HETATM   10  C   UNL     2     -42.237 -54.417  14.568  1.00  0.00     0.284 C 
HETATM   11  N   UNL     2     -40.952 -53.757  14.306  1.00  0.00     0.085 N 
HETATM   12  C   UNL     2     -41.590 -53.121  13.143  1.00  0.00     0.284 C 
HETATM   13  H   UNL     2     -40.299 -54.492  13.940  1.00  0.00     0.315 HD
ENDBRANCH   6   9
TORSDOF 1
ENDMDL
MODEL 4
REMARK VINA RESULT:      -3.9      7.860      9.480
REMARK  1 active torsions:
REMARK  status: ('A' for Active; 'I' for Inactive)
REMARK    1  A    between atoms: C_8  and  C_11 
ROOT
HETATM    1  C   UNL     2     -38.657 -55.719  16.293  1.00  0.00     0.091 C 
HETATM    2  C   UNL     2     -39.216 -54.947  15.143  1.00  0.00     0.100 A 
HETATM    3  N   UNL     2     -38.680 -54.953  13.909  1.00  0.00    -0.248 N 
ATOM      4  HN  UNL     2     -37.847 -55.454  13.601  1.00  0.00     0.196 HD
HETATM    5  O   UNL     2     -39.446 -54.187  13.194  1.00  0.00    -0.222 OA
HETATM    6  C   UNL     2     -40.416 -53.717  13.938  1.00  0.00     0.155 A 
HETATM    7  N   UNL     2     -40.321 -54.174  15.201  1.00  0.00    -0.327 N 
ATOM      8  HN  UNL     2     -40.928 -53.984  15.999  1.00  0.00     0.169 HD
ENDROOT
BRANCH   6   9
HETATM    9  C   UNL     2     -41.493 -52.821  13.408  1.00  0.00     0.119 C 
HETATM   10  C   UNL     2     -42.777 -53.489  12.962  1.00  0.00     0.284 C 
HETATM   11  N   UNL     2     -42.861 -52.646  11.763  1.00  0.00     0.085 N 
HETATM   12  C   UNL     2     -41.444 -52.313  11.977  1.00  0.00     0.284 C 
HETATM   13  H   UNL     2     -43.423 -51.799  12.023  1.00  0.00     0.315 HD
ENDBRANCH   6   9
TORSDOF 1
ENDMDL
MODEL 5
REMARK VINA RESULT:      -3.9      2.601      3.360
REMARK  1 active torsions:
REMARK  status: ('A' for Active; 'I' for Inactive)
REMARK    1  A    between atoms: C_8  and  C_11 
ROOT
HETATM    1  C   UNL     2     -44.324 -47.247   9.215  1.00  0.00     0.091 C 
HETATM    2  C   UNL     2     -43.030 -47.529   9.904  1.00  0.00     0.100 A 
HETATM    3  N   UNL     2     -41.964 -46.709   9.857  1.00  0.00    -0.248 N 
ATOM      4  HN  UNL     2     -41.889 -45.824   9.356  1.00  0.00     0.196 HD
HETATM    5  O   UNL     2     -41.053 -47.281  10.582  1.00  0.00    -0.222 OA
HETATM    6  C   UNL     2     -41.516 -48.409  11.062  1.00  0.00     0.155 A 
HETATM    7  N   UNL     2     -42.784 -48.619  10.661  1.00  0.00    -0.327 N 
ATOM      8  HN  UNL     2     -43.402 -49.403  10.875  1.00  0.00     0.169 HD
ENDROOT
BRANCH   6   9
HETATM    9  C   UNL     2     -40.721 -49.301  11.965  1.00  0.00     0.119 C 
HETATM   10  C   UNL     2     -39.263 -49.504  11.611  1.00  0.00     0.284 C 
HETATM   11  N   UNL     2     -39.339 -50.941  11.900  1.00  0.00     0.085 N 
HETATM   12  C   UNL     2     -40.803 -50.811  11.833  1.00  0.00     0.284 C 
HETATM   13  H   UNL     2     -39.083 -51.065  12.910  1.00  0.00     0.315 HD
ENDBRANCH   6   9
TORSDOF 1
ENDMDL
MODEL 6
REMARK VINA RESULT:      -3.8      1.601      1.911
REMARK  1 active torsions:
REMARK  status: ('A' for Active; 'I' for Inactive)
REMARK    1  A    between atoms: C_8  and  C_11 
ROOT
HETATM    1  C   UNL     2     -45.991 -47.610   9.024  1.00  0.00     0.091 C 
HETATM    2  C   UNL     2     -44.674 -46.951   9.272  1.00  0.00     0.100 A 
HETATM    3  N   UNL     2     -43.964 -46.319   8.320  1.00  0.00    -0.248 N 
ATOM      4  HN  UNL     2     -44.209 -46.215   7.335  1.00  0.00     0.196 HD
HETATM    5  O   UNL     2     -42.904 -45.870   8.917  1.00  0.00    -0.222 OA
HETATM    6  C   UNL     2     -42.937 -46.204  10.184  1.00  0.00     0.155 A 
HETATM    7  N   UNL     2     -44.055 -46.899  10.470  1.00  0.00    -0.327 N 
ATOM      8  HN  UNL     2     -44.356 -47.288  11.364  1.00  0.00     0.169 HD
ENDROOT
BRANCH   6   9
HETATM    9  C   UNL     2     -41.872 -45.813  11.162  1.00  0.00     0.119 C 
HETATM   10  C   UNL     2     -42.330 -45.439  12.555  1.00  0.00     0.284 C 
HETATM   11  N   UNL     2     -41.408 -44.299  12.610  1.00  0.00     0.085 N 
HETATM   12  C   UNL     2     -41.283 -44.414  11.148  1.00  0.00     0.284 C 
HETATM   13  H   UNL     2     -40.511 -44.650  13.028  1.00  0.00     0.315 HD
ENDBRANCH   6   9
TORSDOF 1
ENDMDL
MODEL 7
REMARK VINA RESULT:      -3.7      7.049      8.510
REMARK  1 active torsions:
REMARK  status: ('A' for Active; 'I' for Inactive)
REMARK    1  A    between atoms: C_8  and  C_11 
ROOT
HETATM    1  C   UNL     2     -39.598 -53.755  14.063  1.00  0.00     0.091 C 
HETATM    2  C   UNL     2     -40.905 -53.482  13.394  1.00  0.00     0.100 A 
HETATM    3  N   UNL     2     -41.079 -52.533  12.455  1.00  0.00    -0.248 N 
ATOM      4  HN  UNL     2     -40.377 -51.889  12.092  1.00  0.00     0.196 HD
HETATM    5  O   UNL     2     -42.327 -52.612  12.109  1.00  0.00    -0.222 OA
HETATM    6  C   UNL     2     -42.916 -53.559  12.797  1.00  0.00     0.155 A 
HETATM    7  N   UNL     2     -42.049 -54.155  13.638  1.00  0.00    -0.327 N 
ATOM      8  HN  UNL     2     -42.215 -54.920  14.292  1.00  0.00     0.169 HD
ENDROOT
BRANCH   6   9
HETATM    9  C   UNL     2     -44.357 -53.927  12.615  1.00  0.00     0.119 C 
HETATM   10  C   UNL     2     -45.375 -52.832  12.854  1.00  0.00     0.284 C 
HETATM   11  N   UNL     2     -46.263 -53.743  13.585  1.00  0.00     0.085 N 
HETATM   12  C   UNL     2     -45.115 -54.656  13.710  1.00  0.00     0.284 C 
HETATM   13  H   UNL     2     -46.918 -54.162  12.881  1.00  0.00     0.315 HD
ENDBRANCH   6   9
TORSDOF 1
ENDMDL
MODEL 8
REMARK VINA RESULT:      -3.6     15.128     15.937
REMARK  1 active torsions:
REMARK  status: ('A' for Active; 'I' for Inactive)
REMARK    1  A    between atoms: C_8  and  C_11 
ROOT
HETATM    1  C   UNL     2     -46.515 -58.587  19.977  1.00  0.00     0.091 C 
HETATM    2  C   UNL     2     -47.867 -57.952  19.977  1.00  0.00     0.100 A 
HETATM    3  N   UNL     2     -48.887 -58.367  19.204  1.00  0.00    -0.248 N 
ATOM      4  HN  UNL     2     -48.878 -59.133  18.531  1.00  0.00     0.196 HD
HETATM    5  O   UNL     2     -49.883 -57.589  19.495  1.00  0.00    -0.222 OA
HETATM    6  C   UNL     2     -49.513 -56.721  20.404  1.00  0.00     0.155 A 
HETATM    7  N   UNL     2     -48.226 -56.908  20.754  1.00  0.00    -0.327 N 
ATOM      8  HN  UNL     2     -47.665 -56.393  21.433  1.00  0.00     0.169 HD
ENDROOT
BRANCH   6   9
HETATM    9  C   UNL     2     -50.439 -55.695  20.981  1.00  0.00     0.119 C 
HETATM   10  C   UNL     2     -51.875 -55.728  20.502  1.00  0.00     0.284 C 
HETATM   11  N   UNL     2     -51.926 -54.265  20.389  1.00  0.00     0.085 N 
HETATM   12  C   UNL     2     -50.456 -54.275  20.444  1.00  0.00     0.284 C 
HETATM   13  H   UNL     2     -52.270 -53.898  21.310  1.00  0.00     0.315 HD
ENDBRANCH   6   9
TORSDOF 1
ENDMDL
MODEL 9
REMARK VINA RESULT:      -3.6      4.942      5.637
REMARK  1 active torsions:
REMARK  status: ('A' for Active; 'I' for Inactive)
REMARK    1  A    between atoms: C_8  and  C_11 
ROOT
HETATM    1  C   UNL     2     -44.621 -53.641  12.639  1.00  0.00     0.091 C 
HETATM    2  C   UNL     2     -43.340 -52.883  12.522  1.00  0.00     0.100 A 
HETATM    3  N   UNL     2     -42.131 -53.468  12.438  1.00  0.00    -0.248 N 
ATOM      4  HN  UNL     2     -41.927 -54.467  12.453  1.00  0.00     0.196 HD
HETATM    5  O   UNL     2     -41.280 -52.494  12.334  1.00  0.00    -0.222 OA
HETATM    6  C   UNL     2     -41.916 -51.349  12.355  1.00  0.00     0.155 A 
HETATM    7  N   UNL     2     -43.245 -51.537  12.472  1.00  0.00    -0.327 N 
ATOM      8  HN  UNL     2     -43.989 -50.841  12.513  1.00  0.00     0.169 HD
ENDROOT
BRANCH   6   9
HETATM    9  C   UNL     2     -41.225 -50.026  12.224  1.00  0.00     0.119 C 
HETATM   10  C   UNL     2     -41.959 -48.946  11.458  1.00  0.00     0.284 C 
HETATM   11  N   UNL     2     -40.734 -48.534  10.761  1.00  0.00     0.085 N 
HETATM   12  C   UNL     2     -40.144 -49.816  11.179  1.00  0.00     0.284 C 
HETATM   13  H   UNL     2     -40.290 -47.782  11.343  1.00  0.00     0.315 HD
ENDBRANCH   6   9
TORSDOF 1
ENDMDL
