MODEL 1
REMARK VINA RESULT:      -6.9      0.000      0.000
REMARK  6 active torsions:
REMARK  status: ('A' for Active; 'I' for Inactive)
REMARK    1  A    between atoms: O_1  and  C_2 
REMARK    2  A    between atoms: C_2  and  C_3 
REMARK    3  A    between atoms: C_2  and  C_19 
REMARK    4  A    between atoms: C_3  and  N_4 
REMARK    5  A    between atoms: C_7  and  C_16 
REMARK    6  A    between atoms: C_9  and  C_12 
ROOT
HETATM    1  N   UNL     1     -41.525 -49.684  12.119  1.00  0.00    -0.254 N 
HETATM    2  N   UNL     1     -40.182 -49.991  12.274  1.00  0.00    -0.299 N 
ATOM      3  HN  UNL     1     -39.881 -50.882  12.669  1.00  0.00     0.187 HD
HETATM    4  C   UNL     1     -39.331 -49.098  11.894  1.00  0.00     0.031 A 
HETATM    5  C   UNL     1     -39.665 -47.778  11.359  1.00  0.00     0.049 A 
HETATM    6  C   UNL     1     -40.965 -47.489  11.206  1.00  0.00     0.119 A 
HETATM    7  C   UNL     1     -41.989 -48.500  11.541  1.00  0.00     0.277 A 
HETATM    8  O   UNL     1     -43.177 -48.287  11.322  1.00  0.00    -0.266 OA
ENDROOT
BRANCH   1   9
HETATM    9  C   UNL     1     -42.481 -50.750  12.472  1.00  0.00     0.189 C 
BRANCH   9  10
HETATM   10  C   UNL     1     -41.825 -52.146  12.495  1.00  0.00     0.171 C 
BRANCH  10  11
HETATM   11  O   UNL     1     -41.462 -52.553  11.169  1.00  0.00    -0.389 OA
HETATM   12  H   UNL     1     -41.639 -51.769  10.608  1.00  0.00     0.210 HD
ENDBRANCH  10  11
BRANCH  10  13
HETATM   13  C   UNL     1     -42.745 -53.189  13.100  1.00  0.00    -0.028 A 
HETATM   14  C   UNL     1     -44.027 -53.397  12.564  1.00  0.00     0.010 A 
HETATM   15  C   UNL     1     -44.887 -54.350  13.116  1.00  0.00     0.001 A 
HETATM   16  C   UNL     1     -44.474 -55.116  14.204  1.00  0.00     0.000 A 
HETATM   17  C   UNL     1     -43.200 -54.936  14.735  1.00  0.00     0.001 A 
HETATM   18  C   UNL     1     -42.341 -53.983  14.184  1.00  0.00     0.010 A 
ENDBRANCH  10  13
ENDBRANCH   9  10
ENDBRANCH   1   9
BRANCH   4  19
HETATM   19  C   UNL     1     -37.884 -49.383  12.046  1.00  0.00     0.037 A 
HETATM   20  C   UNL     1     -37.131 -50.094  10.944  1.00  0.00     0.011 A 
HETATM   21  C   UNL     1     -37.376 -50.789  12.248  1.00  0.00     0.011 A 
ENDBRANCH   4  19
BRANCH   6  22
HETATM   22  C   UNL     1     -41.412 -46.162  10.721  1.00  0.00     0.422 C 
HETATM   23  F   UNL     1     -42.216 -46.143   9.634  1.00  0.00    -0.166 F 
HETATM   24  F   UNL     1     -42.097 -45.509  11.703  1.00  0.00    -0.166 F 
HETATM   25  F   UNL     1     -40.345 -45.368  10.429  1.00  0.00    -0.166 F 
ENDBRANCH   6  22
TORSDOF 6
ENDMDL
MODEL 2
REMARK VINA RESULT:      -6.6      3.055      4.448
REMARK  6 active torsions:
REMARK  status: ('A' for Active; 'I' for Inactive)
REMARK    1  A    between atoms: O_1  and  C_2 
REMARK    2  A    between atoms: C_2  and  C_3 
REMARK    3  A    between atoms: C_2  and  C_19 
REMARK    4  A    between atoms: C_3  and  N_4 
REMARK    5  A    between atoms: C_7  and  C_16 
REMARK    6  A    between atoms: C_9  and  C_12 
ROOT
HETATM    1  N   UNL     1     -41.365 -51.389  12.168  1.00  0.00    -0.254 N 
HETATM    2  N   UNL     1     -42.009 -50.259  11.689  1.00  0.00    -0.299 N 
ATOM      3  HN  UNL     1     -43.019 -50.241  11.542  1.00  0.00     0.187 HD
HETATM    4  C   UNL     1     -41.272 -49.229  11.438  1.00  0.00     0.031 A 
HETATM    5  C   UNL     1     -39.817 -49.172  11.573  1.00  0.00     0.049 A 
HETATM    6  C   UNL     1     -39.201 -50.265  12.042  1.00  0.00     0.119 A 
HETATM    7  C   UNL     1     -39.995 -51.449  12.430  1.00  0.00     0.277 A 
HETATM    8  O   UNL     1     -39.459 -52.425  12.946  1.00  0.00    -0.266 OA
ENDROOT
BRANCH   1   9
HETATM    9  C   UNL     1     -42.232 -52.524  12.536  1.00  0.00     0.189 C 
BRANCH   9  10
HETATM   10  C   UNL     1     -42.693 -52.461  14.008  1.00  0.00     0.171 C 
BRANCH  10  11
HETATM   11  O   UNL     1     -42.485 -53.724  14.653  1.00  0.00    -0.389 OA
HETATM   12  H   UNL     1     -41.594 -53.657  15.056  1.00  0.00     0.210 HD
ENDBRANCH  10  11
BRANCH  10  13
HETATM   13  C   UNL     1     -44.156 -52.079  14.122  1.00  0.00    -0.028 A 
HETATM   14  C   UNL     1     -44.672 -51.615  15.343  1.00  0.00     0.010 A 
HETATM   15  C   UNL     1     -46.020 -51.267  15.463  1.00  0.00     0.001 A 
HETATM   16  C   UNL     1     -46.868 -51.366  14.362  1.00  0.00     0.000 A 
HETATM   17  C   UNL     1     -46.368 -51.805  13.139  1.00  0.00     0.001 A 
HETATM   18  C   UNL     1     -45.021 -52.154  13.020  1.00  0.00     0.010 A 
ENDBRANCH  10  13
ENDBRANCH   9  10
ENDBRANCH   1   9
BRANCH   4  19
HETATM   19  C   UNL     1     -41.918 -48.000  10.919  1.00  0.00     0.037 A 
HETATM   20  C   UNL     1     -42.452 -46.960  11.880  1.00  0.00     0.011 A 
HETATM   21  C   UNL     1     -43.404 -47.774  11.057  1.00  0.00     0.011 A 
ENDBRANCH   4  19
BRANCH   6  22
HETATM   22  C   UNL     1     -37.725 -50.330  12.169  1.00  0.00     0.422 C 
HETATM   23  F   UNL     1     -37.110 -51.416  11.648  1.00  0.00    -0.166 F 
HETATM   24  F   UNL     1     -37.153 -49.251  11.562  1.00  0.00    -0.166 F 
HETATM   25  F   UNL     1     -37.348 -50.258  13.475  1.00  0.00    -0.166 F 
ENDBRANCH   6  22
TORSDOF 6
ENDMDL
MODEL 3
REMARK VINA RESULT:      -6.5      2.533      4.022
REMARK  6 active torsions:
REMARK  status: ('A' for Active; 'I' for Inactive)
REMARK    1  A    between atoms: O_1  and  C_2 
REMARK    2  A    between atoms: C_2  and  C_3 
REMARK    3  A    between atoms: C_2  and  C_19 
REMARK    4  A    between atoms: C_3  and  N_4 
REMARK    5  A    between atoms: C_7  and  C_16 
REMARK    6  A    between atoms: C_9  and  C_12 
ROOT
HETATM    1  N   UNL     1     -42.860 -48.236  11.970  1.00  0.00    -0.254 N 
HETATM    2  N   UNL     1     -43.835 -48.271  10.986  1.00  0.00    -0.299 N 
ATOM      3  HN  UNL     1     -44.622 -48.919  11.037  1.00  0.00     0.187 HD
HETATM    4  C   UNL     1     -43.702 -47.446  10.002  1.00  0.00     0.031 A 
HETATM    5  C   UNL     1     -42.589 -46.515   9.818  1.00  0.00     0.049 A 
HETATM    6  C   UNL     1     -41.653 -46.481  10.776  1.00  0.00     0.119 A 
HETATM    7  C   UNL     1     -41.790 -47.338  11.972  1.00  0.00     0.277 A 
HETATM    8  O   UNL     1     -40.992 -47.255  12.900  1.00  0.00    -0.266 OA
ENDROOT
BRANCH   1   9
HETATM    9  C   UNL     1     -43.076 -49.120  13.132  1.00  0.00     0.189 C 
BRANCH   9  10
HETATM   10  C   UNL     1     -42.545 -50.548  12.893  1.00  0.00     0.171 C 
BRANCH  10  11
HETATM   11  O   UNL     1     -41.952 -50.652  11.592  1.00  0.00    -0.389 OA
HETATM   12  H   UNL     1     -41.244 -51.323  11.692  1.00  0.00     0.210 HD
ENDBRANCH  10  11
BRANCH  10  13
HETATM   13  C   UNL     1     -43.645 -51.585  13.021  1.00  0.00    -0.028 A 
HETATM   14  C   UNL     1     -44.952 -51.192  13.356  1.00  0.00     0.010 A 
HETATM   15  C   UNL     1     -45.972 -52.138  13.484  1.00  0.00     0.001 A 
HETATM   16  C   UNL     1     -45.704 -53.487  13.268  1.00  0.00     0.000 A 
HETATM   17  C   UNL     1     -44.419 -53.892  12.915  1.00  0.00     0.001 A 
HETATM   18  C   UNL     1     -43.399 -52.947  12.789  1.00  0.00     0.010 A 
ENDBRANCH  10  13
ENDBRANCH   9  10
ENDBRANCH   1   9
BRANCH   4  19
HETATM   19  C   UNL     1     -44.719 -47.453   8.924  1.00  0.00     0.037 A 
HETATM   20  C   UNL     1     -45.942 -46.569   9.029  1.00  0.00     0.011 A 
HETATM   21  C   UNL     1     -46.086 -48.057   9.136  1.00  0.00     0.011 A 
ENDBRANCH   4  19
BRANCH   6  22
HETATM   22  C   UNL     1     -40.458 -45.611  10.663  1.00  0.00     0.422 C 
HETATM   23  F   UNL     1     -40.370 -44.827   9.564  1.00  0.00    -0.166 F 
HETATM   24  F   UNL     1     -40.390 -44.765  11.731  1.00  0.00    -0.166 F 
HETATM   25  F   UNL     1     -39.315 -46.349  10.708  1.00  0.00    -0.166 F 
ENDBRANCH   6  22
TORSDOF 6
ENDMDL
MODEL 4
REMARK VINA RESULT:      -6.5      5.226      6.855
REMARK  6 active torsions:
REMARK  status: ('A' for Active; 'I' for Inactive)
REMARK    1  A    between atoms: O_1  and  C_2 
REMARK    2  A    between atoms: C_2  and  C_3 
REMARK    3  A    between atoms: C_2  and  C_19 
REMARK    4  A    between atoms: C_3  and  N_4 
REMARK    5  A    between atoms: C_7  and  C_16 
REMARK    6  A    between atoms: C_9  and  C_12 
ROOT
HETATM    1  N   UNL     1     -44.216 -53.640  13.354  1.00  0.00    -0.254 N 
HETATM    2  N   UNL     1     -43.177 -53.097  12.615  1.00  0.00    -0.299 N 
ATOM      3  HN  UNL     1     -43.351 -52.536  11.781  1.00  0.00     0.187 HD
HETATM    4  C   UNL     1     -41.978 -53.335  13.031  1.00  0.00     0.031 A 
HETATM    5  C   UNL     1     -41.627 -54.163  14.185  1.00  0.00     0.049 A 
HETATM    6  C   UNL     1     -42.637 -54.679  14.899  1.00  0.00     0.119 A 
HETATM    7  C   UNL     1     -44.034 -54.375  14.527  1.00  0.00     0.277 A 
HETATM    8  O   UNL     1     -44.968 -54.764  15.221  1.00  0.00    -0.266 OA
ENDROOT
BRANCH   1   9
HETATM    9  C   UNL     1     -45.579 -53.283  12.918  1.00  0.00     0.189 C 
BRANCH   9  10
HETATM   10  C   UNL     1     -45.884 -51.782  13.105  1.00  0.00     0.171 C 
BRANCH  10  11
HETATM   11  O   UNL     1     -44.854 -50.982  12.509  1.00  0.00    -0.389 OA
HETATM   12  H   UNL     1     -45.106 -50.056  12.711  1.00  0.00     0.210 HD
ENDBRANCH  10  11
BRANCH  10  13
HETATM   13  C   UNL     1     -46.013 -51.414  14.570  1.00  0.00    -0.028 A 
HETATM   14  C   UNL     1     -47.200 -51.691  15.268  1.00  0.00     0.010 A 
HETATM   15  C   UNL     1     -47.334 -51.351  16.616  1.00  0.00     0.001 A 
HETATM   16  C   UNL     1     -46.279 -50.739  17.290  1.00  0.00     0.000 A 
HETATM   17  C   UNL     1     -45.088 -50.474  16.619  1.00  0.00     0.001 A 
HETATM   18  C   UNL     1     -44.955 -50.813  15.271  1.00  0.00     0.010 A 
ENDBRANCH  10  13
ENDBRANCH   9  10
ENDBRANCH   1   9
BRANCH   4  19
HETATM   19  C   UNL     1     -40.835 -52.779  12.268  1.00  0.00     0.037 A 
HETATM   20  C   UNL     1     -39.932 -51.743  12.902  1.00  0.00     0.011 A 
HETATM   21  C   UNL     1     -40.839 -51.352  11.774  1.00  0.00     0.011 A 
ENDBRANCH   4  19
BRANCH   6  22
HETATM   22  C   UNL     1     -42.391 -55.573  16.056  1.00  0.00     0.422 C 
HETATM   23  F   UNL     1     -42.983 -55.242  17.226  1.00  0.00    -0.166 F 
HETATM   24  F   UNL     1     -42.811 -56.839  15.770  1.00  0.00    -0.166 F 
HETATM   25  F   UNL     1     -41.057 -55.680  16.310  1.00  0.00    -0.166 F 
ENDBRANCH   6  22
TORSDOF 6
ENDMDL
MODEL 5
REMARK VINA RESULT:      -6.4      3.899      7.417
REMARK  6 active torsions:
REMARK  status: ('A' for Active; 'I' for Inactive)
REMARK    1  A    between atoms: O_1  and  C_2 
REMARK    2  A    between atoms: C_2  and  C_3 
REMARK    3  A    between atoms: C_2  and  C_19 
REMARK    4  A    between atoms: C_3  and  N_4 
REMARK    5  A    between atoms: C_7  and  C_16 
REMARK    6  A    between atoms: C_9  and  C_12 
ROOT
HETATM    1  N   UNL     1     -41.087 -51.326  12.201  1.00  0.00    -0.254 N 
HETATM    2  N   UNL     1     -42.407 -51.698  12.002  1.00  0.00    -0.299 N 
ATOM      3  HN  UNL     1     -43.053 -51.111  11.474  1.00  0.00     0.187 HD
HETATM    4  C   UNL     1     -42.780 -52.822  12.516  1.00  0.00     0.031 A 
HETATM    5  C   UNL     1     -41.942 -53.707  13.325  1.00  0.00     0.049 A 
HETATM    6  C   UNL     1     -40.665 -53.345  13.508  1.00  0.00     0.119 A 
HETATM    7  C   UNL     1     -40.150 -52.113  12.875  1.00  0.00     0.277 A 
HETATM    8  O   UNL     1     -38.964 -51.813  12.956  1.00  0.00    -0.266 OA
ENDROOT
BRANCH   1   9
HETATM    9  C   UNL     1     -40.653 -50.085  11.530  1.00  0.00     0.189 C 
BRANCH   9  10
HETATM   10  C   UNL     1     -41.629 -48.914  11.768  1.00  0.00     0.171 C 
BRANCH  10  11
HETATM   11  O   UNL     1     -42.604 -48.852  10.718  1.00  0.00    -0.389 OA
HETATM   12  H   UNL     1     -42.083 -48.711   9.899  1.00  0.00     0.210 HD
ENDBRANCH  10  11
BRANCH  10  13
HETATM   13  C   UNL     1     -40.902 -47.586  11.850  1.00  0.00    -0.028 A 
HETATM   14  C   UNL     1     -40.937 -46.692  10.767  1.00  0.00     0.010 A 
HETATM   15  C   UNL     1     -40.266 -45.468  10.829  1.00  0.00     0.001 A 
HETATM   16  C   UNL     1     -39.560 -45.115  11.977  1.00  0.00     0.000 A 
HETATM   17  C   UNL     1     -39.532 -45.981  13.067  1.00  0.00     0.001 A 
HETATM   18  C   UNL     1     -40.201 -47.204  13.005  1.00  0.00     0.010 A 
ENDBRANCH  10  13
ENDBRANCH   9  10
ENDBRANCH   1   9
BRANCH   4  19
HETATM   19  C   UNL     1     -44.185 -53.257  12.333  1.00  0.00     0.037 A 
HETATM   20  C   UNL     1     -45.245 -52.839  13.329  1.00  0.00     0.011 A 
HETATM   21  C   UNL     1     -44.820 -54.274  13.250  1.00  0.00     0.011 A 
ENDBRANCH   4  19
BRANCH   6  22
HETATM   22  C   UNL     1     -39.746 -54.144  14.352  1.00  0.00     0.422 C 
HETATM   23  F   UNL     1     -38.960 -53.465  15.220  1.00  0.00    -0.166 F 
HETATM   24  F   UNL     1     -40.453 -55.033  15.107  1.00  0.00    -0.166 F 
HETATM   25  F   UNL     1     -38.914 -54.899  13.582  1.00  0.00    -0.166 F 
ENDBRANCH   6  22
TORSDOF 6
ENDMDL
MODEL 6
REMARK VINA RESULT:      -6.4      1.510      1.814
REMARK  6 active torsions:
REMARK  status: ('A' for Active; 'I' for Inactive)
REMARK    1  A    between atoms: O_1  and  C_2 
REMARK    2  A    between atoms: C_2  and  C_3 
REMARK    3  A    between atoms: C_2  and  C_19 
REMARK    4  A    between atoms: C_3  and  N_4 
REMARK    5  A    between atoms: C_7  and  C_16 
REMARK    6  A    between atoms: C_9  and  C_12 
ROOT
HETATM    1  N   UNL     1     -40.680 -50.355  12.339  1.00  0.00    -0.254 N 
HETATM    2  N   UNL     1     -39.584 -50.706  13.112  1.00  0.00    -0.299 N 
ATOM      3  HN  UNL     1     -39.458 -51.658  13.457  1.00  0.00     0.187 HD
HETATM    4  C   UNL     1     -38.731 -49.773  13.374  1.00  0.00     0.031 A 
HETATM    5  C   UNL     1     -38.848 -48.374  12.963  1.00  0.00     0.049 A 
HETATM    6  C   UNL     1     -39.906 -48.042  12.211  1.00  0.00     0.119 A 
HETATM    7  C   UNL     1     -40.876 -49.080  11.803  1.00  0.00     0.277 A 
HETATM    8  O   UNL     1     -41.799 -48.813  11.041  1.00  0.00    -0.266 OA
ENDROOT
BRANCH   1   9
HETATM    9  C   UNL     1     -41.596 -51.452  11.973  1.00  0.00     0.189 C 
BRANCH   9  10
HETATM   10  C   UNL     1     -41.175 -52.802  12.589  1.00  0.00     0.171 C 
BRANCH  10  11
HETATM   11  O   UNL     1     -40.526 -53.622  11.608  1.00  0.00    -0.389 OA
HETATM   12  H   UNL     1     -40.848 -53.284  10.746  1.00  0.00     0.210 HD
ENDBRANCH  10  11
BRANCH  10  13
HETATM   13  C   UNL     1     -42.362 -53.554  13.158  1.00  0.00    -0.028 A 
HETATM   14  C   UNL     1     -43.624 -53.450  12.548  1.00  0.00     0.010 A 
HETATM   15  C   UNL     1     -44.727 -54.132  13.067  1.00  0.00     0.001 A 
HETATM   16  C   UNL     1     -44.584 -54.937  14.194  1.00  0.00     0.000 A 
HETATM   17  C   UNL     1     -43.336 -55.067  14.800  1.00  0.00     0.001 A 
HETATM   18  C   UNL     1     -42.234 -54.384  14.282  1.00  0.00     0.010 A 
ENDBRANCH  10  13
ENDBRANCH   9  10
ENDBRANCH   1   9
BRANCH   4  19
HETATM   19  C   UNL     1     -37.547 -50.103  14.202  1.00  0.00     0.037 A 
HETATM   20  C   UNL     1     -37.705 -50.358  15.685  1.00  0.00     0.011 A 
HETATM   21  C   UNL     1     -36.996 -49.126  15.212  1.00  0.00     0.011 A 
ENDBRANCH   4  19
BRANCH   6  22
HETATM   22  C   UNL     1     -40.147 -46.643  11.784  1.00  0.00     0.422 C 
HETATM   23  F   UNL     1     -40.071 -46.382  10.459  1.00  0.00    -0.166 F 
HETATM   24  F   UNL     1     -41.390 -46.240  12.173  1.00  0.00    -0.166 F 
HETATM   25  F   UNL     1     -39.278 -45.794  12.399  1.00  0.00    -0.166 F 
ENDBRANCH   6  22
TORSDOF 6
ENDMDL
MODEL 7
REMARK VINA RESULT:      -6.3      3.938      7.666
REMARK  6 active torsions:
REMARK  status: ('A' for Active; 'I' for Inactive)
REMARK    1  A    between atoms: O_1  and  C_2 
REMARK    2  A    between atoms: C_2  and  C_3 
REMARK    3  A    between atoms: C_2  and  C_19 
REMARK    4  A    between atoms: C_3  and  N_4 
REMARK    5  A    between atoms: C_7  and  C_16 
REMARK    6  A    between atoms: C_9  and  C_12 
ROOT
HETATM    1  N   UNL     1     -42.534 -50.573  12.556  1.00  0.00    -0.254 N 
HETATM    2  N   UNL     1     -43.898 -50.481  12.785  1.00  0.00    -0.299 N 
ATOM      3  HN  UNL     1     -44.415 -49.624  12.589  1.00  0.00     0.187 HD
HETATM    4  C   UNL     1     -44.483 -51.531  13.256  1.00  0.00     0.031 A 
HETATM    5  C   UNL     1     -43.821 -52.787  13.610  1.00  0.00     0.049 A 
HETATM    6  C   UNL     1     -42.504 -52.871  13.381  1.00  0.00     0.119 A 
HETATM    7  C   UNL     1     -41.788 -51.736  12.763  1.00  0.00     0.277 A 
HETATM    8  O   UNL     1     -40.602 -51.828  12.463  1.00  0.00    -0.266 OA
ENDROOT
BRANCH   1   9
HETATM    9  C   UNL     1     -41.898 -49.397  11.932  1.00  0.00     0.189 C 
BRANCH   9  10
HETATM   10  C   UNL     1     -42.834 -48.171  11.896  1.00  0.00     0.171 C 
BRANCH  10  11
HETATM   11  O   UNL     1     -43.799 -48.306  10.844  1.00  0.00    -0.389 OA
HETATM   12  H   UNL     1     -43.908 -49.273  10.726  1.00  0.00     0.210 HD
ENDBRANCH  10  11
BRANCH  10  13
HETATM   13  C   UNL     1     -42.062 -46.881  11.700  1.00  0.00    -0.028 A 
HETATM   14  C   UNL     1     -42.425 -45.724  12.408  1.00  0.00     0.010 A 
HETATM   15  C   UNL     1     -41.726 -44.527  12.231  1.00  0.00     0.001 A 
HETATM   16  C   UNL     1     -40.646 -44.473  11.352  1.00  0.00     0.000 A 
HETATM   17  C   UNL     1     -40.260 -45.616  10.656  1.00  0.00     0.001 A 
HETATM   18  C   UNL     1     -40.960 -46.811  10.833  1.00  0.00     0.010 A 
ENDBRANCH  10  13
ENDBRANCH   9  10
ENDBRANCH   1   9
BRANCH   4  19
HETATM   19  C   UNL     1     -45.941 -51.476  13.521  1.00  0.00     0.037 A 
HETATM   20  C   UNL     1     -46.449 -51.333  14.939  1.00  0.00     0.011 A 
HETATM   21  C   UNL     1     -46.661 -52.617  14.196  1.00  0.00     0.011 A 
ENDBRANCH   4  19
BRANCH   6  22
HETATM   22  C   UNL     1     -41.728 -54.080  13.751  1.00  0.00     0.422 C 
HETATM   23  F   UNL     1     -40.697 -53.910  14.609  1.00  0.00    -0.166 F 
HETATM   24  F   UNL     1     -42.547 -55.005  14.329  1.00  0.00    -0.166 F 
HETATM   25  F   UNL     1     -41.218 -54.685  12.643  1.00  0.00    -0.166 F 
ENDBRANCH   6  22
TORSDOF 6
ENDMDL
MODEL 8
REMARK VINA RESULT:      -6.3      2.319      4.126
REMARK  6 active torsions:
REMARK  status: ('A' for Active; 'I' for Inactive)
REMARK    1  A    between atoms: O_1  and  C_2 
REMARK    2  A    between atoms: C_2  and  C_3 
REMARK    3  A    between atoms: C_2  and  C_19 
REMARK    4  A    between atoms: C_3  and  N_4 
REMARK    5  A    between atoms: C_7  and  C_16 
REMARK    6  A    between atoms: C_9  and  C_12 
ROOT
HETATM    1  N   UNL     1     -41.067 -48.641  10.996  1.00  0.00    -0.254 N 
HETATM    2  N   UNL     1     -42.390 -48.613  10.586  1.00  0.00    -0.299 N 
ATOM      3  HN  UNL     1     -42.939 -49.468  10.495  1.00  0.00     0.187 HD
HETATM    4  C   UNL     1     -42.896 -47.454  10.325  1.00  0.00     0.031 A 
HETATM    5  C   UNL     1     -42.179 -46.180  10.382  1.00  0.00     0.049 A 
HETATM    6  C   UNL     1     -40.901 -46.214  10.786  1.00  0.00     0.119 A 
HETATM    7  C   UNL     1     -40.287 -47.498  11.182  1.00  0.00     0.277 A 
HETATM    8  O   UNL     1     -39.149 -47.536  11.640  1.00  0.00    -0.266 OA
ENDROOT
BRANCH   1   9
HETATM    9  C   UNL     1     -40.533 -49.962  11.378  1.00  0.00     0.189 C 
BRANCH   9  10
HETATM   10  C   UNL     1     -41.546 -50.795  12.191  1.00  0.00     0.171 C 
BRANCH  10  11
HETATM   11  O   UNL     1     -42.156 -49.990  13.209  1.00  0.00    -0.389 OA
HETATM   12  H   UNL     1     -42.132 -50.546  14.017  1.00  0.00     0.210 HD
ENDBRANCH  10  11
BRANCH  10  13
HETATM   13  C   UNL     1     -40.891 -52.001  12.837  1.00  0.00    -0.028 A 
HETATM   14  C   UNL     1     -41.508 -53.261  12.773  1.00  0.00     0.010 A 
HETATM   15  C   UNL     1     -40.918 -54.377  13.370  1.00  0.00     0.001 A 
HETATM   16  C   UNL     1     -39.698 -54.254  14.030  1.00  0.00     0.000 A 
HETATM   17  C   UNL     1     -39.062 -53.016  14.086  1.00  0.00     0.001 A 
HETATM   18  C   UNL     1     -39.652 -51.900  13.491  1.00  0.00     0.010 A 
ENDBRANCH  10  13
ENDBRANCH   9  10
ENDBRANCH   1   9
BRANCH   4  19
HETATM   19  C   UNL     1     -44.307 -47.377   9.877  1.00  0.00     0.037 A 
HETATM   20  C   UNL     1     -44.666 -47.693   8.441  1.00  0.00     0.011 A 
HETATM   21  C   UNL     1     -44.779 -46.286   8.947  1.00  0.00     0.011 A 
ENDBRANCH   4  19
BRANCH   6  22
HETATM   22  C   UNL     1     -40.069 -44.988  10.831  1.00  0.00     0.422 C 
HETATM   23  F   UNL     1     -40.699 -43.809  10.621  1.00  0.00    -0.166 F 
HETATM   24  F   UNL     1     -39.463 -44.875  12.047  1.00  0.00    -0.166 F 
HETATM   25  F   UNL     1     -39.058 -45.056   9.922  1.00  0.00    -0.166 F 
ENDBRANCH   6  22
TORSDOF 6
ENDMDL
MODEL 9
REMARK VINA RESULT:      -6.1      4.011      6.437
REMARK  6 active torsions:
REMARK  status: ('A' for Active; 'I' for Inactive)
REMARK    1  A    between atoms: O_1  and  C_2 
REMARK    2  A    between atoms: C_2  and  C_3 
REMARK    3  A    between atoms: C_2  and  C_19 
REMARK    4  A    between atoms: C_3  and  N_4 
REMARK    5  A    between atoms: C_7  and  C_16 
REMARK    6  A    between atoms: C_9  and  C_12 
ROOT
HETATM    1  N   UNL     1     -42.710 -52.090  14.016  1.00  0.00    -0.254 N 
HETATM    2  N   UNL     1     -42.390 -51.130  14.963  1.00  0.00    -0.299 N 
ATOM      3  HN  UNL     1     -41.433 -51.003  15.291  1.00  0.00     0.187 HD
HETATM    4  C   UNL     1     -43.360 -50.405  15.410  1.00  0.00     0.031 A 
HETATM    5  C   UNL     1     -44.768 -50.543  15.035  1.00  0.00     0.049 A 
HETATM    6  C   UNL     1     -45.069 -51.469  14.114  1.00  0.00     0.119 A 
HETATM    7  C   UNL     1     -43.994 -52.274  13.499  1.00  0.00     0.277 A 
HETATM    8  O   UNL     1     -44.240 -53.061  12.590  1.00  0.00    -0.266 OA
ENDROOT
BRANCH   1   9
HETATM    9  C   UNL     1     -41.577 -52.847  13.449  1.00  0.00     0.189 C 
BRANCH   9  10
HETATM   10  C   UNL     1     -41.061 -52.235  12.130  1.00  0.00     0.171 C 
BRANCH  10  11
HETATM   11  O   UNL     1     -40.599 -53.265  11.246  1.00  0.00    -0.389 OA
HETATM   12  H   UNL     1     -39.708 -53.502  11.580  1.00  0.00     0.210 HD
ENDBRANCH  10  11
BRANCH  10  13
HETATM   13  C   UNL     1     -39.936 -51.247  12.372  1.00  0.00    -0.028 A 
HETATM   14  C   UNL     1     -39.885 -50.043  11.650  1.00  0.00     0.010 A 
HETATM   15  C   UNL     1     -38.851 -49.128  11.859  1.00  0.00     0.001 A 
HETATM   16  C   UNL     1     -37.859 -49.397  12.800  1.00  0.00     0.000 A 
HETATM   17  C   UNL     1     -37.905 -50.577  13.537  1.00  0.00     0.001 A 
HETATM   18  C   UNL     1     -38.938 -51.492  13.328  1.00  0.00     0.010 A 
ENDBRANCH  10  13
ENDBRANCH   9  10
ENDBRANCH   1   9
BRANCH   4  19
HETATM   19  C   UNL     1     -43.065 -49.369  16.428  1.00  0.00     0.037 A 
HETATM   20  C   UNL     1     -43.135 -49.712  17.900  1.00  0.00     0.011 A 
HETATM   21  C   UNL     1     -44.153 -48.790  17.299  1.00  0.00     0.011 A 
ENDBRANCH   4  19
BRANCH   6  22
HETATM   22  C   UNL     1     -46.470 -51.724  13.701  1.00  0.00     0.422 C 
HETATM   23  F   UNL     1     -46.904 -53.004  13.758  1.00  0.00    -0.166 F 
HETATM   24  F   UNL     1     -47.328 -51.004  14.479  1.00  0.00    -0.166 F 
HETATM   25  F   UNL     1     -46.685 -51.296  12.427  1.00  0.00    -0.166 F 
ENDBRANCH   6  22
TORSDOF 6
ENDMDL
