MODEL 1
REMARK VINA RESULT:      -6.2      0.000      0.000
REMARK  5 active torsions:
REMARK  status: ('A' for Active; 'I' for Inactive)
REMARK       I    between atoms: N_4  and  C_9 
REMARK    1  A    between atoms: C_9  and  C_11 
REMARK    2  A    between atoms: C_11  and  N_12 
REMARK    3  A    between atoms: N_12  and  C_13 
REMARK    4  A    between atoms: C_13  and  C_14 
REMARK    5  A    between atoms: C_14  and  N_15 
ROOT
HETATM    1  C   UNL     1     -43.095 -49.944  12.658  1.00  0.00     0.372 C 
ENDROOT
BRANCH   1   2
HETATM    2  C   UNL     1     -42.988 -51.398  13.123  1.00  0.00     0.248 C 
HETATM    3  N   UNL     1     -44.001 -51.914  13.915  1.00  0.00    -0.346 N 
HETATM    4  C   UNL     1     -45.177 -51.190  14.400  1.00  0.00     0.157 C 
HETATM    5  C   UNL     1     -44.072 -53.352  14.159  1.00  0.00     0.157 C 
HETATM    6  C   UNL     1     -46.464 -51.786  13.795  1.00  0.00     0.136 C 
HETATM    7  C   UNL     1     -46.648 -51.426  12.322  1.00  0.00     0.041 C 
HETATM    8  O   UNL     1     -46.526 -53.212  13.997  1.00  0.00    -0.378 OA
HETATM    9  C   UNL     1     -45.358 -53.915  13.523  1.00  0.00     0.136 C 
HETATM   10  C   UNL     1     -45.539 -55.386  13.865  1.00  0.00     0.041 C 
HETATM   11  O   UNL     1     -42.023 -52.081  12.771  1.00  0.00    -0.271 OA
ENDBRANCH   1   2
BRANCH   1  12
HETATM   12  N   UNL     1     -41.753 -49.340  12.557  1.00  0.00     0.093 N 
HETATM   13  H   UNL     1     -41.096 -50.006  12.973  1.00  0.00     0.316 HD
BRANCH  12  14
HETATM   14  C   UNL     1     -41.371 -49.124  11.151  1.00  0.00     0.291 C 
BRANCH  14  15
HETATM   15  C   UNL     1     -41.658 -47.701  10.663  1.00  0.00     0.178 C 
BRANCH  15  16
HETATM   16  N   UNL     1     -42.855 -47.647   9.849  1.00  0.00    -0.302 N 
HETATM   17  C   UNL     1     -44.116 -47.347  10.271  1.00  0.00     0.118 A 
HETATM   18  C   UNL     1     -44.924 -47.427   9.156  1.00  0.00    -0.028 A 
HETATM   19  C   UNL     1     -46.378 -47.182   9.060  1.00  0.00     0.051 C 
HETATM   20  C   UNL     1     -44.041 -47.801   8.118  1.00  0.00     0.115 A 
HETATM   21  N   UNL     1     -42.781 -47.933   8.537  1.00  0.00    -0.310 N 
ATOM     22  HN  UNL     1     -41.958 -48.190   7.991  1.00  0.00     0.186 HD
ENDBRANCH  15  16
ENDBRANCH  14  15
ENDBRANCH  12  14
ENDBRANCH   1  12
TORSDOF 5
ENDMDL
MODEL 2
REMARK VINA RESULT:      -5.8      4.359      5.552
REMARK  5 active torsions:
REMARK  status: ('A' for Active; 'I' for Inactive)
REMARK       I    between atoms: N_4  and  C_9 
REMARK    1  A    between atoms: C_9  and  C_11 
REMARK    2  A    between atoms: C_11  and  N_12 
REMARK    3  A    between atoms: N_12  and  C_13 
REMARK    4  A    between atoms: C_13  and  C_14 
REMARK    5  A    between atoms: C_14  and  N_15 
ROOT
HETATM    1  C   UNL     1     -39.865 -50.643  11.688  1.00  0.00     0.372 C 
ENDROOT
BRANCH   1   2
HETATM    2  C   UNL     1     -38.754 -49.796  12.312  1.00  0.00     0.248 C 
HETATM    3  N   UNL     1     -38.795 -49.554  13.676  1.00  0.00    -0.346 N 
HETATM    4  C   UNL     1     -39.832 -50.003  14.606  1.00  0.00     0.157 C 
HETATM    5  C   UNL     1     -37.632 -48.982  14.348  1.00  0.00     0.157 C 
HETATM    6  C   UNL     1     -39.247 -50.996  15.630  1.00  0.00     0.136 C 
HETATM    7  C   UNL     1     -38.965 -52.371  15.026  1.00  0.00     0.041 C 
HETATM    8  O   UNL     1     -38.075 -50.455  16.271  1.00  0.00    -0.378 OA
HETATM    9  C   UNL     1     -37.061 -50.009  15.345  1.00  0.00     0.136 C 
HETATM   10  C   UNL     1     -35.928 -49.407  16.163  1.00  0.00     0.041 C 
HETATM   11  O   UNL     1     -37.844 -49.366  11.600  1.00  0.00    -0.271 OA
ENDBRANCH   1   2
BRANCH   1  12
HETATM   12  N   UNL     1     -40.585 -49.867  10.662  1.00  0.00     0.093 N 
HETATM   13  H   UNL     1     -41.160 -50.531  10.136  1.00  0.00     0.316 HD
BRANCH  12  14
HETATM   14  C   UNL     1     -41.473 -48.866  11.277  1.00  0.00     0.291 C 
BRANCH  14  15
HETATM   15  C   UNL     1     -41.634 -47.603  10.427  1.00  0.00     0.178 C 
BRANCH  15  16
HETATM   16  N   UNL     1     -42.870 -47.622   9.671  1.00  0.00    -0.302 N 
HETATM   17  C   UNL     1     -44.125 -47.393  10.151  1.00  0.00     0.118 A 
HETATM   18  C   UNL     1     -44.979 -47.526   9.077  1.00  0.00    -0.028 A 
HETATM   19  C   UNL     1     -46.447 -47.365   9.050  1.00  0.00     0.051 C 
HETATM   20  C   UNL     1     -44.126 -47.854   7.999  1.00  0.00     0.115 A 
HETATM   21  N   UNL     1     -42.842 -47.910   8.357  1.00  0.00    -0.310 N 
ATOM     22  HN  UNL     1     -42.032 -48.122   7.774  1.00  0.00     0.186 HD
ENDBRANCH  15  16
ENDBRANCH  14  15
ENDBRANCH  12  14
ENDBRANCH   1  12
TORSDOF 5
ENDMDL
MODEL 3
REMARK VINA RESULT:      -5.8      2.080      3.025
REMARK  5 active torsions:
REMARK  status: ('A' for Active; 'I' for Inactive)
REMARK       I    between atoms: N_4  and  C_9 
REMARK    1  A    between atoms: C_9  and  C_11 
REMARK    2  A    between atoms: C_11  and  N_12 
REMARK    3  A    between atoms: N_12  and  C_13 
REMARK    4  A    between atoms: C_13  and  C_14 
REMARK    5  A    between atoms: C_14  and  N_15 
ROOT
HETATM    1  C   UNL     1     -41.181 -49.909  12.165  1.00  0.00     0.372 C 
ENDROOT
BRANCH   1   2
HETATM    2  C   UNL     1     -42.390 -50.776  12.523  1.00  0.00     0.248 C 
HETATM    3  N   UNL     1     -42.264 -52.153  12.437  1.00  0.00    -0.346 N 
HETATM    4  C   UNL     1     -41.079 -52.889  11.995  1.00  0.00     0.157 C 
HETATM    5  C   UNL     1     -43.293 -53.014  13.013  1.00  0.00     0.157 C 
HETATM    6  C   UNL     1     -40.505 -53.731  13.152  1.00  0.00     0.136 C 
HETATM    7  C   UNL     1     -39.787 -52.883  14.201  1.00  0.00     0.041 C 
HETATM    8  O   UNL     1     -41.522 -54.557  13.753  1.00  0.00    -0.378 OA
HETATM    9  C   UNL     1     -42.689 -53.822  14.178  1.00  0.00     0.136 C 
HETATM   10  C   UNL     1     -43.690 -54.829  14.724  1.00  0.00     0.041 C 
HETATM   11  O   UNL     1     -43.436 -50.238  12.894  1.00  0.00    -0.271 OA
ENDBRANCH   1   2
BRANCH   1  12
HETATM   12  N   UNL     1     -41.477 -49.082  10.980  1.00  0.00     0.093 N 
HETATM   13  H   UNL     1     -42.348 -49.440  10.578  1.00  0.00     0.316 HD
BRANCH  12  14
HETATM   14  C   UNL     1     -41.680 -47.671  11.353  1.00  0.00     0.291 C 
BRANCH  14  15
HETATM   15  C   UNL     1     -41.990 -46.773  10.153  1.00  0.00     0.178 C 
BRANCH  15  16
HETATM   16  N   UNL     1     -43.159 -47.231   9.430  1.00  0.00    -0.302 N 
HETATM   17  C   UNL     1     -44.432 -47.324   9.910  1.00  0.00     0.118 A 
HETATM   18  C   UNL     1     -45.199 -47.814   8.874  1.00  0.00    -0.028 A 
HETATM   19  C   UNL     1     -46.650 -48.089   8.862  1.00  0.00     0.051 C 
HETATM   20  C   UNL     1     -44.276 -47.997   7.820  1.00  0.00     0.115 A 
HETATM   21  N   UNL     1     -43.035 -47.640   8.155  1.00  0.00    -0.310 N 
ATOM     22  HN  UNL     1     -42.192 -47.671   7.580  1.00  0.00     0.186 HD
ENDBRANCH  15  16
ENDBRANCH  14  15
ENDBRANCH  12  14
ENDBRANCH   1  12
TORSDOF 5
ENDMDL
MODEL 4
REMARK VINA RESULT:      -5.7      2.030      2.502
REMARK  5 active torsions:
REMARK  status: ('A' for Active; 'I' for Inactive)
REMARK       I    between atoms: N_4  and  C_9 
REMARK    1  A    between atoms: C_9  and  C_11 
REMARK    2  A    between atoms: C_11  and  N_12 
REMARK    3  A    between atoms: N_12  and  C_13 
REMARK    4  A    between atoms: C_13  and  C_14 
REMARK    5  A    between atoms: C_14  and  N_15 
ROOT
HETATM    1  C   UNL     1     -41.923 -52.009  12.062  1.00  0.00     0.372 C 
ENDROOT
BRANCH   1   2
HETATM    2  C   UNL     1     -41.280 -52.828  13.184  1.00  0.00     0.248 C 
HETATM    3  N   UNL     1     -42.017 -53.067  14.333  1.00  0.00    -0.346 N 
HETATM    4  C   UNL     1     -43.367 -52.578  14.614  1.00  0.00     0.157 C 
HETATM    5  C   UNL     1     -41.550 -54.051  15.305  1.00  0.00     0.157 C 
HETATM    6  C   UNL     1     -44.356 -53.756  14.721  1.00  0.00     0.136 C 
HETATM    7  C   UNL     1     -44.687 -54.375  13.364  1.00  0.00     0.041 C 
HETATM    8  O   UNL     1     -43.885 -54.752  15.649  1.00  0.00    -0.378 OA
HETATM    9  C   UNL     1     -42.549 -55.222  15.367  1.00  0.00     0.136 C 
HETATM   10  C   UNL     1     -42.170 -56.208  16.462  1.00  0.00     0.041 C 
HETATM   11  O   UNL     1     -40.138 -53.270  13.038  1.00  0.00    -0.271 OA
ENDBRANCH   1   2
BRANCH   1  12
HETATM   12  N   UNL     1     -40.883 -51.355  11.246  1.00  0.00     0.093 N 
HETATM   13  H   UNL     1     -41.192 -51.411  10.271  1.00  0.00     0.316 HD
BRANCH  12  14
HETATM   14  C   UNL     1     -40.735 -49.935  11.608  1.00  0.00     0.291 C 
BRANCH  14  15
HETATM   15  C   UNL     1     -42.060 -49.273  11.990  1.00  0.00     0.178 C 
BRANCH  15  16
HETATM   16  N   UNL     1     -42.605 -48.496  10.895  1.00  0.00    -0.302 N 
HETATM   17  C   UNL     1     -43.768 -47.786  10.897  1.00  0.00     0.118 A 
HETATM   18  C   UNL     1     -43.877 -47.222   9.643  1.00  0.00    -0.028 A 
HETATM   19  C   UNL     1     -44.947 -46.346   9.123  1.00  0.00     0.051 C 
HETATM   20  C   UNL     1     -42.726 -47.677   8.961  1.00  0.00     0.115 A 
HETATM   21  N   UNL     1     -41.949 -48.450   9.722  1.00  0.00    -0.310 N 
ATOM     22  HN  UNL     1     -41.067 -48.899   9.473  1.00  0.00     0.186 HD
ENDBRANCH  15  16
ENDBRANCH  14  15
ENDBRANCH  12  14
ENDBRANCH   1  12
TORSDOF 5
ENDMDL
MODEL 5
REMARK VINA RESULT:      -5.7      1.535      2.336
REMARK  5 active torsions:
REMARK  status: ('A' for Active; 'I' for Inactive)
REMARK       I    between atoms: N_4  and  C_9 
REMARK    1  A    between atoms: C_9  and  C_11 
REMARK    2  A    between atoms: C_11  and  N_12 
REMARK    3  A    between atoms: N_12  and  C_13 
REMARK    4  A    between atoms: C_13  and  C_14 
REMARK    5  A    between atoms: C_14  and  N_15 
ROOT
HETATM    1  C   UNL     1     -41.782 -50.689  12.838  1.00  0.00     0.372 C 
ENDROOT
BRANCH   1   2
HETATM    2  C   UNL     1     -43.243 -51.034  13.136  1.00  0.00     0.248 C 
HETATM    3  N   UNL     1     -43.614 -52.368  13.164  1.00  0.00    -0.346 N 
HETATM    4  C   UNL     1     -42.745 -53.515  12.898  1.00  0.00     0.157 C 
HETATM    5  C   UNL     1     -44.919 -52.749  13.696  1.00  0.00     0.157 C 
HETATM    6  C   UNL     1     -42.589 -54.380  14.165  1.00  0.00     0.136 C 
HETATM    7  C   UNL     1     -41.687 -53.734  15.215  1.00  0.00     0.041 C 
HETATM    8  O   UNL     1     -43.873 -54.729  14.720  1.00  0.00    -0.378 OA
HETATM    9  C   UNL     1     -44.725 -53.591  14.972  1.00  0.00     0.136 C 
HETATM   10  C   UNL     1     -46.055 -54.120  15.487  1.00  0.00     0.041 C 
HETATM   11  O   UNL     1     -44.049 -50.127  13.361  1.00  0.00    -0.271 OA
ENDBRANCH   1   2
BRANCH   1  12
HETATM   12  N   UNL     1     -41.588 -50.492  11.389  1.00  0.00     0.093 N 
HETATM   13  H   UNL     1     -42.519 -50.368  10.980  1.00  0.00     0.316 HD
BRANCH  12  14
HETATM   14  C   UNL     1     -40.793 -49.282  11.117  1.00  0.00     0.291 C 
BRANCH  14  15
HETATM   15  C   UNL     1     -41.572 -47.986  11.357  1.00  0.00     0.178 C 
BRANCH  15  16
HETATM   16  N   UNL     1     -42.633 -47.813  10.386  1.00  0.00    -0.302 N 
HETATM   17  C   UNL     1     -43.944 -47.546  10.648  1.00  0.00     0.118 A 
HETATM   18  C   UNL     1     -44.574 -47.476   9.423  1.00  0.00    -0.028 A 
HETATM   19  C   UNL     1     -45.997 -47.197   9.142  1.00  0.00     0.051 C 
HETATM   20  C   UNL     1     -43.544 -47.735   8.492  1.00  0.00     0.115 A 
HETATM   21  N   UNL     1     -42.361 -47.938   9.075  1.00  0.00    -0.310 N 
ATOM     22  HN  UNL     1     -41.465 -48.140   8.631  1.00  0.00     0.186 HD
ENDBRANCH  15  16
ENDBRANCH  14  15
ENDBRANCH  12  14
ENDBRANCH   1  12
TORSDOF 5
ENDMDL
MODEL 6
REMARK VINA RESULT:      -5.6      2.047      3.170
REMARK  5 active torsions:
REMARK  status: ('A' for Active; 'I' for Inactive)
REMARK       I    between atoms: N_4  and  C_9 
REMARK    1  A    between atoms: C_9  and  C_11 
REMARK    2  A    between atoms: C_11  and  N_12 
REMARK    3  A    between atoms: N_12  and  C_13 
REMARK    4  A    between atoms: C_13  and  C_14 
REMARK    5  A    between atoms: C_14  and  N_15 
ROOT
HETATM    1  C   UNL     1     -41.691 -52.569  12.402  1.00  0.00     0.372 C 
ENDROOT
BRANCH   1   2
HETATM    2  C   UNL     1     -42.950 -51.745  12.688  1.00  0.00     0.248 C 
HETATM    3  N   UNL     1     -44.159 -52.410  12.816  1.00  0.00    -0.346 N 
HETATM    4  C   UNL     1     -44.377 -53.850  12.668  1.00  0.00     0.157 C 
HETATM    5  C   UNL     1     -45.324 -51.705  13.341  1.00  0.00     0.157 C 
HETATM    6  C   UNL     1     -44.833 -54.466  14.006  1.00  0.00     0.136 C 
HETATM    7  C   UNL     1     -43.699 -54.577  15.023  1.00  0.00     0.041 C 
HETATM    8  O   UNL     1     -45.960 -53.752  14.553  1.00  0.00    -0.378 OA
HETATM    9  C   UNL     1     -45.737 -52.333  14.687  1.00  0.00     0.136 C 
HETATM   10  C   UNL     1     -47.026 -51.714  15.207  1.00  0.00     0.041 C 
HETATM   11  O   UNL     1     -42.861 -50.522  12.816  1.00  0.00    -0.271 OA
ENDBRANCH   1   2
BRANCH   1  12
HETATM   12  N   UNL     1     -40.785 -51.824  11.508  1.00  0.00     0.093 N 
HETATM   13  H   UNL     1     -41.356 -51.128  11.020  1.00  0.00     0.316 HD
BRANCH  12  14
HETATM   14  C   UNL     1     -39.742 -51.120  12.273  1.00  0.00     0.291 C 
BRANCH  14  15
HETATM   15  C   UNL     1     -39.262 -49.836  11.592  1.00  0.00     0.178 C 
BRANCH  15  16
HETATM   16  N   UNL     1     -40.343 -48.887  11.419  1.00  0.00    -0.302 N 
HETATM   17  C   UNL     1     -40.655 -47.845  12.240  1.00  0.00     0.118 A 
HETATM   18  C   UNL     1     -41.756 -47.231  11.682  1.00  0.00    -0.028 A 
HETATM   19  C   UNL     1     -42.485 -46.042  12.169  1.00  0.00     0.051 C 
HETATM   20  C   UNL     1     -42.032 -48.001  10.530  1.00  0.00     0.115 A 
HETATM   21  N   UNL     1     -41.172 -49.008  10.366  1.00  0.00    -0.310 N 
ATOM     22  HN  UNL     1     -41.148 -49.704   9.620  1.00  0.00     0.186 HD
ENDBRANCH  15  16
ENDBRANCH  14  15
ENDBRANCH  12  14
ENDBRANCH   1  12
TORSDOF 5
ENDMDL
MODEL 7
REMARK VINA RESULT:      -5.5      3.618      5.310
REMARK  5 active torsions:
REMARK  status: ('A' for Active; 'I' for Inactive)
REMARK       I    between atoms: N_4  and  C_9 
REMARK    1  A    between atoms: C_9  and  C_11 
REMARK    2  A    between atoms: C_11  and  N_12 
REMARK    3  A    between atoms: N_12  and  C_13 
REMARK    4  A    between atoms: C_13  and  C_14 
REMARK    5  A    between atoms: C_14  and  N_15 
ROOT
HETATM    1  C   UNL     1     -41.395 -54.219  14.133  1.00  0.00     0.372 C 
ENDROOT
BRANCH   1   2
HETATM    2  C   UNL     1     -42.347 -53.593  13.111  1.00  0.00     0.248 C 
HETATM    3  N   UNL     1     -43.700 -53.874  13.210  1.00  0.00    -0.346 N 
HETATM    4  C   UNL     1     -44.333 -54.758  14.190  1.00  0.00     0.157 C 
HETATM    5  C   UNL     1     -44.662 -53.101  12.430  1.00  0.00     0.157 C 
HETATM    6  C   UNL     1     -45.269 -53.954  15.115  1.00  0.00     0.136 C 
HETATM    7  C   UNL     1     -44.509 -53.103  16.131  1.00  0.00     0.041 C 
HETATM    8  O   UNL     1     -46.198 -53.157  14.354  1.00  0.00    -0.378 OA
HETATM    9  C   UNL     1     -45.564 -52.295  13.385  1.00  0.00     0.136 C 
HETATM   10  C   UNL     1     -46.666 -51.577  12.621  1.00  0.00     0.041 C 
HETATM   11  O   UNL     1     -41.898 -52.844  12.240  1.00  0.00    -0.271 OA
ENDBRANCH   1   2
BRANCH   1  12
HETATM   12  N   UNL     1     -40.080 -54.476  13.517  1.00  0.00     0.093 N 
HETATM   13  H   UNL     1     -40.067 -53.974  12.624  1.00  0.00     0.316 HD
BRANCH  12  14
HETATM   14  C   UNL     1     -38.987 -53.960  14.359  1.00  0.00     0.291 C 
BRANCH  14  15
HETATM   15  C   UNL     1     -39.205 -52.510  14.801  1.00  0.00     0.178 C 
BRANCH  15  16
HETATM   16  N   UNL     1     -39.011 -51.583  13.706  1.00  0.00    -0.302 N 
HETATM   17  C   UNL     1     -37.874 -51.411  12.972  1.00  0.00     0.118 A 
HETATM   18  C   UNL     1     -38.155 -50.422  12.053  1.00  0.00    -0.028 A 
HETATM   19  C   UNL     1     -37.270 -49.865  11.010  1.00  0.00     0.051 C 
HETATM   20  C   UNL     1     -39.490 -50.057  12.338  1.00  0.00     0.115 A 
HETATM   21  N   UNL     1     -40.014 -50.764  13.341  1.00  0.00    -0.310 N 
ATOM     22  HN  UNL     1     -40.952 -50.698  13.738  1.00  0.00     0.186 HD
ENDBRANCH  15  16
ENDBRANCH  14  15
ENDBRANCH  12  14
ENDBRANCH   1  12
TORSDOF 5
ENDMDL
MODEL 8
REMARK VINA RESULT:      -5.5      3.341      6.694
REMARK  5 active torsions:
REMARK  status: ('A' for Active; 'I' for Inactive)
REMARK       I    between atoms: N_4  and  C_9 
REMARK    1  A    between atoms: C_9  and  C_11 
REMARK    2  A    between atoms: C_11  and  N_12 
REMARK    3  A    between atoms: N_12  and  C_13 
REMARK    4  A    between atoms: C_13  and  C_14 
REMARK    5  A    between atoms: C_14  and  N_15 
ROOT
HETATM    1  C   UNL     1     -41.113 -47.784  13.786  1.00  0.00     0.372 C 
ENDROOT
BRANCH   1   2
HETATM    2  C   UNL     1     -42.189 -48.158  12.765  1.00  0.00     0.248 C 
HETATM    3  N   UNL     1     -42.715 -47.158  11.963  1.00  0.00    -0.346 N 
HETATM    4  C   UNL     1     -42.370 -45.736  12.012  1.00  0.00     0.157 C 
HETATM    5  C   UNL     1     -43.541 -47.508  10.811  1.00  0.00     0.157 C 
HETATM    6  C   UNL     1     -41.691 -45.300  10.698  1.00  0.00     0.136 C 
HETATM    7  C   UNL     1     -40.257 -45.811  10.575  1.00  0.00     0.041 C 
HETATM    8  O   UNL     1     -42.481 -45.676   9.552  1.00  0.00    -0.378 OA
HETATM    9  C   UNL     1     -42.822 -47.079   9.518  1.00  0.00     0.136 C 
HETATM   10  C   UNL     1     -43.704 -47.305   8.299  1.00  0.00     0.041 C 
HETATM   11  O   UNL     1     -42.550 -49.333  12.663  1.00  0.00    -0.271 OA
ENDBRANCH   1   2
BRANCH   1  12
HETATM   12  N   UNL     1     -39.770 -47.987  13.212  1.00  0.00     0.093 N 
HETATM   13  H   UNL     1     -39.184 -47.218  13.550  1.00  0.00     0.316 HD
BRANCH  12  14
HETATM   14  C   UNL     1     -39.182 -49.258  13.670  1.00  0.00     0.291 C 
BRANCH  14  15
HETATM   15  C   UNL     1     -38.911 -50.239  12.526  1.00  0.00     0.178 C 
BRANCH  15  16
HETATM   16  N   UNL     1     -39.878 -51.317  12.507  1.00  0.00    -0.302 N 
HETATM   17  C   UNL     1     -40.040 -52.286  13.452  1.00  0.00     0.118 A 
HETATM   18  C   UNL     1     -41.066 -53.092  13.006  1.00  0.00    -0.028 A 
HETATM   19  C   UNL     1     -41.649 -54.280  13.663  1.00  0.00     0.051 C 
HETATM   20  C   UNL     1     -41.437 -52.521  11.767  1.00  0.00     0.115 A 
HETATM   21  N   UNL     1     -40.717 -51.440  11.463  1.00  0.00    -0.310 N 
ATOM     22  HN  UNL     1     -40.787 -50.847  10.635  1.00  0.00     0.186 HD
ENDBRANCH  15  16
ENDBRANCH  14  15
ENDBRANCH  12  14
ENDBRANCH   1  12
TORSDOF 5
ENDMDL
MODEL 9
REMARK VINA RESULT:      -5.5      2.616      3.462
REMARK  5 active torsions:
REMARK  status: ('A' for Active; 'I' for Inactive)
REMARK       I    between atoms: N_4  and  C_9 
REMARK    1  A    between atoms: C_9  and  C_11 
REMARK    2  A    between atoms: C_11  and  N_12 
REMARK    3  A    between atoms: N_12  and  C_13 
REMARK    4  A    between atoms: C_13  and  C_14 
REMARK    5  A    between atoms: C_14  and  N_15 
ROOT
HETATM    1  C   UNL     1     -40.660 -51.294  12.777  1.00  0.00     0.372 C 
ENDROOT
BRANCH   1   2
HETATM    2  C   UNL     1     -41.201 -52.713  12.971  1.00  0.00     0.248 C 
HETATM    3  N   UNL     1     -42.161 -52.926  13.947  1.00  0.00    -0.346 N 
HETATM    4  C   UNL     1     -42.706 -51.921  14.861  1.00  0.00     0.157 C 
HETATM    5  C   UNL     1     -42.886 -54.192  13.989  1.00  0.00     0.157 C 
HETATM    6  C   UNL     1     -44.208 -51.703  14.590  1.00  0.00     0.136 C 
HETATM    7  C   UNL     1     -44.470 -50.914  13.307  1.00  0.00     0.041 C 
HETATM    8  O   UNL     1     -44.927 -52.952  14.591  1.00  0.00    -0.378 OA
HETATM    9  C   UNL     1     -44.377 -53.938  13.692  1.00  0.00     0.136 C 
HETATM   10  C   UNL     1     -45.192 -55.212  13.855  1.00  0.00     0.041 C 
HETATM   11  O   UNL     1     -40.788 -53.625  12.252  1.00  0.00    -0.271 OA
ENDBRANCH   1   2
BRANCH   1  12
HETATM   12  N   UNL     1     -40.649 -50.943  11.344  1.00  0.00     0.093 N 
HETATM   13  H   UNL     1     -41.623 -50.962  11.027  1.00  0.00     0.316 HD
BRANCH  12  14
HETATM   14  C   UNL     1     -40.115 -49.587  11.132  1.00  0.00     0.291 C 
BRANCH  14  15
HETATM   15  C   UNL     1     -41.191 -48.500  11.204  1.00  0.00     0.178 C 
BRANCH  15  16
HETATM   16  N   UNL     1     -40.608 -47.178  11.309  1.00  0.00    -0.302 N 
HETATM   17  C   UNL     1     -40.118 -46.588  12.437  1.00  0.00     0.118 A 
HETATM   18  C   UNL     1     -39.679 -45.337  12.057  1.00  0.00    -0.028 A 
HETATM   19  C   UNL     1     -39.049 -44.296  12.894  1.00  0.00     0.051 C 
HETATM   20  C   UNL     1     -39.971 -45.276  10.676  1.00  0.00     0.115 A 
HETATM   21  N   UNL     1     -40.534 -46.395  10.218  1.00  0.00    -0.310 N 
ATOM     22  HN  UNL     1     -40.836 -46.607   9.266  1.00  0.00     0.186 HD
ENDBRANCH  15  16
ENDBRANCH  14  15
ENDBRANCH  12  14
ENDBRANCH   1  12
TORSDOF 5
ENDMDL
