MODEL 1
REMARK VINA RESULT:      -6.1      0.000      0.000
REMARK  4 active torsions:
REMARK  status: ('A' for Active; 'I' for Inactive)
REMARK    1  A    between atoms: C_5  and  N_6 
REMARK       I    between atoms: N_6  and  C_7 
REMARK       I    between atoms: C_7  and  N_9 
REMARK    2  A    between atoms: N_9  and  C_10 
REMARK    3  A    between atoms: C_10  and  C_11 
REMARK    4  A    between atoms: C_11  and  N_12 
ROOT
HETATM    1  N   UNL     1     -42.636 -50.742  12.177  1.00  0.00    -0.336 N 
HETATM    2  C   UNL     1     -42.197 -49.448  12.091  1.00  0.00     0.316 C 
HETATM    3  O   UNL     1     -41.801 -48.787  13.039  1.00  0.00    -0.247 OA
HETATM    4  N   UNL     1     -42.222 -48.997  10.793  1.00  0.00    -0.342 N 
HETATM    5  H   UNL     1     -43.311 -51.018  11.478  1.00  0.00     0.164 HD
HETATM    6  H   UNL     1     -42.065 -49.735  10.121  1.00  0.00     0.164 HD
ENDROOT
BRANCH   1   7
HETATM    7  C   UNL     1     -42.676 -51.429  13.462  1.00  0.00     0.122 C 
HETATM    8  C   UNL     1     -42.288 -52.895  13.318  1.00  0.00     0.065 C 
HETATM    9  C   UNL     1     -43.416 -53.694  13.962  1.00  0.00     0.057 C 
HETATM   10  C   UNL     1     -42.879 -54.761  14.918  1.00  0.00     0.045 C 
HETATM   11  C   UNL     1     -44.303 -54.377  12.917  1.00  0.00     0.045 C 
HETATM   12  O   UNL     1     -44.209 -52.768  14.717  1.00  0.00    -0.369 OA
HETATM   13  C   UNL     1     -44.034 -51.432  14.198  1.00  0.00     0.075 C 
HETATM   14  C   UNL     1     -44.039 -50.470  15.392  1.00  0.00     0.048 C 
HETATM   15  C   UNL     1     -45.252 -51.109  13.325  1.00  0.00     0.048 C 
ENDBRANCH   1   7
BRANCH   4  16
HETATM   16  C   UNL     1     -41.629 -47.698  10.506  1.00  0.00     0.144 C 
BRANCH  16  17
HETATM   17  C   UNL     1     -42.659 -46.667  10.068  1.00  0.00     0.149 C 
BRANCH  17  18
HETATM   18  N   UNL     1     -43.705 -47.252   9.258  1.00  0.00    -0.350 N 
HETATM   19  C   UNL     1     -45.005 -47.448   9.626  1.00  0.00     0.108 A 
HETATM   20  C   UNL     1     -45.600 -48.020   8.525  1.00  0.00     0.106 A 
HETATM   21  N   UNL     1     -44.698 -48.167   7.506  1.00  0.00    -0.361 N 
HETATM   22  C   UNL     1     -43.564 -47.696   7.975  1.00  0.00     0.182 A 
ATOM     23  HN  UNL     1     -44.869 -48.559   6.579  1.00  0.00     0.166 HD
ENDBRANCH  17  18
ENDBRANCH  16  17
ENDBRANCH   4  16
TORSDOF 4
ENDMDL
MODEL 2
REMARK VINA RESULT:      -5.6      2.990      4.760
REMARK  4 active torsions:
REMARK  status: ('A' for Active; 'I' for Inactive)
REMARK    1  A    between atoms: C_5  and  N_6 
REMARK       I    between atoms: N_6  and  C_7 
REMARK       I    between atoms: C_7  and  N_9 
REMARK    2  A    between atoms: N_9  and  C_10 
REMARK    3  A    between atoms: C_10  and  C_11 
REMARK    4  A    between atoms: C_11  and  N_12 
ROOT
HETATM    1  N   UNL     1     -42.941 -51.661  12.576  1.00  0.00    -0.336 N 
HETATM    2  C   UNL     1     -41.747 -51.257  12.040  1.00  0.00     0.316 C 
HETATM    3  O   UNL     1     -40.775 -51.982  11.893  1.00  0.00    -0.247 OA
HETATM    4  N   UNL     1     -41.794 -49.939  11.651  1.00  0.00    -0.342 N 
HETATM    5  H   UNL     1     -43.476 -50.936  13.034  1.00  0.00     0.164 HD
HETATM    6  H   UNL     1     -42.716 -49.652  11.357  1.00  0.00     0.164 HD
ENDROOT
BRANCH   1   7
HETATM    7  C   UNL     1     -43.122 -53.030  13.039  1.00  0.00     0.122 C 
HETATM    8  C   UNL     1     -44.510 -53.554  12.690  1.00  0.00     0.065 C 
HETATM    9  C   UNL     1     -45.105 -54.072  13.995  1.00  0.00     0.057 C 
HETATM   10  C   UNL     1     -45.715 -55.464  13.825  1.00  0.00     0.045 C 
HETATM   11  C   UNL     1     -46.181 -53.131  14.546  1.00  0.00     0.045 C 
HETATM   12  O   UNL     1     -44.031 -54.160  14.940  1.00  0.00    -0.369 OA
HETATM   13  C   UNL     1     -42.962 -53.270  14.557  1.00  0.00     0.075 C 
HETATM   14  C   UNL     1     -41.638 -53.971  14.887  1.00  0.00     0.048 C 
HETATM   15  C   UNL     1     -43.063 -52.015  15.432  1.00  0.00     0.048 C 
ENDBRANCH   1   7
BRANCH   4  16
HETATM   16  C   UNL     1     -40.661 -49.403  10.910  1.00  0.00     0.144 C 
BRANCH  16  17
HETATM   17  C   UNL     1     -39.691 -48.633  11.796  1.00  0.00     0.149 C 
BRANCH  17  18
HETATM   18  N   UNL     1     -38.726 -49.504  12.430  1.00  0.00    -0.350 N 
HETATM   19  C   UNL     1     -38.628 -49.773  13.766  1.00  0.00     0.108 A 
HETATM   20  C   UNL     1     -37.575 -50.652  13.872  1.00  0.00     0.106 A 
HETATM   21  N   UNL     1     -37.042 -50.923  12.640  1.00  0.00    -0.361 N 
HETATM   22  C   UNL     1     -37.755 -50.218  11.790  1.00  0.00     0.182 A 
ATOM     23  HN  UNL     1     -36.258 -51.541  12.427  1.00  0.00     0.166 HD
ENDBRANCH  17  18
ENDBRANCH  16  17
ENDBRANCH   4  16
TORSDOF 4
ENDMDL
MODEL 3
REMARK VINA RESULT:      -5.5      4.278      7.310
REMARK  4 active torsions:
REMARK  status: ('A' for Active; 'I' for Inactive)
REMARK    1  A    between atoms: C_5  and  N_6 
REMARK       I    between atoms: N_6  and  C_7 
REMARK       I    between atoms: C_7  and  N_9 
REMARK    2  A    between atoms: N_9  and  C_10 
REMARK    3  A    between atoms: C_10  and  C_11 
REMARK    4  A    between atoms: C_11  and  N_12 
ROOT
HETATM    1  N   UNL     1     -40.175 -51.156  13.356  1.00  0.00    -0.336 N 
HETATM    2  C   UNL     1     -40.454 -52.488  13.214  1.00  0.00     0.316 C 
HETATM    3  O   UNL     1     -39.612 -53.374  13.197  1.00  0.00    -0.247 OA
HETATM    4  N   UNL     1     -41.808 -52.710  13.131  1.00  0.00    -0.342 N 
HETATM    5  H   UNL     1     -40.844 -50.527  12.935  1.00  0.00     0.164 HD
HETATM    6  H   UNL     1     -42.346 -52.032  13.652  1.00  0.00     0.164 HD
ENDROOT
BRANCH   1   7
HETATM    7  C   UNL     1     -38.799 -50.694  13.481  1.00  0.00     0.122 C 
HETATM    8  C   UNL     1     -38.501 -50.219  14.898  1.00  0.00     0.065 C 
HETATM    9  C   UNL     1     -37.927 -48.813  14.758  1.00  0.00     0.057 C 
HETATM   10  C   UNL     1     -36.652 -48.638  15.586  1.00  0.00     0.045 C 
HETATM   11  C   UNL     1     -38.934 -47.739  15.180  1.00  0.00     0.045 C 
HETATM   12  O   UNL     1     -37.598 -48.630  13.375  1.00  0.00    -0.369 OA
HETATM   13  C   UNL     1     -38.377 -49.529  12.558  1.00  0.00     0.075 C 
HETATM   14  C   UNL     1     -37.479 -50.006  11.411  1.00  0.00     0.048 C 
HETATM   15  C   UNL     1     -39.533 -48.724  11.952  1.00  0.00     0.048 C 
ENDBRANCH   1   7
BRANCH   4  16
HETATM   16  C   UNL     1     -42.280 -54.088  13.145  1.00  0.00     0.144 C 
BRANCH  16  17
HETATM   17  C   UNL     1     -42.750 -54.533  14.523  1.00  0.00     0.149 C 
BRANCH  17  18
HETATM   18  N   UNL     1     -44.190 -54.484  14.649  1.00  0.00    -0.350 N 
HETATM   19  C   UNL     1     -44.897 -53.929  15.678  1.00  0.00     0.108 A 
HETATM   20  C   UNL     1     -46.218 -54.122  15.341  1.00  0.00     0.106 A 
HETATM   21  N   UNL     1     -46.323 -54.770  14.139  1.00  0.00    -0.361 N 
HETATM   22  C   UNL     1     -45.086 -54.975  13.745  1.00  0.00     0.182 A 
ATOM     23  HN  UNL     1     -47.180 -55.036  13.653  1.00  0.00     0.166 HD
ENDBRANCH  17  18
ENDBRANCH  16  17
ENDBRANCH   4  16
TORSDOF 4
ENDMDL
MODEL 4
REMARK VINA RESULT:      -5.4      3.033      3.740
REMARK  4 active torsions:
REMARK  status: ('A' for Active; 'I' for Inactive)
REMARK    1  A    between atoms: C_5  and  N_6 
REMARK       I    between atoms: N_6  and  C_7 
REMARK       I    between atoms: C_7  and  N_9 
REMARK    2  A    between atoms: N_9  and  C_10 
REMARK    3  A    between atoms: C_10  and  C_11 
REMARK    4  A    between atoms: C_11  and  N_12 
ROOT
HETATM    1  N   UNL     1     -42.635 -51.858  12.418  1.00  0.00    -0.336 N 
HETATM    2  C   UNL     1     -41.361 -51.494  12.071  1.00  0.00     0.316 C 
HETATM    3  O   UNL     1     -40.385 -52.224  12.160  1.00  0.00    -0.247 OA
HETATM    4  N   UNL     1     -41.325 -50.214  11.572  1.00  0.00    -0.342 N 
HETATM    5  H   UNL     1     -43.235 -51.100  12.712  1.00  0.00     0.164 HD
HETATM    6  H   UNL     1     -42.178 -49.957  11.097  1.00  0.00     0.164 HD
ENDROOT
BRANCH   1   7
HETATM    7  C   UNL     1     -42.909 -53.184  12.954  1.00  0.00     0.122 C 
HETATM    8  C   UNL     1     -44.314 -53.649  12.591  1.00  0.00     0.065 C 
HETATM    9  C   UNL     1     -44.975 -54.053  13.904  1.00  0.00     0.057 C 
HETATM   10  C   UNL     1     -45.661 -55.417  13.796  1.00  0.00     0.045 C 
HETATM   11  C   UNL     1     -46.010 -53.022  14.365  1.00  0.00     0.045 C 
HETATM   12  O   UNL     1     -43.936 -54.146  14.888  1.00  0.00    -0.369 OA
HETATM   13  C   UNL     1     -42.806 -53.342  14.488  1.00  0.00     0.075 C 
HETATM   14  C   UNL     1     -41.535 -54.095  14.900  1.00  0.00     0.048 C 
HETATM   15  C   UNL     1     -42.860 -52.033  15.285  1.00  0.00     0.048 C 
ENDBRANCH   1   7
BRANCH   4  16
HETATM   16  C   UNL     1     -40.073 -49.735  11.002  1.00  0.00     0.144 C 
BRANCH  16  17
HETATM   17  C   UNL     1     -39.351 -48.751  11.912  1.00  0.00     0.149 C 
BRANCH  17  18
HETATM   18  N   UNL     1     -40.063 -47.498  12.032  1.00  0.00    -0.350 N 
HETATM   19  C   UNL     1     -40.414 -46.661  11.011  1.00  0.00     0.108 A 
HETATM   20  C   UNL     1     -41.073 -45.619  11.622  1.00  0.00     0.106 A 
HETATM   21  N   UNL     1     -41.135 -45.809  12.976  1.00  0.00    -0.361 N 
HETATM   22  C   UNL     1     -40.518 -46.949  13.196  1.00  0.00     0.182 A 
ATOM     23  HN  UNL     1     -41.567 -45.196  13.668  1.00  0.00     0.166 HD
ENDBRANCH  17  18
ENDBRANCH  16  17
ENDBRANCH   4  16
TORSDOF 4
ENDMDL
MODEL 5
REMARK VINA RESULT:      -5.4      1.918      2.828
REMARK  4 active torsions:
REMARK  status: ('A' for Active; 'I' for Inactive)
REMARK    1  A    between atoms: C_5  and  N_6 
REMARK       I    between atoms: N_6  and  C_7 
REMARK       I    between atoms: C_7  and  N_9 
REMARK    2  A    between atoms: N_9  and  C_10 
REMARK    3  A    between atoms: C_10  and  C_11 
REMARK    4  A    between atoms: C_11  and  N_12 
ROOT
HETATM    1  N   UNL     1     -43.865 -50.360  12.898  1.00  0.00    -0.336 N 
HETATM    2  C   UNL     1     -42.823 -49.524  12.599  1.00  0.00     0.316 C 
HETATM    3  O   UNL     1     -41.789 -49.449  13.245  1.00  0.00    -0.247 OA
HETATM    4  N   UNL     1     -43.071 -48.805  11.453  1.00  0.00    -0.342 N 
HETATM    5  H   UNL     1     -44.775 -50.042  12.595  1.00  0.00     0.164 HD
HETATM    6  H   UNL     1     -43.651 -49.307  10.796  1.00  0.00     0.164 HD
ENDROOT
BRANCH   1   7
HETATM    7  C   UNL     1     -43.808 -51.231  14.064  1.00  0.00     0.122 C 
HETATM    8  C   UNL     1     -43.109 -52.545  13.740  1.00  0.00     0.065 C 
HETATM    9  C   UNL     1     -44.064 -53.649  14.181  1.00  0.00     0.057 C 
HETATM   10  C   UNL     1     -43.348 -54.718  15.010  1.00  0.00     0.045 C 
HETATM   11  C   UNL     1     -44.742 -54.330  12.988  1.00  0.00     0.045 C 
HETATM   12  O   UNL     1     -45.066 -53.035  15.002  1.00  0.00    -0.369 OA
HETATM   13  C   UNL     1     -45.162 -51.629  14.693  1.00  0.00     0.075 C 
HETATM   14  C   UNL     1     -45.420 -50.884  16.009  1.00  0.00     0.048 C 
HETATM   15  C   UNL     1     -46.386 -51.431  13.791  1.00  0.00     0.048 C 
ENDBRANCH   1   7
BRANCH   4  16
HETATM   16  C   UNL     1     -41.992 -47.994  10.906  1.00  0.00     0.144 C 
BRANCH  16  17
HETATM   17  C   UNL     1     -42.498 -46.741  10.205  1.00  0.00     0.149 C 
BRANCH  17  18
HETATM   18  N   UNL     1     -41.738 -45.567  10.572  1.00  0.00    -0.350 N 
HETATM   19  C   UNL     1     -42.232 -44.412  11.107  1.00  0.00     0.108 A 
HETATM   20  C   UNL     1     -41.131 -43.607  11.287  1.00  0.00     0.106 A 
HETATM   21  N   UNL     1     -39.990 -44.247  10.882  1.00  0.00    -0.361 N 
HETATM   22  C   UNL     1     -40.385 -45.426  10.455  1.00  0.00     0.182 A 
ATOM     23  HN  UNL     1     -39.036 -43.885  10.906  1.00  0.00     0.166 HD
ENDBRANCH  17  18
ENDBRANCH  16  17
ENDBRANCH   4  16
TORSDOF 4
ENDMDL
MODEL 6
REMARK VINA RESULT:      -5.3      2.171      6.929
REMARK  4 active torsions:
REMARK  status: ('A' for Active; 'I' for Inactive)
REMARK    1  A    between atoms: C_5  and  N_6 
REMARK       I    between atoms: N_6  and  C_7 
REMARK       I    between atoms: C_7  and  N_9 
REMARK    2  A    between atoms: N_9  and  C_10 
REMARK    3  A    between atoms: C_10  and  C_11 
REMARK    4  A    between atoms: C_11  and  N_12 
ROOT
HETATM    1  N   UNL     1     -42.533 -49.124  11.393  1.00  0.00    -0.336 N 
HETATM    2  C   UNL     1     -41.866 -50.246  11.805  1.00  0.00     0.316 C 
HETATM    3  O   UNL     1     -40.742 -50.558  11.438  1.00  0.00    -0.247 OA
HETATM    4  N   UNL     1     -42.605 -50.962  12.716  1.00  0.00    -0.342 N 
HETATM    5  H   UNL     1     -43.540 -49.193  11.399  1.00  0.00     0.164 HD
HETATM    6  H   UNL     1     -43.205 -50.374  13.278  1.00  0.00     0.164 HD
ENDROOT
BRANCH   1   7
HETATM    7  C   UNL     1     -41.924 -48.207  10.438  1.00  0.00     0.122 C 
HETATM    8  C   UNL     1     -40.957 -47.252  11.127  1.00  0.00     0.065 C 
HETATM    9  C   UNL     1     -41.386 -45.849  10.713  1.00  0.00     0.057 C 
HETATM   10  C   UNL     1     -40.195 -45.007  10.249  1.00  0.00     0.045 C 
HETATM   11  C   UNL     1     -42.093 -45.107  11.852  1.00  0.00     0.045 C 
HETATM   12  O   UNL     1     -42.294 -45.994   9.613  1.00  0.00    -0.369 OA
HETATM   13  C   UNL     1     -42.891 -47.307   9.636  1.00  0.00     0.075 C 
HETATM   14  C   UNL     1     -43.033 -47.775   8.183  1.00  0.00     0.048 C 
HETATM   15  C   UNL     1     -44.299 -47.169  10.229  1.00  0.00     0.048 C 
ENDBRANCH   1   7
BRANCH   4  16
HETATM   16  C   UNL     1     -41.970 -52.093  13.379  1.00  0.00     0.144 C 
BRANCH  16  17
HETATM   17  C   UNL     1     -42.740 -52.563  14.605  1.00  0.00     0.149 C 
BRANCH  17  18
HETATM   18  N   UNL     1     -44.093 -52.960  14.280  1.00  0.00    -0.350 N 
HETATM   19  C   UNL     1     -45.242 -52.362  14.713  1.00  0.00     0.108 A 
HETATM   20  C   UNL     1     -46.256 -53.088  14.132  1.00  0.00     0.106 A 
HETATM   21  N   UNL     1     -45.750 -54.099  13.360  1.00  0.00    -0.361 N 
HETATM   22  C   UNL     1     -44.444 -53.998  13.467  1.00  0.00     0.182 A 
ATOM     23  HN  UNL     1     -46.276 -54.785  12.816  1.00  0.00     0.166 HD
ENDBRANCH  17  18
ENDBRANCH  16  17
ENDBRANCH   4  16
TORSDOF 4
ENDMDL
MODEL 7
REMARK VINA RESULT:      -5.3      2.720      3.308
REMARK  4 active torsions:
REMARK  status: ('A' for Active; 'I' for Inactive)
REMARK    1  A    between atoms: C_5  and  N_6 
REMARK       I    between atoms: N_6  and  C_7 
REMARK       I    between atoms: C_7  and  N_9 
REMARK    2  A    between atoms: N_9  and  C_10 
REMARK    3  A    between atoms: C_10  and  C_11 
REMARK    4  A    between atoms: C_11  and  N_12 
ROOT
HETATM    1  N   UNL     1     -44.009 -50.140  13.863  1.00  0.00    -0.336 N 
HETATM    2  C   UNL     1     -43.118 -49.199  14.303  1.00  0.00     0.316 C 
HETATM    3  O   UNL     1     -42.504 -49.266  15.358  1.00  0.00    -0.247 OA
HETATM    4  N   UNL     1     -42.969 -48.183  13.388  1.00  0.00    -0.342 N 
HETATM    5  H   UNL     1     -44.736 -49.794  13.252  1.00  0.00     0.164 HD
HETATM    6  H   UNL     1     -43.098 -48.495  12.436  1.00  0.00     0.164 HD
ENDROOT
BRANCH   1   7
HETATM    7  C   UNL     1     -44.306 -51.316  14.669  1.00  0.00     0.122 C 
HETATM    8  C   UNL     1     -43.320 -52.444  14.386  1.00  0.00     0.065 C 
HETATM    9  C   UNL     1     -44.166 -53.668  14.052  1.00  0.00     0.057 C 
HETATM   10  C   UNL     1     -43.701 -54.905  14.823  1.00  0.00     0.045 C 
HETATM   11  C   UNL     1     -44.142 -53.988  12.554  1.00  0.00     0.045 C 
HETATM   12  O   UNL     1     -45.512 -53.369  14.446  1.00  0.00    -0.369 OA
HETATM   13  C   UNL     1     -45.708 -51.939  14.487  1.00  0.00     0.075 C 
HETATM   14  C   UNL     1     -46.626 -51.634  15.677  1.00  0.00     0.048 C 
HETATM   15  C   UNL     1     -46.443 -51.532  13.205  1.00  0.00     0.048 C 
ENDBRANCH   1   7
BRANCH   4  16
HETATM   16  C   UNL     1     -41.932 -47.189  13.629  1.00  0.00     0.144 C 
BRANCH  16  17
HETATM   17  C   UNL     1     -41.047 -46.957  12.412  1.00  0.00     0.149 C 
BRANCH  17  18
HETATM   18  N   UNL     1     -40.563 -48.197  11.847  1.00  0.00    -0.350 N 
HETATM   19  C   UNL     1     -39.571 -48.988  12.354  1.00  0.00     0.108 A 
HETATM   20  C   UNL     1     -39.482 -50.045  11.478  1.00  0.00     0.106 A 
HETATM   21  N   UNL     1     -40.395 -49.916  10.465  1.00  0.00    -0.361 N 
HETATM   22  C   UNL     1     -41.032 -48.793  10.713  1.00  0.00     0.182 A 
ATOM     23  HN  UNL     1     -40.547 -50.555   9.684  1.00  0.00     0.166 HD
ENDBRANCH  17  18
ENDBRANCH  16  17
ENDBRANCH   4  16
TORSDOF 4
ENDMDL
MODEL 8
REMARK VINA RESULT:      -5.2      3.782      5.290
REMARK  4 active torsions:
REMARK  status: ('A' for Active; 'I' for Inactive)
REMARK    1  A    between atoms: C_5  and  N_6 
REMARK       I    between atoms: N_6  and  C_7 
REMARK       I    between atoms: C_7  and  N_9 
REMARK    2  A    between atoms: N_9  and  C_10 
REMARK    3  A    between atoms: C_10  and  C_11 
REMARK    4  A    between atoms: C_11  and  N_12 
ROOT
HETATM    1  N   UNL     1     -42.666 -51.207  14.701  1.00  0.00    -0.336 N 
HETATM    2  C   UNL     1     -41.304 -51.334  14.653  1.00  0.00     0.316 C 
HETATM    3  O   UNL     1     -40.698 -51.975  13.808  1.00  0.00    -0.247 OA
HETATM    4  N   UNL     1     -40.699 -50.614  15.655  1.00  0.00    -0.342 N 
HETATM    5  H   UNL     1     -43.054 -51.050  15.621  1.00  0.00     0.164 HD
HETATM    6  H   UNL     1     -41.221 -49.787  15.911  1.00  0.00     0.164 HD
ENDROOT
BRANCH   1   7
HETATM    7  C   UNL     1     -43.510 -51.875  13.718  1.00  0.00     0.122 C 
HETATM    8  C   UNL     1     -44.667 -50.982  13.285  1.00  0.00     0.065 C 
HETATM    9  C   UNL     1     -45.932 -51.809  13.486  1.00  0.00     0.057 C 
HETATM   10  C   UNL     1     -46.844 -51.754  12.258  1.00  0.00     0.045 C 
HETATM   11  C   UNL     1     -46.731 -51.345  14.708  1.00  0.00     0.045 C 
HETATM   12  O   UNL     1     -45.521 -53.168  13.683  1.00  0.00    -0.369 OA
HETATM   13  C   UNL     1     -44.158 -53.206  14.158  1.00  0.00     0.075 C 
HETATM   14  C   UNL     1     -43.476 -54.415  13.507  1.00  0.00     0.048 C 
HETATM   15  C   UNL     1     -44.199 -53.445  15.672  1.00  0.00     0.048 C 
ENDBRANCH   1   7
BRANCH   4  16
HETATM   16  C   UNL     1     -39.246 -50.507  15.643  1.00  0.00     0.144 C 
BRANCH  16  17
HETATM   17  C   UNL     1     -38.756 -49.256  14.926  1.00  0.00     0.149 C 
BRANCH  17  18
HETATM   18  N   UNL     1     -38.407 -49.521  13.547  1.00  0.00    -0.350 N 
HETATM   19  C   UNL     1     -37.547 -50.482  13.097  1.00  0.00     0.108 A 
HETATM   20  C   UNL     1     -37.553 -50.345  11.728  1.00  0.00     0.106 A 
HETATM   21  N   UNL     1     -38.395 -49.336  11.343  1.00  0.00    -0.361 N 
HETATM   22  C   UNL     1     -38.896 -48.857  12.460  1.00  0.00     0.182 A 
ATOM     23  HN  UNL     1     -38.592 -49.022  10.392  1.00  0.00     0.166 HD
ENDBRANCH  17  18
ENDBRANCH  16  17
ENDBRANCH   4  16
TORSDOF 4
ENDMDL
MODEL 9
REMARK VINA RESULT:      -5.0      6.230     10.005
REMARK  4 active torsions:
REMARK  status: ('A' for Active; 'I' for Inactive)
REMARK    1  A    between atoms: C_5  and  N_6 
REMARK       I    between atoms: N_6  and  C_7 
REMARK       I    between atoms: C_7  and  N_9 
REMARK    2  A    between atoms: N_9  and  C_10 
REMARK    3  A    between atoms: C_10  and  C_11 
REMARK    4  A    between atoms: C_11  and  N_12 
ROOT
HETATM    1  N   UNL     1     -45.754 -53.732  16.547  1.00  0.00    -0.336 N 
HETATM    2  C   UNL     1     -45.452 -54.336  17.738  1.00  0.00     0.316 C 
HETATM    3  O   UNL     1     -44.324 -54.438  18.197  1.00  0.00    -0.247 OA
HETATM    4  N   UNL     1     -46.587 -54.781  18.375  1.00  0.00    -0.342 N 
HETATM    5  H   UNL     1     -46.584 -54.076  16.086  1.00  0.00     0.164 HD
HETATM    6  H   UNL     1     -47.395 -54.210  18.174  1.00  0.00     0.164 HD
ENDROOT
BRANCH   1   7
HETATM    7  C   UNL     1     -44.701 -53.169  15.712  1.00  0.00     0.122 C 
HETATM    8  C   UNL     1     -45.020 -51.734  15.311  1.00  0.00     0.065 C 
HETATM    9  C   UNL     1     -44.901 -51.686  13.792  1.00  0.00     0.057 C 
HETATM   10  C   UNL     1     -44.067 -50.490  13.328  1.00  0.00     0.045 C 
HETATM   11  C   UNL     1     -46.272 -51.617  13.112  1.00  0.00     0.045 C 
HETATM   12  O   UNL     1     -44.235 -52.888  13.384  1.00  0.00    -0.369 OA
HETATM   13  C   UNL     1     -44.402 -53.910  14.389  1.00  0.00     0.075 C 
HETATM   14  C   UNL     1     -43.091 -54.702  14.463  1.00  0.00     0.048 C 
HETATM   15  C   UNL     1     -45.504 -54.861  13.909  1.00  0.00     0.048 C 
ENDBRANCH   1   7
BRANCH   4  16
HETATM   16  C   UNL     1     -46.455 -55.296  19.731  1.00  0.00     0.144 C 
BRANCH  16  17
HETATM   17  C   UNL     1     -47.733 -55.142  20.544  1.00  0.00     0.149 C 
BRANCH  17  18
HETATM   18  N   UNL     1     -48.656 -56.233  20.319  1.00  0.00    -0.350 N 
HETATM   19  C   UNL     1     -48.335 -57.499  19.919  1.00  0.00     0.108 A 
HETATM   20  C   UNL     1     -49.539 -58.163  19.855  1.00  0.00     0.106 A 
HETATM   21  N   UNL     1     -50.570 -57.335  20.212  1.00  0.00    -0.361 N 
HETATM   22  C   UNL     1     -50.009 -56.179  20.486  1.00  0.00     0.182 A 
ATOM     23  HN  UNL     1     -51.563 -57.568  20.255  1.00  0.00     0.166 HD
ENDBRANCH  17  18
ENDBRANCH  16  17
ENDBRANCH   4  16
TORSDOF 4
ENDMDL
