MODEL 1
REMARK VINA RESULT:      -6.4      0.000      0.000
REMARK  7 active torsions:
REMARK  status: ('A' for Active; 'I' for Inactive)
REMARK       I    between atoms: C_2  and  N_4 
REMARK    1  A    between atoms: N_4  and  C_5 
REMARK    2  A    between atoms: C_5  and  C_6 
REMARK    3  A    between atoms: C_6  and  C_7 
REMARK    4  A    between atoms: N_16  and  C_17 
REMARK    5  A    between atoms: C_17  and  C_18 
REMARK    6  A    between atoms: C_18  and  O_19 
REMARK    7  A    between atoms: O_19  and  C_20 
ROOT
HETATM    1  C   UNL     1     -42.616 -50.499  12.473  1.00  0.00     0.086 A 
HETATM    2  N   UNL     1     -43.844 -50.165  12.809  1.00  0.00    -0.344 N 
ATOM      3  HN  UNL     1     -44.237 -49.225  12.839  1.00  0.00     0.167 HD
HETATM    4  C   UNL     1     -44.485 -51.332  13.109  1.00  0.00     0.060 A 
HETATM    5  C   UNL     1     -45.808 -51.516  13.539  1.00  0.00     0.032 A 
HETATM    6  C   UNL     1     -46.275 -52.807  13.796  1.00  0.00     0.002 A 
HETATM    7  C   UNL     1     -45.436 -53.899  13.624  1.00  0.00     0.002 A 
HETATM    8  C   UNL     1     -44.113 -53.732  13.198  1.00  0.00     0.032 A 
HETATM    9  C   UNL     1     -43.640 -52.431  12.943  1.00  0.00     0.062 A 
HETATM   10  N   UNL     1     -42.441 -51.877  12.522  1.00  0.00    -0.333 N 
ENDROOT
BRANCH  10  11
HETATM   11  C   UNL     1     -41.186 -52.539  12.171  1.00  0.00     0.157 C 
BRANCH  11  12
HETATM   12  C   UNL     1     -40.358 -53.046  13.340  1.00  0.00     0.196 C 
BRANCH  12  13
HETATM   13  O   UNL     1     -38.968 -52.731  13.232  1.00  0.00    -0.350 OA
BRANCH  13  14
HETATM   14  C   UNL     1     -38.684 -51.396  13.434  1.00  0.00     0.068 A 
HETATM   15  C   UNL     1     -39.017 -50.656  14.577  1.00  0.00     0.037 A 
HETATM   16  C   UNL     1     -38.699 -49.297  14.668  1.00  0.00     0.003 A 
HETATM   17  C   UNL     1     -38.038 -48.670  13.619  1.00  0.00     0.000 A 
HETATM   18  C   UNL     1     -37.689 -49.400  12.483  1.00  0.00     0.003 A 
HETATM   19  C   UNL     1     -38.010 -50.759  12.392  1.00  0.00     0.037 A 
ENDBRANCH  13  14
ENDBRANCH  12  13
ENDBRANCH  11  12
ENDBRANCH  10  11
BRANCH   1  20
HETATM   20  C   UNL     1     -41.557 -49.522  12.069  1.00  0.00     0.096 C 
BRANCH  20  21
HETATM   21  C   UNL     1     -42.169 -48.247  11.475  1.00  0.00     0.130 C 
BRANCH  21  22
HETATM   22  N   UNL     1     -42.534 -48.392  10.074  1.00  0.00    -0.361 N 
HETATM   23  C   UNL     1     -43.127 -47.365   9.372  1.00  0.00     0.213 C 
HETATM   24  C   UNL     1     -43.475 -47.733   7.957  1.00  0.00     0.117 C 
HETATM   25  O   UNL     1     -43.332 -46.246   9.832  1.00  0.00    -0.274 OA
HETATM   26  H   UNL     1     -42.592 -49.330   9.697  1.00  0.00     0.162 HD
ENDBRANCH  21  22
ENDBRANCH  20  21
ENDBRANCH   1  20
TORSDOF 7
ENDMDL
MODEL 2
REMARK VINA RESULT:      -6.2      2.321      4.965
REMARK  7 active torsions:
REMARK  status: ('A' for Active; 'I' for Inactive)
REMARK       I    between atoms: C_2  and  N_4 
REMARK    1  A    between atoms: N_4  and  C_5 
REMARK    2  A    between atoms: C_5  and  C_6 
REMARK    3  A    between atoms: C_6  and  C_7 
REMARK    4  A    between atoms: N_16  and  C_17 
REMARK    5  A    between atoms: C_17  and  C_18 
REMARK    6  A    between atoms: C_18  and  O_19 
REMARK    7  A    between atoms: O_19  and  C_20 
ROOT
HETATM    1  C   UNL     1     -40.881 -49.983  12.081  1.00  0.00     0.086 A 
HETATM    2  N   UNL     1     -40.713 -51.126  11.451  1.00  0.00    -0.344 N 
ATOM      3  HN  UNL     1     -40.478 -51.254  10.467  1.00  0.00     0.167 HD
HETATM    4  C   UNL     1     -40.916 -52.104  12.380  1.00  0.00     0.060 A 
HETATM    5  C   UNL     1     -40.868 -53.496  12.208  1.00  0.00     0.032 A 
HETATM    6  C   UNL     1     -41.110 -54.333  13.300  1.00  0.00     0.002 A 
HETATM    7  C   UNL     1     -41.391 -53.790  14.545  1.00  0.00     0.002 A 
HETATM    8  C   UNL     1     -41.444 -52.404  14.734  1.00  0.00     0.032 A 
HETATM    9  C   UNL     1     -41.205 -51.560  13.634  1.00  0.00     0.062 A 
HETATM   10  N   UNL     1     -41.168 -50.190  13.425  1.00  0.00    -0.333 N 
ENDROOT
BRANCH  10  11
HETATM   11  C   UNL     1     -41.375 -49.101  14.378  1.00  0.00     0.157 C 
BRANCH  11  12
HETATM   12  C   UNL     1     -42.822 -48.789  14.721  1.00  0.00     0.196 C 
BRANCH  12  13
HETATM   13  O   UNL     1     -43.382 -49.677  15.690  1.00  0.00    -0.350 OA
BRANCH  13  14
HETATM   14  C   UNL     1     -44.482 -50.374  15.236  1.00  0.00     0.068 A 
HETATM   15  C   UNL     1     -44.698 -50.783  13.912  1.00  0.00     0.037 A 
HETATM   16  C   UNL     1     -45.863 -51.468  13.556  1.00  0.00     0.003 A 
HETATM   17  C   UNL     1     -46.819 -51.756  14.522  1.00  0.00     0.000 A 
HETATM   18  C   UNL     1     -46.609 -51.365  15.844  1.00  0.00     0.003 A 
HETATM   19  C   UNL     1     -45.443 -50.678  16.199  1.00  0.00     0.037 A 
ENDBRANCH  13  14
ENDBRANCH  12  13
ENDBRANCH  11  12
ENDBRANCH  10  11
BRANCH   1  20
HETATM   20  C   UNL     1     -40.755 -48.638  11.437  1.00  0.00     0.096 C 
BRANCH  20  21
HETATM   21  C   UNL     1     -42.120 -48.103  10.985  1.00  0.00     0.130 C 
BRANCH  21  22
HETATM   22  N   UNL     1     -42.360 -48.287   9.562  1.00  0.00    -0.361 N 
HETATM   23  C   UNL     1     -43.356 -47.600   8.903  1.00  0.00     0.213 C 
HETATM   24  C   UNL     1     -43.476 -47.971   7.451  1.00  0.00     0.117 C 
HETATM   25  O   UNL     1     -44.067 -46.748   9.427  1.00  0.00    -0.274 OA
HETATM   26  H   UNL     1     -41.967 -49.109   9.121  1.00  0.00     0.162 HD
ENDBRANCH  21  22
ENDBRANCH  20  21
ENDBRANCH   1  20
TORSDOF 7
ENDMDL
MODEL 3
REMARK VINA RESULT:      -6.1      2.036      5.671
REMARK  7 active torsions:
REMARK  status: ('A' for Active; 'I' for Inactive)
REMARK       I    between atoms: C_2  and  N_4 
REMARK    1  A    between atoms: N_4  and  C_5 
REMARK    2  A    between atoms: C_5  and  C_6 
REMARK    3  A    between atoms: C_6  and  C_7 
REMARK    4  A    between atoms: N_16  and  C_17 
REMARK    5  A    between atoms: C_17  and  C_18 
REMARK    6  A    between atoms: C_18  and  O_19 
REMARK    7  A    between atoms: O_19  and  C_20 
ROOT
HETATM    1  C   UNL     1     -40.974 -47.967  11.396  1.00  0.00     0.086 A 
HETATM    2  N   UNL     1     -40.602 -46.859  12.000  1.00  0.00    -0.344 N 
ATOM      3  HN  UNL     1     -40.967 -45.921  11.838  1.00  0.00     0.167 HD
HETATM    4  C   UNL     1     -39.629 -47.219  12.886  1.00  0.00     0.060 A 
HETATM    5  C   UNL     1     -38.898 -46.400  13.760  1.00  0.00     0.032 A 
HETATM    6  C   UNL     1     -37.934 -46.972  14.595  1.00  0.00     0.002 A 
HETATM    7  C   UNL     1     -37.706 -48.341  14.560  1.00  0.00     0.002 A 
HETATM    8  C   UNL     1     -38.426 -49.171  13.693  1.00  0.00     0.032 A 
HETATM    9  C   UNL     1     -39.393 -48.595  12.848  1.00  0.00     0.062 A 
HETATM   10  N   UNL     1     -40.277 -49.064  11.889  1.00  0.00    -0.333 N 
ENDROOT
BRANCH  10  11
HETATM   11  C   UNL     1     -40.504 -50.432  11.426  1.00  0.00     0.157 C 
BRANCH  11  12
HETATM   12  C   UNL     1     -41.179 -51.362  12.420  1.00  0.00     0.196 C 
BRANCH  12  13
HETATM   13  O   UNL     1     -42.064 -52.303  11.809  1.00  0.00    -0.350 OA
BRANCH  13  14
HETATM   14  C   UNL     1     -42.670 -53.159  12.705  1.00  0.00     0.068 A 
HETATM   15  C   UNL     1     -42.032 -53.806  13.772  1.00  0.00     0.037 A 
HETATM   16  C   UNL     1     -42.741 -54.673  14.610  1.00  0.00     0.003 A 
HETATM   17  C   UNL     1     -44.095 -54.894  14.391  1.00  0.00     0.000 A 
HETATM   18  C   UNL     1     -44.742 -54.245  13.340  1.00  0.00     0.003 A 
HETATM   19  C   UNL     1     -44.032 -53.379  12.501  1.00  0.00     0.037 A 
ENDBRANCH  13  14
ENDBRANCH  12  13
ENDBRANCH  11  12
ENDBRANCH  10  11
BRANCH   1  20
HETATM   20  C   UNL     1     -42.027 -48.037  10.335  1.00  0.00     0.096 C 
BRANCH  20  21
HETATM   21  C   UNL     1     -43.341 -47.401  10.807  1.00  0.00     0.130 C 
BRANCH  21  22
HETATM   22  N   UNL     1     -44.517 -48.024  10.220  1.00  0.00    -0.361 N 
HETATM   23  C   UNL     1     -45.307 -47.360   9.307  1.00  0.00     0.213 C 
HETATM   24  C   UNL     1     -46.502 -48.156   8.862  1.00  0.00     0.117 C 
HETATM   25  O   UNL     1     -45.060 -46.240   8.871  1.00  0.00    -0.274 OA
HETATM   26  H   UNL     1     -44.896 -48.843  10.680  1.00  0.00     0.162 HD
ENDBRANCH  21  22
ENDBRANCH  20  21
ENDBRANCH   1  20
TORSDOF 7
ENDMDL
MODEL 4
REMARK VINA RESULT:      -6.1      1.992      5.949
REMARK  7 active torsions:
REMARK  status: ('A' for Active; 'I' for Inactive)
REMARK       I    between atoms: C_2  and  N_4 
REMARK    1  A    between atoms: N_4  and  C_5 
REMARK    2  A    between atoms: C_5  and  C_6 
REMARK    3  A    between atoms: C_6  and  C_7 
REMARK    4  A    between atoms: N_16  and  C_17 
REMARK    5  A    between atoms: C_17  and  C_18 
REMARK    6  A    between atoms: C_18  and  O_19 
REMARK    7  A    between atoms: O_19  and  C_20 
ROOT
HETATM    1  C   UNL     1     -41.116 -48.258  11.630  1.00  0.00     0.086 A 
HETATM    2  N   UNL     1     -39.890 -48.236  11.154  1.00  0.00    -0.344 N 
ATOM      3  HN  UNL     1     -39.517 -47.600  10.449  1.00  0.00     0.167 HD
HETATM    4  C   UNL     1     -39.217 -49.235  11.794  1.00  0.00     0.060 A 
HETATM    5  C   UNL     1     -37.881 -49.633  11.630  1.00  0.00     0.032 A 
HETATM    6  C   UNL     1     -37.380 -50.692  12.391  1.00  0.00     0.002 A 
HETATM    7  C   UNL     1     -38.198 -51.342  13.305  1.00  0.00     0.002 A 
HETATM    8  C   UNL     1     -39.533 -50.958  13.480  1.00  0.00     0.032 A 
HETATM    9  C   UNL     1     -40.040 -49.894  12.710  1.00  0.00     0.062 A 
HETATM   10  N   UNL     1     -41.259 -49.243  12.599  1.00  0.00    -0.333 N 
ENDROOT
BRANCH  10  11
HETATM   11  C   UNL     1     -42.506 -49.480  13.324  1.00  0.00     0.157 C 
BRANCH  11  12
HETATM   12  C   UNL     1     -43.254 -50.750  12.955  1.00  0.00     0.196 C 
BRANCH  12  13
HETATM   13  O   UNL     1     -44.582 -50.803  13.479  1.00  0.00    -0.350 OA
BRANCH  13  14
HETATM   14  C   UNL     1     -45.027 -52.082  13.739  1.00  0.00     0.068 A 
HETATM   15  C   UNL     1     -44.364 -53.264  13.381  1.00  0.00     0.037 A 
HETATM   16  C   UNL     1     -44.917 -54.513  13.677  1.00  0.00     0.003 A 
HETATM   17  C   UNL     1     -46.136 -54.590  14.340  1.00  0.00     0.000 A 
HETATM   18  C   UNL     1     -46.798 -53.421  14.713  1.00  0.00     0.003 A 
HETATM   19  C   UNL     1     -46.244 -52.172  14.414  1.00  0.00     0.037 A 
ENDBRANCH  13  14
ENDBRANCH  12  13
ENDBRANCH  11  12
ENDBRANCH  10  11
BRANCH   1  20
HETATM   20  C   UNL     1     -42.205 -47.325  11.200  1.00  0.00     0.096 C 
BRANCH  20  21
HETATM   21  C   UNL     1     -42.657 -47.617   9.763  1.00  0.00     0.130 C 
BRANCH  21  22
HETATM   22  N   UNL     1     -44.085 -47.874   9.658  1.00  0.00    -0.361 N 
HETATM   23  C   UNL     1     -44.958 -46.919   9.185  1.00  0.00     0.213 C 
HETATM   24  C   UNL     1     -46.395 -47.361   9.206  1.00  0.00     0.117 C 
HETATM   25  O   UNL     1     -44.612 -45.822   8.758  1.00  0.00    -0.274 OA
HETATM   26  H   UNL     1     -44.462 -48.657  10.178  1.00  0.00     0.162 HD
ENDBRANCH  21  22
ENDBRANCH  20  21
ENDBRANCH   1  20
TORSDOF 7
ENDMDL
MODEL 5
REMARK VINA RESULT:      -6.1      3.256      6.550
REMARK  7 active torsions:
REMARK  status: ('A' for Active; 'I' for Inactive)
REMARK       I    between atoms: C_2  and  N_4 
REMARK    1  A    between atoms: N_4  and  C_5 
REMARK    2  A    between atoms: C_5  and  C_6 
REMARK    3  A    between atoms: C_6  and  C_7 
REMARK    4  A    between atoms: N_16  and  C_17 
REMARK    5  A    between atoms: C_17  and  C_18 
REMARK    6  A    between atoms: C_18  and  O_19 
REMARK    7  A    between atoms: O_19  and  C_20 
ROOT
HETATM    1  C   UNL     1     -41.894 -47.031  10.413  1.00  0.00     0.086 A 
HETATM    2  N   UNL     1     -40.961 -46.135  10.170  1.00  0.00    -0.344 N 
ATOM      3  HN  UNL     1     -40.624 -45.834   9.256  1.00  0.00     0.167 HD
HETATM    4  C   UNL     1     -40.537 -45.691  11.388  1.00  0.00     0.060 A 
HETATM    5  C   UNL     1     -39.543 -44.742  11.673  1.00  0.00     0.032 A 
HETATM    6  C   UNL     1     -39.257 -44.424  13.003  1.00  0.00     0.002 A 
HETATM    7  C   UNL     1     -39.954 -45.041  14.033  1.00  0.00     0.002 A 
HETATM    8  C   UNL     1     -40.948 -45.989  13.765  1.00  0.00     0.032 A 
HETATM    9  C   UNL     1     -41.234 -46.314  12.425  1.00  0.00     0.062 A 
HETATM   10  N   UNL     1     -42.113 -47.168  11.778  1.00  0.00    -0.333 N 
ENDROOT
BRANCH  10  11
HETATM   11  C   UNL     1     -43.114 -48.071  12.343  1.00  0.00     0.157 C 
BRANCH  11  12
HETATM   12  C   UNL     1     -42.570 -49.224  13.170  1.00  0.00     0.196 C 
BRANCH  12  13
HETATM   13  O   UNL     1     -43.136 -50.490  12.823  1.00  0.00    -0.350 OA
BRANCH  13  14
HETATM   14  C   UNL     1     -44.267 -50.809  13.545  1.00  0.00     0.068 A 
HETATM   15  C   UNL     1     -45.468 -51.293  13.008  1.00  0.00     0.037 A 
HETATM   16  C   UNL     1     -46.564 -51.564  13.832  1.00  0.00     0.003 A 
HETATM   17  C   UNL     1     -46.465 -51.361  15.203  1.00  0.00     0.000 A 
HETATM   18  C   UNL     1     -45.271 -50.892  15.751  1.00  0.00     0.003 A 
HETATM   19  C   UNL     1     -44.176 -50.619  14.924  1.00  0.00     0.037 A 
ENDBRANCH  13  14
ENDBRANCH  12  13
ENDBRANCH  11  12
ENDBRANCH  10  11
BRANCH   1  20
HETATM   20  C   UNL     1     -42.636 -47.784   9.354  1.00  0.00     0.096 C 
BRANCH  20  21
HETATM   21  C   UNL     1     -43.536 -46.853   8.531  1.00  0.00     0.130 C 
BRANCH  21  22
HETATM   22  N   UNL     1     -44.897 -46.781   9.042  1.00  0.00    -0.361 N 
HETATM   23  C   UNL     1     -45.865 -47.679   8.648  1.00  0.00     0.213 C 
HETATM   24  C   UNL     1     -47.215 -47.401   9.247  1.00  0.00     0.117 C 
HETATM   25  O   UNL     1     -45.656 -48.633   7.905  1.00  0.00    -0.274 OA
HETATM   26  H   UNL     1     -45.190 -45.917   9.479  1.00  0.00     0.162 HD
ENDBRANCH  21  22
ENDBRANCH  20  21
ENDBRANCH   1  20
TORSDOF 7
ENDMDL
MODEL 6
REMARK VINA RESULT:      -6.1      2.144      4.989
REMARK  7 active torsions:
REMARK  status: ('A' for Active; 'I' for Inactive)
REMARK       I    between atoms: C_2  and  N_4 
REMARK    1  A    between atoms: N_4  and  C_5 
REMARK    2  A    between atoms: C_5  and  C_6 
REMARK    3  A    between atoms: C_6  and  C_7 
REMARK    4  A    between atoms: N_16  and  C_17 
REMARK    5  A    between atoms: C_17  and  C_18 
REMARK    6  A    between atoms: C_18  and  O_19 
REMARK    7  A    between atoms: O_19  and  C_20 
ROOT
HETATM    1  C   UNL     1     -41.223 -48.305  11.700  1.00  0.00     0.086 A 
HETATM    2  N   UNL     1     -40.061 -48.362  11.086  1.00  0.00    -0.344 N 
ATOM      3  HN  UNL     1     -39.772 -47.823  10.271  1.00  0.00     0.167 HD
HETATM    4  C   UNL     1     -39.321 -49.288  11.761  1.00  0.00     0.060 A 
HETATM    5  C   UNL     1     -38.015 -49.727  11.493  1.00  0.00     0.032 A 
HETATM    6  C   UNL     1     -37.432 -50.695  12.314  1.00  0.00     0.002 A 
HETATM    7  C   UNL     1     -38.140 -51.216  13.389  1.00  0.00     0.002 A 
HETATM    8  C   UNL     1     -39.444 -50.790  13.669  1.00  0.00     0.032 A 
HETATM    9  C   UNL     1     -40.034 -49.818  12.840  1.00  0.00     0.062 A 
HETATM   10  N   UNL     1     -41.255 -49.164  12.792  1.00  0.00    -0.333 N 
ENDROOT
BRANCH  10  11
HETATM   11  C   UNL     1     -42.410 -49.290  13.680  1.00  0.00     0.157 C 
BRANCH  11  12
HETATM   12  C   UNL     1     -43.484 -50.268  13.232  1.00  0.00     0.196 C 
BRANCH  12  13
HETATM   13  O   UNL     1     -43.706 -51.333  14.158  1.00  0.00    -0.350 OA
BRANCH  13  14
HETATM   14  C   UNL     1     -42.747 -52.323  14.107  1.00  0.00     0.068 A 
HETATM   15  C   UNL     1     -42.319 -52.985  12.948  1.00  0.00     0.037 A 
HETATM   16  C   UNL     1     -41.351 -53.992  13.014  1.00  0.00     0.003 A 
HETATM   17  C   UNL     1     -40.798 -54.340  14.240  1.00  0.00     0.000 A 
HETATM   18  C   UNL     1     -41.206 -53.678  15.398  1.00  0.00     0.003 A 
HETATM   19  C   UNL     1     -42.176 -52.673  15.331  1.00  0.00     0.037 A 
ENDBRANCH  13  14
ENDBRANCH  12  13
ENDBRANCH  11  12
ENDBRANCH  10  11
BRANCH   1  20
HETATM   20  C   UNL     1     -42.352 -47.412  11.289  1.00  0.00     0.096 C 
BRANCH  20  21
HETATM   21  C   UNL     1     -42.744 -47.645   9.824  1.00  0.00     0.130 C 
BRANCH  21  22
HETATM   22  N   UNL     1     -44.173 -47.858   9.645  1.00  0.00    -0.361 N 
HETATM   23  C   UNL     1     -44.993 -46.870   9.145  1.00  0.00     0.213 C 
HETATM   24  C   UNL     1     -46.441 -47.269   9.090  1.00  0.00     0.117 C 
HETATM   25  O   UNL     1     -44.594 -45.777   8.754  1.00  0.00    -0.274 OA
HETATM   26  H   UNL     1     -44.597 -48.636  10.134  1.00  0.00     0.162 HD
ENDBRANCH  21  22
ENDBRANCH  20  21
ENDBRANCH   1  20
TORSDOF 7
ENDMDL
MODEL 7
REMARK VINA RESULT:      -6.1      2.991      6.284
REMARK  7 active torsions:
REMARK  status: ('A' for Active; 'I' for Inactive)
REMARK       I    between atoms: C_2  and  N_4 
REMARK    1  A    between atoms: N_4  and  C_5 
REMARK    2  A    between atoms: C_5  and  C_6 
REMARK    3  A    between atoms: C_6  and  C_7 
REMARK    4  A    between atoms: N_16  and  C_17 
REMARK    5  A    between atoms: C_17  and  C_18 
REMARK    6  A    between atoms: C_18  and  O_19 
REMARK    7  A    between atoms: O_19  and  C_20 
ROOT
HETATM    1  C   UNL     1     -41.245 -53.133  12.919  1.00  0.00     0.086 A 
HETATM    2  N   UNL     1     -40.223 -53.457  13.682  1.00  0.00    -0.344 N 
ATOM      3  HN  UNL     1     -39.257 -53.147  13.577  1.00  0.00     0.167 HD
HETATM    4  C   UNL     1     -40.717 -54.291  14.642  1.00  0.00     0.060 A 
HETATM    5  C   UNL     1     -40.028 -54.925  15.686  1.00  0.00     0.032 A 
HETATM    6  C   UNL     1     -40.727 -55.750  16.572  1.00  0.00     0.002 A 
HETATM    7  C   UNL     1     -42.094 -55.936  16.418  1.00  0.00     0.002 A 
HETATM    8  C   UNL     1     -42.796 -55.312  15.381  1.00  0.00     0.032 A 
HETATM    9  C   UNL     1     -42.092 -54.484  14.486  1.00  0.00     0.062 A 
HETATM   10  N   UNL     1     -42.417 -53.721  13.375  1.00  0.00    -0.333 N 
ENDROOT
BRANCH  10  11
HETATM   11  C   UNL     1     -43.718 -53.515  12.742  1.00  0.00     0.157 C 
BRANCH  11  12
HETATM   12  C   UNL     1     -44.810 -54.493  13.142  1.00  0.00     0.196 C 
BRANCH  12  13
HETATM   13  O   UNL     1     -46.094 -53.883  13.293  1.00  0.00    -0.350 OA
BRANCH  13  14
HETATM   14  C   UNL     1     -46.271 -53.256  14.508  1.00  0.00     0.068 A 
HETATM   15  C   UNL     1     -45.992 -53.815  15.763  1.00  0.00     0.037 A 
HETATM   16  C   UNL     1     -46.230 -53.095  16.937  1.00  0.00     0.003 A 
HETATM   17  C   UNL     1     -46.744 -51.806  16.866  1.00  0.00     0.000 A 
HETATM   18  C   UNL     1     -47.014 -51.234  15.622  1.00  0.00     0.003 A 
HETATM   19  C   UNL     1     -46.776 -51.957  14.449  1.00  0.00     0.037 A 
ENDBRANCH  13  14
ENDBRANCH  12  13
ENDBRANCH  11  12
ENDBRANCH  10  11
BRANCH   1  20
HETATM   20  C   UNL     1     -41.155 -52.229  11.729  1.00  0.00     0.096 C 
BRANCH  20  21
HETATM   21  C   UNL     1     -40.774 -50.800  12.139  1.00  0.00     0.130 C 
BRANCH  21  22
HETATM   22  N   UNL     1     -39.585 -50.312  11.456  1.00  0.00    -0.361 N 
HETATM   23  C   UNL     1     -38.319 -50.620  11.903  1.00  0.00     0.213 C 
HETATM   24  C   UNL     1     -37.228 -49.975  11.094  1.00  0.00     0.117 C 
HETATM   25  O   UNL     1     -38.086 -51.365  12.849  1.00  0.00    -0.274 OA
HETATM   26  H   UNL     1     -39.696 -49.536  10.815  1.00  0.00     0.162 HD
ENDBRANCH  21  22
ENDBRANCH  20  21
ENDBRANCH   1  20
TORSDOF 7
ENDMDL
MODEL 8
REMARK VINA RESULT:      -6.0      1.954      5.660
REMARK  7 active torsions:
REMARK  status: ('A' for Active; 'I' for Inactive)
REMARK       I    between atoms: C_2  and  N_4 
REMARK    1  A    between atoms: N_4  and  C_5 
REMARK    2  A    between atoms: C_5  and  C_6 
REMARK    3  A    between atoms: C_6  and  C_7 
REMARK    4  A    between atoms: N_16  and  C_17 
REMARK    5  A    between atoms: C_17  and  C_18 
REMARK    6  A    between atoms: C_18  and  O_19 
REMARK    7  A    between atoms: O_19  and  C_20 
ROOT
HETATM    1  C   UNL     1     -40.625 -48.789  11.645  1.00  0.00     0.086 A 
HETATM    2  N   UNL     1     -39.801 -47.904  12.163  1.00  0.00    -0.344 N 
ATOM      3  HN  UNL     1     -39.730 -46.917  11.919  1.00  0.00     0.167 HD
HETATM    4  C   UNL     1     -39.060 -48.575  13.092  1.00  0.00     0.060 A 
HETATM    5  C   UNL     1     -38.031 -48.082  13.910  1.00  0.00     0.032 A 
HETATM    6  C   UNL     1     -37.392 -48.943  14.805  1.00  0.00     0.002 A 
HETATM    7  C   UNL     1     -37.776 -50.274  14.886  1.00  0.00     0.002 A 
HETATM    8  C   UNL     1     -38.799 -50.781  14.077  1.00  0.00     0.032 A 
HETATM    9  C   UNL     1     -39.441 -49.916  13.171  1.00  0.00     0.062 A 
HETATM   10  N   UNL     1     -40.459 -50.035  12.238  1.00  0.00    -0.333 N 
ENDROOT
BRANCH  10  11
HETATM   11  C   UNL     1     -41.260 -51.205  11.884  1.00  0.00     0.157 C 
BRANCH  11  12
HETATM   12  C   UNL     1     -42.382 -51.553  12.849  1.00  0.00     0.196 C 
BRANCH  12  13
HETATM   13  O   UNL     1     -43.138 -50.418  13.276  1.00  0.00    -0.350 OA
BRANCH  13  14
HETATM   14  C   UNL     1     -44.313 -50.745  13.920  1.00  0.00     0.068 A 
HETATM   15  C   UNL     1     -44.536 -50.657  15.302  1.00  0.00     0.037 A 
HETATM   16  C   UNL     1     -45.763 -51.037  15.854  1.00  0.00     0.003 A 
HETATM   17  C   UNL     1     -46.780 -51.500  15.028  1.00  0.00     0.000 A 
HETATM   18  C   UNL     1     -46.573 -51.579  13.651  1.00  0.00     0.003 A 
HETATM   19  C   UNL     1     -45.345 -51.201  13.100  1.00  0.00     0.037 A 
ENDBRANCH  13  14
ENDBRANCH  12  13
ENDBRANCH  11  12
ENDBRANCH  10  11
BRANCH   1  20
HETATM   20  C   UNL     1     -41.626 -48.485  10.574  1.00  0.00     0.096 C 
BRANCH  20  21
HETATM   21  C   UNL     1     -42.778 -47.626  11.112  1.00  0.00     0.130 C 
BRANCH  21  22
HETATM   22  N   UNL     1     -44.065 -47.972  10.529  1.00  0.00    -0.361 N 
HETATM   23  C   UNL     1     -44.587 -47.271   9.464  1.00  0.00     0.213 C 
HETATM   24  C   UNL     1     -45.948 -47.751   9.044  1.00  0.00     0.117 C 
HETATM   25  O   UNL     1     -44.001 -46.361   8.886  1.00  0.00    -0.274 OA
HETATM   26  H   UNL     1     -44.687 -48.557  11.073  1.00  0.00     0.162 HD
ENDBRANCH  21  22
ENDBRANCH  20  21
ENDBRANCH   1  20
TORSDOF 7
ENDMDL
MODEL 9
REMARK VINA RESULT:      -6.0      3.895      6.534
REMARK  7 active torsions:
REMARK  status: ('A' for Active; 'I' for Inactive)
REMARK       I    between atoms: C_2  and  N_4 
REMARK    1  A    between atoms: N_4  and  C_5 
REMARK    2  A    between atoms: C_5  and  C_6 
REMARK    3  A    between atoms: C_6  and  C_7 
REMARK    4  A    between atoms: N_16  and  C_17 
REMARK    5  A    between atoms: C_17  and  C_18 
REMARK    6  A    between atoms: C_18  and  O_19 
REMARK    7  A    between atoms: O_19  and  C_20 
ROOT
HETATM    1  C   UNL     1     -42.504 -45.528  10.463  1.00  0.00     0.086 A 
HETATM    2  N   UNL     1     -43.311 -44.494  10.567  1.00  0.00    -0.344 N 
ATOM      3  HN  UNL     1     -44.301 -44.463  10.326  1.00  0.00     0.167 HD
HETATM    4  C   UNL     1     -42.555 -43.472  11.063  1.00  0.00     0.060 A 
HETATM    5  C   UNL     1     -42.945 -42.153  11.341  1.00  0.00     0.032 A 
HETATM    6  C   UNL     1     -42.007 -41.251  11.850  1.00  0.00     0.002 A 
HETATM    7  C   UNL     1     -40.701 -41.660  12.081  1.00  0.00     0.002 A 
HETATM    8  C   UNL     1     -40.296 -42.972  11.808  1.00  0.00     0.032 A 
HETATM    9  C   UNL     1     -41.239 -43.880  11.291  1.00  0.00     0.062 A 
HETATM   10  N   UNL     1     -41.226 -45.212  10.908  1.00  0.00    -0.333 N 
ENDROOT
BRANCH  10  11
HETATM   11  C   UNL     1     -40.126 -46.174  10.937  1.00  0.00     0.157 C 
BRANCH  11  12
HETATM   12  C   UNL     1     -39.972 -46.961  12.228  1.00  0.00     0.196 C 
BRANCH  12  13
HETATM   13  O   UNL     1     -40.398 -48.321  12.120  1.00  0.00    -0.350 OA
BRANCH  13  14
HETATM   14  C   UNL     1     -39.424 -49.237  12.459  1.00  0.00     0.068 A 
HETATM   15  C   UNL     1     -39.330 -49.911  13.685  1.00  0.00     0.037 A 
HETATM   16  C   UNL     1     -38.285 -50.807  13.931  1.00  0.00     0.003 A 
HETATM   17  C   UNL     1     -37.328 -51.039  12.951  1.00  0.00     0.000 A 
HETATM   18  C   UNL     1     -37.419 -50.384  11.723  1.00  0.00     0.003 A 
HETATM   19  C   UNL     1     -38.464 -49.487  11.479  1.00  0.00     0.037 A 
ENDBRANCH  13  14
ENDBRANCH  12  13
ENDBRANCH  11  12
ENDBRANCH  10  11
BRANCH   1  20
HETATM   20  C   UNL     1     -42.917 -46.873   9.953  1.00  0.00     0.096 C 
BRANCH  20  21
HETATM   21  C   UNL     1     -43.950 -46.751   8.824  1.00  0.00     0.130 C 
BRANCH  21  22
HETATM   22  N   UNL     1     -44.824 -47.910   8.727  1.00  0.00    -0.361 N 
HETATM   23  C   UNL     1     -46.184 -47.808   8.923  1.00  0.00     0.213 C 
HETATM   24  C   UNL     1     -46.900 -49.126   8.833  1.00  0.00     0.117 C 
HETATM   25  O   UNL     1     -46.772 -46.750   9.125  1.00  0.00    -0.274 OA
HETATM   26  H   UNL     1     -44.397 -48.827   8.776  1.00  0.00     0.162 HD
ENDBRANCH  21  22
ENDBRANCH  20  21
ENDBRANCH   1  20
TORSDOF 7
ENDMDL
