MODEL 1
REMARK VINA RESULT:      -6.0      0.000      0.000
REMARK  5 active torsions:
REMARK  status: ('A' for Active; 'I' for Inactive)
REMARK    1  A    between atoms: O_2  and  C_3 
REMARK    2  A    between atoms: C_3  and  C_4 
REMARK    3  A    between atoms: N_8  and  C_9 
REMARK    4  A    between atoms: C_9  and  C_10 
REMARK       I    between atoms: C_10  and  N_12 
REMARK    5  A    between atoms: N_12  and  C_13 
ROOT
HETATM    1  C   UNL     1     -41.131 -52.090  11.836  1.00  0.00     0.235 C 
ENDROOT
BRANCH   1   2
HETATM    2  N   UNL     1     -40.759 -50.719  12.107  1.00  0.00    -0.302 N 
HETATM    3  C   UNL     1     -39.427 -50.401  12.206  1.00  0.00     0.250 C 
HETATM    4  C   UNL     1     -39.125 -48.962  12.147  1.00  0.00     0.101 C 
HETATM    5  O   UNL     1     -38.526 -51.229  12.314  1.00  0.00    -0.268 OA
HETATM    6  C   UNL     1     -40.144 -48.091  12.119  1.00  0.00     0.039 C 
HETATM    7  N   UNL     1     -41.466 -48.472  12.211  1.00  0.00    -0.354 N 
HETATM    8  C   UNL     1     -41.714 -49.738  12.175  1.00  0.00     0.186 C 
ATOM      9  HN  UNL     1     -42.214 -47.784  12.302  1.00  0.00     0.166 HD
BRANCH   6  10
HETATM   10  C   UNL     1     -39.885 -46.611  11.935  1.00  0.00     0.224 C 
BRANCH  10  11
HETATM   11  O   UNL     1     -40.184 -46.254  10.582  1.00  0.00    -0.390 OA
HETATM   12  C   UNL     1     -39.656 -44.980  10.244  1.00  0.00     0.201 C 
ENDBRANCH  10  11
ENDBRANCH   6  10
ENDBRANCH   1   2
BRANCH   1  13
HETATM   13  C   UNL     1     -41.633 -52.822  13.071  1.00  0.00     0.236 C 
HETATM   14  O   UNL     1     -40.842 -53.252  13.909  1.00  0.00    -0.272 OA
HETATM   15  N   UNL     1     -43.006 -52.922  13.203  1.00  0.00    -0.355 N 
HETATM   16  H   UNL     1     -43.599 -52.657  12.419  1.00  0.00     0.162 HD
BRANCH  15  17
HETATM   17  C   UNL     1     -43.602 -53.343  14.473  1.00  0.00     0.088 C 
HETATM   18  C   UNL     1     -44.147 -54.783  14.410  1.00  0.00     0.025 C 
HETATM   19  C   UNL     1     -45.603 -54.908  13.978  1.00  0.00     0.002 C 
HETATM   20  C   UNL     1     -46.508 -53.946  14.731  1.00  0.00     0.005 C 
HETATM   21  C   UNL     1     -46.049 -52.500  14.516  1.00  0.00    -0.013 C 
HETATM   22  C   UNL     1     -47.057 -51.543  15.165  1.00  0.00     0.010 C 
HETATM   23  C   UNL     1     -44.615 -52.324  15.071  1.00  0.00     0.008 C 
HETATM   24  C   UNL     1     -44.125 -50.875  14.958  1.00  0.00     0.012 C 
ENDBRANCH  15  17
ENDBRANCH   1  13
TORSDOF 5
ENDMDL
MODEL 2
REMARK VINA RESULT:      -5.8      2.571      3.143
REMARK  5 active torsions:
REMARK  status: ('A' for Active; 'I' for Inactive)
REMARK    1  A    between atoms: O_2  and  C_3 
REMARK    2  A    between atoms: C_3  and  C_4 
REMARK    3  A    between atoms: N_8  and  C_9 
REMARK    4  A    between atoms: C_9  and  C_10 
REMARK       I    between atoms: C_10  and  N_12 
REMARK    5  A    between atoms: N_12  and  C_13 
ROOT
HETATM    1  C   UNL     1     -40.550 -49.202  13.202  1.00  0.00     0.235 C 
ENDROOT
BRANCH   1   2
HETATM    2  N   UNL     1     -41.414 -48.667  12.173  1.00  0.00    -0.302 N 
HETATM    3  C   UNL     1     -42.453 -47.848  12.539  1.00  0.00     0.250 C 
HETATM    4  C   UNL     1     -43.065 -47.090  11.437  1.00  0.00     0.101 C 
HETATM    5  O   UNL     1     -42.853 -47.714  13.693  1.00  0.00    -0.268 OA
HETATM    6  C   UNL     1     -42.657 -47.333  10.183  1.00  0.00     0.039 C 
HETATM    7  N   UNL     1     -41.737 -48.308   9.865  1.00  0.00    -0.354 N 
HETATM    8  C   UNL     1     -41.149 -48.902  10.849  1.00  0.00     0.186 C 
ATOM      9  HN  UNL     1     -41.530 -48.550   8.895  1.00  0.00     0.166 HD
BRANCH   6  10
HETATM   10  C   UNL     1     -43.170 -46.494   9.032  1.00  0.00     0.224 C 
BRANCH  10  11
HETATM   11  O   UNL     1     -43.805 -47.354   8.080  1.00  0.00    -0.390 OA
HETATM   12  C   UNL     1     -45.093 -47.761   8.516  1.00  0.00     0.201 C 
ENDBRANCH  10  11
ENDBRANCH   6  10
ENDBRANCH   1   2
BRANCH   1  13
HETATM   13  C   UNL     1     -41.008 -50.558  13.714  1.00  0.00     0.236 C 
HETATM   14  O   UNL     1     -40.236 -51.286  14.337  1.00  0.00    -0.272 OA
HETATM   15  N   UNL     1     -42.331 -50.883  13.478  1.00  0.00    -0.355 N 
HETATM   16  H   UNL     1     -42.881 -50.297  12.853  1.00  0.00     0.162 HD
BRANCH  15  17
HETATM   17  C   UNL     1     -42.953 -52.017  14.166  1.00  0.00     0.088 C 
HETATM   18  C   UNL     1     -43.053 -53.261  13.261  1.00  0.00     0.025 C 
HETATM   19  C   UNL     1     -44.339 -53.374  12.452  1.00  0.00     0.002 C 
HETATM   20  C   UNL     1     -45.575 -53.142  13.307  1.00  0.00     0.005 C 
HETATM   21  C   UNL     1     -45.520 -51.757  13.960  1.00  0.00    -0.013 C 
HETATM   22  C   UNL     1     -46.838 -51.489  14.698  1.00  0.00     0.010 C 
HETATM   23  C   UNL     1     -44.286 -51.672  14.890  1.00  0.00     0.008 C 
HETATM   24  C   UNL     1     -44.217 -50.335  15.638  1.00  0.00     0.012 C 
ENDBRANCH  15  17
ENDBRANCH   1  13
TORSDOF 5
ENDMDL
MODEL 3
REMARK VINA RESULT:      -5.8      2.375      3.349
REMARK  5 active torsions:
REMARK  status: ('A' for Active; 'I' for Inactive)
REMARK    1  A    between atoms: O_2  and  C_3 
REMARK    2  A    between atoms: C_3  and  C_4 
REMARK    3  A    between atoms: N_8  and  C_9 
REMARK    4  A    between atoms: C_9  and  C_10 
REMARK       I    between atoms: C_10  and  N_12 
REMARK    5  A    between atoms: N_12  and  C_13 
ROOT
HETATM    1  C   UNL     1     -41.229 -49.794  13.100  1.00  0.00     0.235 C 
ENDROOT
BRANCH   1   2
HETATM    2  N   UNL     1     -41.677 -48.694  12.274  1.00  0.00    -0.302 N 
HETATM    3  C   UNL     1     -40.741 -47.911  11.648  1.00  0.00     0.250 C 
HETATM    4  C   UNL     1     -41.266 -47.045  10.581  1.00  0.00     0.101 C 
HETATM    5  O   UNL     1     -39.541 -47.922  11.915  1.00  0.00    -0.268 OA
HETATM    6  C   UNL     1     -42.592 -46.999  10.384  1.00  0.00     0.039 C 
HETATM    7  N   UNL     1     -43.497 -47.672  11.176  1.00  0.00    -0.354 N 
HETATM    8  C   UNL     1     -43.014 -48.491  12.049  1.00  0.00     0.186 C 
ATOM      9  HN  UNL     1     -44.502 -47.529  11.077  1.00  0.00     0.166 HD
BRANCH   6  10
HETATM   10  C   UNL     1     -43.169 -46.218   9.222  1.00  0.00     0.224 C 
BRANCH  10  11
HETATM   11  O   UNL     1     -44.111 -47.046   8.532  1.00  0.00    -0.390 OA
HETATM   12  C   UNL     1     -43.471 -47.911   7.606  1.00  0.00     0.201 C 
ENDBRANCH  10  11
ENDBRANCH   6  10
ENDBRANCH   1   2
BRANCH   1  13
HETATM   13  C   UNL     1     -41.541 -51.153  12.495  1.00  0.00     0.236 C 
HETATM   14  O   UNL     1     -40.970 -51.529  11.471  1.00  0.00    -0.272 OA
HETATM   15  N   UNL     1     -42.448 -51.934  13.186  1.00  0.00    -0.355 N 
HETATM   16  H   UNL     1     -42.975 -51.519  13.952  1.00  0.00     0.162 HD
BRANCH  15  17
HETATM   17  C   UNL     1     -42.606 -53.354  12.863  1.00  0.00     0.088 C 
HETATM   18  C   UNL     1     -44.053 -53.701  12.460  1.00  0.00     0.025 C 
HETATM   19  C   UNL     1     -44.963 -54.123  13.607  1.00  0.00     0.002 C 
HETATM   20  C   UNL     1     -44.312 -55.167  14.500  1.00  0.00     0.005 C 
HETATM   21  C   UNL     1     -42.999 -54.631  15.081  1.00  0.00    -0.013 C 
HETATM   22  C   UNL     1     -42.436 -55.642  16.087  1.00  0.00     0.010 C 
HETATM   23  C   UNL     1     -42.013 -54.321  13.929  1.00  0.00     0.008 C 
HETATM   24  C   UNL     1     -40.647 -53.854  14.447  1.00  0.00     0.012 C 
ENDBRANCH  15  17
ENDBRANCH   1  13
TORSDOF 5
ENDMDL
MODEL 4
REMARK VINA RESULT:      -5.7      1.808      2.314
REMARK  5 active torsions:
REMARK  status: ('A' for Active; 'I' for Inactive)
REMARK    1  A    between atoms: O_2  and  C_3 
REMARK    2  A    between atoms: C_3  and  C_4 
REMARK    3  A    between atoms: N_8  and  C_9 
REMARK    4  A    between atoms: C_9  and  C_10 
REMARK       I    between atoms: C_10  and  N_12 
REMARK    5  A    between atoms: N_12  and  C_13 
ROOT
HETATM    1  C   UNL     1     -40.648 -50.010  10.915  1.00  0.00     0.235 C 
ENDROOT
BRANCH   1   2
HETATM    2  N   UNL     1     -41.042 -48.646  11.192  1.00  0.00    -0.302 N 
HETATM    3  C   UNL     1     -40.100 -47.766  11.664  1.00  0.00     0.250 C 
HETATM    4  C   UNL     1     -40.487 -46.348  11.601  1.00  0.00     0.101 C 
HETATM    5  O   UNL     1     -38.998 -48.100  12.092  1.00  0.00    -0.268 OA
HETATM    6  C   UNL     1     -41.731 -46.037  11.212  1.00  0.00     0.039 C 
HETATM    7  N   UNL     1     -42.693 -46.983  10.929  1.00  0.00    -0.354 N 
HETATM    8  C   UNL     1     -42.312 -48.216  10.906  1.00  0.00     0.186 C 
ATOM      9  HN  UNL     1     -43.662 -46.720  10.746  1.00  0.00     0.166 HD
BRANCH   6  10
HETATM   10  C   UNL     1     -42.136 -44.591  11.015  1.00  0.00     0.224 C 
BRANCH  10  11
HETATM   11  O   UNL     1     -40.986 -43.841  10.609  1.00  0.00    -0.390 OA
HETATM   12  C   UNL     1     -40.830 -42.658  11.378  1.00  0.00     0.201 C 
ENDBRANCH  10  11
ENDBRANCH   6  10
ENDBRANCH   1   2
BRANCH   1  13
HETATM   13  C   UNL     1     -40.940 -50.957  12.068  1.00  0.00     0.236 C 
HETATM   14  O   UNL     1     -40.107 -51.139  12.955  1.00  0.00    -0.272 OA
HETATM   15  N   UNL     1     -42.193 -51.542  12.072  1.00  0.00    -0.355 N 
HETATM   16  H   UNL     1     -42.785 -51.449  11.249  1.00  0.00     0.162 HD
BRANCH  15  17
HETATM   17  C   UNL     1     -42.686 -52.235  13.265  1.00  0.00     0.088 C 
HETATM   18  C   UNL     1     -42.891 -53.742  13.018  1.00  0.00     0.025 C 
HETATM   19  C   UNL     1     -44.279 -54.137  12.527  1.00  0.00     0.002 C 
HETATM   20  C   UNL     1     -45.382 -53.500  13.356  1.00  0.00     0.005 C 
HETATM   21  C   UNL     1     -45.261 -51.972  13.323  1.00  0.00    -0.013 C 
HETATM   22  C   UNL     1     -46.463 -51.350  14.044  1.00  0.00     0.010 C 
HETATM   23  C   UNL     1     -43.908 -51.548  13.942  1.00  0.00     0.008 C 
HETATM   24  C   UNL     1     -43.757 -50.023  14.013  1.00  0.00     0.012 C 
ENDBRANCH  15  17
ENDBRANCH   1  13
TORSDOF 5
ENDMDL
MODEL 5
REMARK VINA RESULT:      -5.7      2.218      3.408
REMARK  5 active torsions:
REMARK  status: ('A' for Active; 'I' for Inactive)
REMARK    1  A    between atoms: O_2  and  C_3 
REMARK    2  A    between atoms: C_3  and  C_4 
REMARK    3  A    between atoms: N_8  and  C_9 
REMARK    4  A    between atoms: C_9  and  C_10 
REMARK       I    between atoms: C_10  and  N_12 
REMARK    5  A    between atoms: N_12  and  C_13 
ROOT
HETATM    1  C   UNL     1     -42.341 -54.194  13.436  1.00  0.00     0.235 C 
ENDROOT
BRANCH   1   2
HETATM    2  N   UNL     1     -41.709 -52.928  13.141  1.00  0.00    -0.302 N 
HETATM    3  C   UNL     1     -41.148 -52.212  14.169  1.00  0.00     0.250 C 
HETATM    4  C   UNL     1     -40.248 -51.126  13.752  1.00  0.00     0.101 C 
HETATM    5  O   UNL     1     -41.341 -52.446  15.360  1.00  0.00    -0.268 OA
HETATM    6  C   UNL     1     -40.136 -50.848  12.445  1.00  0.00     0.039 C 
HETATM    7  N   UNL     1     -40.874 -51.486  11.472  1.00  0.00    -0.354 N 
HETATM    8  C   UNL     1     -41.592 -52.492  11.847  1.00  0.00     0.186 C 
ATOM      9  HN  UNL     1     -40.854 -51.178  10.500  1.00  0.00     0.166 HD
BRANCH   6  10
HETATM   10  C   UNL     1     -39.133 -49.823  11.961  1.00  0.00     0.224 C 
BRANCH  10  11
HETATM   11  O   UNL     1     -37.847 -50.445  11.863  1.00  0.00    -0.390 OA
HETATM   12  C   UNL     1     -37.109 -49.955  10.753  1.00  0.00     0.201 C 
ENDBRANCH  10  11
ENDBRANCH   6  10
ENDBRANCH   1   2
BRANCH   1  13
HETATM   13  C   UNL     1     -43.853 -54.087  13.557  1.00  0.00     0.236 C 
HETATM   14  O   UNL     1     -44.586 -54.545  12.681  1.00  0.00    -0.272 OA
HETATM   15  N   UNL     1     -44.331 -53.498  14.713  1.00  0.00    -0.355 N 
HETATM   16  H   UNL     1     -43.676 -53.030  15.337  1.00  0.00     0.162 HD
BRANCH  15  17
HETATM   17  C   UNL     1     -45.749 -53.598  15.068  1.00  0.00     0.088 C 
HETATM   18  C   UNL     1     -46.636 -52.709  14.175  1.00  0.00     0.025 C 
HETATM   19  C   UNL     1     -46.868 -51.295  14.694  1.00  0.00     0.002 C 
HETATM   20  C   UNL     1     -47.273 -51.282  16.159  1.00  0.00     0.005 C 
HETATM   21  C   UNL     1     -46.195 -51.954  17.017  1.00  0.00    -0.013 C 
HETATM   22  C   UNL     1     -46.555 -51.802  18.500  1.00  0.00     0.010 C 
HETATM   23  C   UNL     1     -46.040 -53.433  16.588  1.00  0.00     0.008 C 
HETATM   24  C   UNL     1     -45.030 -54.186  17.462  1.00  0.00     0.012 C 
ENDBRANCH  15  17
ENDBRANCH   1  13
TORSDOF 5
ENDMDL
MODEL 6
REMARK VINA RESULT:      -5.7      3.132      4.031
REMARK  5 active torsions:
REMARK  status: ('A' for Active; 'I' for Inactive)
REMARK    1  A    between atoms: O_2  and  C_3 
REMARK    2  A    between atoms: C_3  and  C_4 
REMARK    3  A    between atoms: N_8  and  C_9 
REMARK    4  A    between atoms: C_9  and  C_10 
REMARK       I    between atoms: C_10  and  N_12 
REMARK    5  A    between atoms: N_12  and  C_13 
ROOT
HETATM    1  C   UNL     1     -41.735 -54.564  15.968  1.00  0.00     0.235 C 
ENDROOT
BRANCH   1   2
HETATM    2  N   UNL     1     -40.952 -53.540  15.313  1.00  0.00    -0.302 N 
HETATM    3  C   UNL     1     -40.945 -52.273  15.839  1.00  0.00     0.250 C 
HETATM    4  C   UNL     1     -39.883 -51.392  15.326  1.00  0.00     0.101 C 
HETATM    5  O   UNL     1     -41.734 -51.875  16.691  1.00  0.00    -0.268 OA
HETATM    6  C   UNL     1     -39.101 -51.838  14.332  1.00  0.00     0.039 C 
HETATM    7  N   UNL     1     -39.283 -53.058  13.718  1.00  0.00    -0.354 N 
HETATM    8  C   UNL     1     -40.161 -53.850  14.237  1.00  0.00     0.186 C 
ATOM      9  HN  UNL     1     -38.747 -53.324  12.891  1.00  0.00     0.166 HD
BRANCH   6  10
HETATM   10  C   UNL     1     -37.921 -51.017  13.857  1.00  0.00     0.224 C 
BRANCH  10  11
HETATM   11  O   UNL     1     -37.582 -51.424  12.527  1.00  0.00    -0.390 OA
HETATM   12  C   UNL     1     -37.487 -50.315  11.646  1.00  0.00     0.201 C 
ENDBRANCH  10  11
ENDBRANCH   6  10
ENDBRANCH   1   2
BRANCH   1  13
HETATM   13  C   UNL     1     -43.067 -54.821  15.281  1.00  0.00     0.236 C 
HETATM   14  O   UNL     1     -43.488 -55.969  15.141  1.00  0.00    -0.272 OA
HETATM   15  N   UNL     1     -43.773 -53.701  14.883  1.00  0.00    -0.355 N 
HETATM   16  H   UNL     1     -43.316 -52.792  14.915  1.00  0.00     0.162 HD
BRANCH  15  17
HETATM   17  C   UNL     1     -45.177 -53.811  14.479  1.00  0.00     0.088 C 
HETATM   18  C   UNL     1     -45.420 -53.250  13.064  1.00  0.00     0.025 C 
HETATM   19  C   UNL     1     -45.783 -51.771  13.005  1.00  0.00     0.002 C 
HETATM   20  C   UNL     1     -46.875 -51.410  13.999  1.00  0.00     0.005 C 
HETATM   21  C   UNL     1     -46.435 -51.756  15.426  1.00  0.00    -0.013 C 
HETATM   22  C   UNL     1     -47.488 -51.253  16.420  1.00  0.00     0.010 C 
HETATM   23  C   UNL     1     -46.188 -53.280  15.536  1.00  0.00     0.008 C 
HETATM   24  C   UNL     1     -45.820 -53.704  16.963  1.00  0.00     0.012 C 
ENDBRANCH  15  17
ENDBRANCH   1  13
TORSDOF 5
ENDMDL
MODEL 7
REMARK VINA RESULT:      -5.7      2.329      2.895
REMARK  5 active torsions:
REMARK  status: ('A' for Active; 'I' for Inactive)
REMARK    1  A    between atoms: O_2  and  C_3 
REMARK    2  A    between atoms: C_3  and  C_4 
REMARK    3  A    between atoms: N_8  and  C_9 
REMARK    4  A    between atoms: C_9  and  C_10 
REMARK       I    between atoms: C_10  and  N_12 
REMARK    5  A    between atoms: N_12  and  C_13 
ROOT
HETATM    1  C   UNL     1     -40.743 -50.623  11.673  1.00  0.00     0.235 C 
ENDROOT
BRANCH   1   2
HETATM    2  N   UNL     1     -39.943 -50.012  12.711  1.00  0.00    -0.302 N 
HETATM    3  C   UNL     1     -38.601 -50.295  12.768  1.00  0.00     0.250 C 
HETATM    4  C   UNL     1     -37.811 -49.394  13.621  1.00  0.00     0.101 C 
HETATM    5  O   UNL     1     -38.062 -51.209  12.150  1.00  0.00    -0.268 OA
HETATM    6  C   UNL     1     -38.453 -48.467  14.347  1.00  0.00     0.039 C 
HETATM    7  N   UNL     1     -39.826 -48.357  14.387  1.00  0.00    -0.354 N 
HETATM    8  C   UNL     1     -40.496 -49.097  13.569  1.00  0.00     0.186 C 
ATOM      9  HN  UNL     1     -40.291 -47.719  15.034  1.00  0.00     0.166 HD
BRANCH   6  10
HETATM   10  C   UNL     1     -37.674 -47.441  15.144  1.00  0.00     0.224 C 
BRANCH  10  11
HETATM   11  O   UNL     1     -36.291 -47.807  15.141  1.00  0.00    -0.390 OA
HETATM   12  C   UNL     1     -35.800 -48.016  16.457  1.00  0.00     0.201 C 
ENDBRANCH  10  11
ENDBRANCH   6  10
ENDBRANCH   1   2
BRANCH   1  13
HETATM   13  C   UNL     1     -41.565 -51.799  12.174  1.00  0.00     0.236 C 
HETATM   14  O   UNL     1     -41.047 -52.905  12.328  1.00  0.00    -0.272 OA
HETATM   15  N   UNL     1     -42.886 -51.532  12.483  1.00  0.00    -0.355 N 
HETATM   16  H   UNL     1     -43.284 -50.633  12.217  1.00  0.00     0.162 HD
BRANCH  15  17
HETATM   17  C   UNL     1     -43.685 -52.502  13.236  1.00  0.00     0.088 C 
HETATM   18  C   UNL     1     -44.895 -53.010  12.427  1.00  0.00     0.025 C 
HETATM   19  C   UNL     1     -46.176 -52.204  12.599  1.00  0.00     0.002 C 
HETATM   20  C   UNL     1     -46.491 -51.935  14.062  1.00  0.00     0.005 C 
HETATM   21  C   UNL     1     -45.336 -51.178  14.727  1.00  0.00    -0.013 C 
HETATM   22  C   UNL     1     -45.734 -50.793  16.157  1.00  0.00     0.010 C 
HETATM   23  C   UNL     1     -44.054 -52.044  14.676  1.00  0.00     0.008 C 
HETATM   24  C   UNL     1     -42.876 -51.376  15.397  1.00  0.00     0.012 C 
ENDBRANCH  15  17
ENDBRANCH   1  13
TORSDOF 5
ENDMDL
MODEL 8
REMARK VINA RESULT:      -5.6      2.371      3.198
REMARK  5 active torsions:
REMARK  status: ('A' for Active; 'I' for Inactive)
REMARK    1  A    between atoms: O_2  and  C_3 
REMARK    2  A    between atoms: C_3  and  C_4 
REMARK    3  A    between atoms: N_8  and  C_9 
REMARK    4  A    between atoms: C_9  and  C_10 
REMARK       I    between atoms: C_10  and  N_12 
REMARK    5  A    between atoms: N_12  and  C_13 
ROOT
HETATM    1  C   UNL     1     -40.643 -49.656  10.959  1.00  0.00     0.235 C 
ENDROOT
BRANCH   1   2
HETATM    2  N   UNL     1     -41.033 -48.349  11.438  1.00  0.00    -0.302 N 
HETATM    3  C   UNL     1     -42.021 -47.667  10.773  1.00  0.00     0.250 C 
HETATM    4  C   UNL     1     -42.585 -46.521  11.502  1.00  0.00     0.101 C 
HETATM    5  O   UNL     1     -42.444 -47.975   9.661  1.00  0.00    -0.268 OA
HETATM    6  C   UNL     1     -42.033 -46.167  12.672  1.00  0.00     0.039 C 
HETATM    7  N   UNL     1     -40.918 -46.782  13.197  1.00  0.00    -0.354 N 
HETATM    8  C   UNL     1     -40.490 -47.837  12.588  1.00  0.00     0.186 C 
ATOM      9  HN  UNL     1     -40.451 -46.420  14.029  1.00  0.00     0.166 HD
BRANCH   6  10
HETATM   10  C   UNL     1     -42.655 -45.073  13.515  1.00  0.00     0.224 C 
BRANCH  10  11
HETATM   11  O   UNL     1     -43.792 -45.608  14.200  1.00  0.00    -0.390 OA
HETATM   12  C   UNL     1     -43.541 -45.772  15.588  1.00  0.00     0.201 C 
ENDBRANCH  10  11
ENDBRANCH   6  10
ENDBRANCH   1   2
BRANCH   1  13
HETATM   13  C   UNL     1     -40.898 -50.759  11.974  1.00  0.00     0.236 C 
HETATM   14  O   UNL     1     -39.967 -51.259  12.605  1.00  0.00    -0.272 OA
HETATM   15  N   UNL     1     -42.220 -51.115  12.167  1.00  0.00    -0.355 N 
HETATM   16  H   UNL     1     -42.927 -50.755  11.529  1.00  0.00     0.162 HD
BRANCH  15  17
HETATM   17  C   UNL     1     -42.608 -51.947  13.309  1.00  0.00     0.088 C 
HETATM   18  C   UNL     1     -42.777 -53.428  12.917  1.00  0.00     0.025 C 
HETATM   19  C   UNL     1     -44.179 -53.827  12.475  1.00  0.00     0.002 C 
HETATM   20  C   UNL     1     -45.246 -53.326  13.435  1.00  0.00     0.005 C 
HETATM   21  C   UNL     1     -45.181 -51.799  13.557  1.00  0.00    -0.013 C 
HETATM   22  C   UNL     1     -46.353 -51.306  14.414  1.00  0.00     0.010 C 
HETATM   23  C   UNL     1     -43.804 -51.385  14.131  1.00  0.00     0.008 C 
HETATM   24  C   UNL     1     -43.703 -49.871  14.353  1.00  0.00     0.012 C 
ENDBRANCH  15  17
ENDBRANCH   1  13
TORSDOF 5
ENDMDL
MODEL 9
REMARK VINA RESULT:      -5.5      2.999      4.828
REMARK  5 active torsions:
REMARK  status: ('A' for Active; 'I' for Inactive)
REMARK    1  A    between atoms: O_2  and  C_3 
REMARK    2  A    between atoms: C_3  and  C_4 
REMARK    3  A    between atoms: N_8  and  C_9 
REMARK    4  A    between atoms: C_9  and  C_10 
REMARK       I    between atoms: C_10  and  N_12 
REMARK    5  A    between atoms: N_12  and  C_13 
ROOT
HETATM    1  C   UNL     1     -40.643 -48.368  12.653  1.00  0.00     0.235 C 
ENDROOT
BRANCH   1   2
HETATM    2  N   UNL     1     -41.666 -47.898  11.747  1.00  0.00    -0.302 N 
HETATM    3  C   UNL     1     -41.331 -46.975  10.788  1.00  0.00     0.250 C 
HETATM    4  C   UNL     1     -42.321 -46.804   9.714  1.00  0.00     0.101 C 
HETATM    5  O   UNL     1     -40.281 -46.337  10.782  1.00  0.00    -0.268 OA
HETATM    6  C   UNL     1     -43.491 -47.453   9.808  1.00  0.00     0.039 C 
HETATM    7  N   UNL     1     -43.842 -48.223  10.896  1.00  0.00    -0.354 N 
HETATM    8  C   UNL     1     -42.929 -48.430  11.785  1.00  0.00     0.186 C 
ATOM      9  HN  UNL     1     -44.780 -48.612  10.993  1.00  0.00     0.166 HD
BRANCH   6  10
HETATM   10  C   UNL     1     -44.490 -47.405   8.671  1.00  0.00     0.224 C 
BRANCH  10  11
HETATM   11  O   UNL     1     -45.539 -46.494   9.016  1.00  0.00    -0.390 OA
HETATM   12  C   UNL     1     -46.803 -47.140   9.057  1.00  0.00     0.201 C 
ENDBRANCH  10  11
ENDBRANCH   6  10
ENDBRANCH   1   2
BRANCH   1  13
HETATM   13  C   UNL     1     -40.160 -49.771  12.324  1.00  0.00     0.236 C 
HETATM   14  O   UNL     1     -39.388 -49.964  11.385  1.00  0.00    -0.272 OA
HETATM   15  N   UNL     1     -40.598 -50.779  13.163  1.00  0.00    -0.355 N 
HETATM   16  H   UNL     1     -41.330 -50.574  13.842  1.00  0.00     0.162 HD
BRANCH  15  17
HETATM   17  C   UNL     1     -39.978 -52.105  13.121  1.00  0.00     0.088 C 
HETATM   18  C   UNL     1     -40.902 -53.158  12.477  1.00  0.00     0.025 C 
HETATM   19  C   UNL     1     -41.818 -53.897  13.445  1.00  0.00     0.002 C 
HETATM   20  C   UNL     1     -41.069 -54.409  14.665  1.00  0.00     0.005 C 
HETATM   21  C   UNL     1     -40.398 -53.247  15.406  1.00  0.00    -0.013 C 
HETATM   22  C   UNL     1     -39.771 -53.767  16.706  1.00  0.00     0.010 C 
HETATM   23  C   UNL     1     -39.365 -52.567  14.475  1.00  0.00     0.008 C 
HETATM   24  C   UNL     1     -38.600 -51.443  15.184  1.00  0.00     0.012 C 
ENDBRANCH  15  17
ENDBRANCH   1  13
TORSDOF 5
ENDMDL
