MODEL 1
REMARK VINA RESULT:      -6.3      0.000      0.000
REMARK  5 active torsions:
REMARK  status: ('A' for Active; 'I' for Inactive)
REMARK    1  A    between atoms: O_2  and  C_3 
REMARK    2  A    between atoms: C_6  and  N_7 
REMARK       I    between atoms: N_7  and  C_8 
REMARK       I    between atoms: C_8  and  N_10 
REMARK    3  A    between atoms: N_10  and  C_11 
REMARK    4  A    between atoms: C_11  and  C_12 
REMARK    5  A    between atoms: C_12  and  N_13 
ROOT
HETATM    1  N   UNL     1     -41.175 -48.961  10.413  1.00  0.00    -0.308 N 
HETATM    2  C   UNL     1     -41.320 -49.786  11.507  1.00  0.00     0.320 C 
HETATM    3  O   UNL     1     -41.791 -49.439  12.585  1.00  0.00    -0.247 OA
HETATM    4  N   UNL     1     -40.883 -51.081  11.275  1.00  0.00    -0.341 N 
HETATM    5  H   UNL     1     -41.131 -49.413   9.515  1.00  0.00     0.170 HD
HETATM    6  H   UNL     1     -40.867 -51.404  10.319  1.00  0.00     0.164 HD
ENDROOT
BRANCH   1   7
HETATM    7  C   UNL     1     -41.582 -47.604  10.436  1.00  0.00     0.051 A 
HETATM    8  C   UNL     1     -40.730 -46.565  10.825  1.00  0.00     0.035 A 
HETATM    9  C   UNL     1     -41.213 -45.255  10.856  1.00  0.00     0.058 A 
HETATM   10  C   UNL     1     -42.529 -45.028  10.501  1.00  0.00     0.141 A 
HETATM   11  N   UNL     1     -43.379 -46.003  10.105  1.00  0.00    -0.345 N 
HETATM   12  C   UNL     1     -42.882 -47.263  10.077  1.00  0.00     0.119 A 
ATOM     13  HN  UNL     1     -44.343 -45.801   9.842  1.00  0.00     0.167 HD
BRANCH  10  14
HETATM   14  O   UNL     1     -42.964 -43.719  10.565  1.00  0.00    -0.341 OA
HETATM   15  C   UNL     1     -42.413 -43.002  11.665  1.00  0.00     0.211 C 
ENDBRANCH  10  14
ENDBRANCH   1   7
BRANCH   4  16
HETATM   16  C   UNL     1     -41.195 -52.048  12.318  1.00  0.00     0.154 C 
BRANCH  16  17
HETATM   17  C   UNL     1     -42.611 -52.670  12.292  1.00  0.00     0.292 C 
BRANCH  17  18
HETATM   18  N   UNL     1     -43.297 -52.508  13.599  1.00  0.00     0.094 N 
HETATM   19  C   UNL     1     -42.491 -52.998  14.734  1.00  0.00     0.273 C 
HETATM   20  C   UNL     1     -42.368 -54.520  14.781  1.00  0.00     0.030 C 
HETATM   21  C   UNL     1     -43.745 -55.176  14.817  1.00  0.00     0.004 C 
HETATM   22  C   UNL     1     -44.659 -54.627  13.721  1.00  0.00     0.035 C 
HETATM   23  C   UNL     1     -44.654 -53.090  13.697  1.00  0.00     0.219 C 
HETATM   24  C   UNL     1     -45.644 -52.546  12.664  1.00  0.00     0.043 C 
ENDBRANCH  17  18
ENDBRANCH  16  17
ENDBRANCH   4  16
TORSDOF 5
ENDMDL
MODEL 2
REMARK VINA RESULT:      -6.0      1.155      2.055
REMARK  5 active torsions:
REMARK  status: ('A' for Active; 'I' for Inactive)
REMARK    1  A    between atoms: O_2  and  C_3 
REMARK    2  A    between atoms: C_6  and  N_7 
REMARK       I    between atoms: N_7  and  C_8 
REMARK       I    between atoms: C_8  and  N_10 
REMARK    3  A    between atoms: N_10  and  C_11 
REMARK    4  A    between atoms: C_11  and  C_12 
REMARK    5  A    between atoms: C_12  and  N_13 
ROOT
HETATM    1  N   UNL     1     -42.134 -49.062  10.921  1.00  0.00    -0.308 N 
HETATM    2  C   UNL     1     -41.885 -49.769  12.077  1.00  0.00     0.320 C 
HETATM    3  O   UNL     1     -41.512 -49.270  13.133  1.00  0.00    -0.247 OA
HETATM    4  N   UNL     1     -42.108 -51.131  11.943  1.00  0.00    -0.341 N 
HETATM    5  H   UNL     1     -42.760 -49.491  10.261  1.00  0.00     0.170 HD
HETATM    6  H   UNL     1     -42.747 -51.430  11.221  1.00  0.00     0.164 HD
ENDROOT
BRANCH   1   7
HETATM    7  C   UNL     1     -41.988 -47.655  10.855  1.00  0.00     0.051 A 
HETATM    8  C   UNL     1     -40.740 -47.026  10.786  1.00  0.00     0.035 A 
HETATM    9  C   UNL     1     -40.675 -45.631  10.758  1.00  0.00     0.058 A 
HETATM   10  C   UNL     1     -41.854 -44.913  10.803  1.00  0.00     0.141 A 
HETATM   11  N   UNL     1     -43.079 -45.485  10.855  1.00  0.00    -0.345 N 
HETATM   12  C   UNL     1     -43.114 -46.838  10.873  1.00  0.00     0.119 A 
ATOM     13  HN  UNL     1     -43.932 -44.925  10.878  1.00  0.00     0.167 HD
BRANCH  10  14
HETATM   14  O   UNL     1     -41.736 -43.537  10.792  1.00  0.00    -0.341 OA
HETATM   15  C   UNL     1     -42.970 -42.870  11.035  1.00  0.00     0.211 C 
ENDBRANCH  10  14
ENDBRANCH   1   7
BRANCH   4  16
HETATM   16  C   UNL     1     -42.061 -51.902  13.176  1.00  0.00     0.154 C 
BRANCH  16  17
HETATM   17  C   UNL     1     -43.387 -52.049  13.958  1.00  0.00     0.292 C 
BRANCH  17  18
HETATM   18  N   UNL     1     -44.274 -53.062  13.331  1.00  0.00     0.094 N 
HETATM   19  C   UNL     1     -45.501 -52.473  12.758  1.00  0.00     0.273 C 
HETATM   20  C   UNL     1     -46.494 -51.989  13.813  1.00  0.00     0.030 C 
HETATM   21  C   UNL     1     -46.873 -53.121  14.763  1.00  0.00     0.004 C 
HETATM   22  C   UNL     1     -45.636 -53.835  15.309  1.00  0.00     0.035 C 
HETATM   23  C   UNL     1     -44.656 -54.209  14.185  1.00  0.00     0.219 C 
HETATM   24  C   UNL     1     -43.468 -55.009  14.725  1.00  0.00     0.043 C 
ENDBRANCH  17  18
ENDBRANCH  16  17
ENDBRANCH   4  16
TORSDOF 5
ENDMDL
MODEL 3
REMARK VINA RESULT:      -5.7      2.279      7.959
REMARK  5 active torsions:
REMARK  status: ('A' for Active; 'I' for Inactive)
REMARK    1  A    between atoms: O_2  and  C_3 
REMARK    2  A    between atoms: C_6  and  N_7 
REMARK       I    between atoms: N_7  and  C_8 
REMARK       I    between atoms: C_8  and  N_10 
REMARK    3  A    between atoms: N_10  and  C_11 
REMARK    4  A    between atoms: C_11  and  C_12 
REMARK    5  A    between atoms: C_12  and  N_13 
ROOT
HETATM    1  N   UNL     1     -41.676 -52.289  11.622  1.00  0.00    -0.308 N 
HETATM    2  C   UNL     1     -41.282 -51.023  11.997  1.00  0.00     0.320 C 
HETATM    3  O   UNL     1     -41.691 -50.430  12.988  1.00  0.00    -0.247 OA
HETATM    4  N   UNL     1     -40.349 -50.464  11.135  1.00  0.00    -0.341 N 
HETATM    5  H   UNL     1     -41.036 -52.801  11.037  1.00  0.00     0.170 HD
HETATM    6  H   UNL     1     -39.785 -51.095  10.587  1.00  0.00     0.164 HD
ENDROOT
BRANCH   1   7
HETATM    7  C   UNL     1     -42.605 -53.041  12.380  1.00  0.00     0.051 A 
HETATM    8  C   UNL     1     -43.982 -53.014  12.133  1.00  0.00     0.035 A 
HETATM    9  C   UNL     1     -44.840 -53.757  12.946  1.00  0.00     0.058 A 
HETATM   10  C   UNL     1     -44.297 -54.498  13.978  1.00  0.00     0.141 A 
HETATM   11  N   UNL     1     -42.971 -54.562  14.239  1.00  0.00    -0.345 N 
HETATM   12  C   UNL     1     -42.161 -53.838  13.431  1.00  0.00     0.119 A 
ATOM     13  HN  UNL     1     -42.602 -55.125  15.005  1.00  0.00     0.167 HD
BRANCH  10  14
HETATM   14  O   UNL     1     -45.189 -55.200  14.764  1.00  0.00    -0.341 OA
HETATM   15  C   UNL     1     -46.471 -54.584  14.840  1.00  0.00     0.211 C 
ENDBRANCH  10  14
ENDBRANCH   1   7
BRANCH   4  16
HETATM   16  C   UNL     1     -39.744 -49.219  11.584  1.00  0.00     0.154 C 
BRANCH  16  17
HETATM   17  C   UNL     1     -40.437 -47.908  11.146  1.00  0.00     0.292 C 
BRANCH  17  18
HETATM   18  N   UNL     1     -40.116 -46.791  12.070  1.00  0.00     0.094 N 
HETATM   19  C   UNL     1     -40.734 -46.951  13.401  1.00  0.00     0.273 C 
HETATM   20  C   UNL     1     -42.249 -46.751  13.395  1.00  0.00     0.030 C 
HETATM   21  C   UNL     1     -42.615 -45.383  12.828  1.00  0.00     0.004 C 
HETATM   22  C   UNL     1     -41.916 -45.121  11.494  1.00  0.00     0.035 C 
HETATM   23  C   UNL     1     -40.412 -45.429  11.572  1.00  0.00     0.219 C 
HETATM   24  C   UNL     1     -39.702 -45.073  10.264  1.00  0.00     0.043 C 
ENDBRANCH  17  18
ENDBRANCH  16  17
ENDBRANCH   4  16
TORSDOF 5
ENDMDL
MODEL 4
REMARK VINA RESULT:      -5.6      2.215      8.257
REMARK  5 active torsions:
REMARK  status: ('A' for Active; 'I' for Inactive)
REMARK    1  A    between atoms: O_2  and  C_3 
REMARK    2  A    between atoms: C_6  and  N_7 
REMARK       I    between atoms: N_7  and  C_8 
REMARK       I    between atoms: C_8  and  N_10 
REMARK    3  A    between atoms: N_10  and  C_11 
REMARK    4  A    between atoms: C_11  and  C_12 
REMARK    5  A    between atoms: C_12  and  N_13 
ROOT
HETATM    1  N   UNL     1     -41.217 -52.447  12.068  1.00  0.00    -0.308 N 
HETATM    2  C   UNL     1     -41.405 -51.083  12.120  1.00  0.00     0.320 C 
HETATM    3  O   UNL     1     -41.963 -50.490  13.036  1.00  0.00    -0.247 OA
HETATM    4  N   UNL     1     -40.887 -50.418  11.018  1.00  0.00    -0.341 N 
HETATM    5  H   UNL     1     -40.461 -52.772  11.489  1.00  0.00     0.170 HD
HETATM    6  H   UNL     1     -40.142 -50.870  10.510  1.00  0.00     0.164 HD
ENDROOT
BRANCH   1   7
HETATM    7  C   UNL     1     -41.654 -53.306  13.106  1.00  0.00     0.051 A 
HETATM    8  C   UNL     1     -40.807 -53.747  14.129  1.00  0.00     0.035 A 
HETATM    9  C   UNL     1     -41.300 -54.621  15.099  1.00  0.00     0.058 A 
HETATM   10  C   UNL     1     -42.618 -55.028  15.014  1.00  0.00     0.141 A 
HETATM   11  N   UNL     1     -43.471 -54.612  14.050  1.00  0.00    -0.345 N 
HETATM   12  C   UNL     1     -42.969 -53.759  13.127  1.00  0.00     0.119 A 
ATOM     13  HN  UNL     1     -44.442 -54.925  14.020  1.00  0.00     0.167 HD
BRANCH  10  14
HETATM   14  O   UNL     1     -43.053 -55.907  15.986  1.00  0.00    -0.341 OA
HETATM   15  C   UNL     1     -42.111 -56.082  17.040  1.00  0.00     0.211 C 
ENDBRANCH  10  14
ENDBRANCH   1   7
BRANCH   4  16
HETATM   16  C   UNL     1     -40.872 -48.966  11.109  1.00  0.00     0.154 C 
BRANCH  16  17
HETATM   17  C   UNL     1     -41.794 -48.196  10.135  1.00  0.00     0.292 C 
BRANCH  17  18
HETATM   18  N   UNL     1     -42.714 -47.288  10.865  1.00  0.00     0.094 N 
HETATM   19  C   UNL     1     -44.120 -47.735  10.817  1.00  0.00     0.273 C 
HETATM   20  C   UNL     1     -44.762 -47.575   9.440  1.00  0.00     0.030 C 
HETATM   21  C   UNL     1     -44.675 -46.129   8.964  1.00  0.00     0.004 C 
HETATM   22  C   UNL     1     -43.254 -45.579   9.090  1.00  0.00     0.035 C 
HETATM   23  C   UNL     1     -42.659 -45.859  10.480  1.00  0.00     0.219 C 
HETATM   24  C   UNL     1     -41.276 -45.223  10.633  1.00  0.00     0.043 C 
ENDBRANCH  17  18
ENDBRANCH  16  17
ENDBRANCH   4  16
TORSDOF 5
ENDMDL
MODEL 5
REMARK VINA RESULT:      -5.5      3.674      4.310
REMARK  5 active torsions:
REMARK  status: ('A' for Active; 'I' for Inactive)
REMARK    1  A    between atoms: O_2  and  C_3 
REMARK    2  A    between atoms: C_6  and  N_7 
REMARK       I    between atoms: N_7  and  C_8 
REMARK       I    between atoms: C_8  and  N_10 
REMARK    3  A    between atoms: N_10  and  C_11 
REMARK    4  A    between atoms: C_11  and  C_12 
REMARK    5  A    between atoms: C_12  and  N_13 
ROOT
HETATM    1  N   UNL     1     -41.283 -50.900  11.818  1.00  0.00    -0.308 N 
HETATM    2  C   UNL     1     -41.720 -52.048  12.441  1.00  0.00     0.320 C 
HETATM    3  O   UNL     1     -41.231 -52.517  13.463  1.00  0.00    -0.247 OA
HETATM    4  N   UNL     1     -42.797 -52.642  11.799  1.00  0.00    -0.341 N 
HETATM    5  H   UNL     1     -41.952 -50.425  11.236  1.00  0.00     0.170 HD
HETATM    6  H   UNL     1     -43.379 -52.052  11.224  1.00  0.00     0.164 HD
ENDROOT
BRANCH   1   7
HETATM    7  C   UNL     1     -40.208 -50.132  12.327  1.00  0.00     0.051 A 
HETATM    8  C   UNL     1     -38.899 -50.251  11.848  1.00  0.00     0.035 A 
HETATM    9  C   UNL     1     -37.884 -49.484  12.423  1.00  0.00     0.058 A 
HETATM   10  C   UNL     1     -38.208 -48.629  13.460  1.00  0.00     0.141 A 
HETATM   11  N   UNL     1     -39.463 -48.475  13.941  1.00  0.00    -0.345 N 
HETATM   12  C   UNL     1     -40.429 -49.224  13.359  1.00  0.00     0.119 A 
ATOM     13  HN  UNL     1     -39.671 -47.828  14.702  1.00  0.00     0.167 HD
BRANCH  10  14
HETATM   14  O   UNL     1     -37.167 -47.906  14.007  1.00  0.00    -0.341 OA
HETATM   15  C   UNL     1     -37.498 -47.314  15.260  1.00  0.00     0.211 C 
ENDBRANCH  10  14
ENDBRANCH   1   7
BRANCH   4  16
HETATM   16  C   UNL     1     -43.432 -53.738  12.516  1.00  0.00     0.154 C 
BRANCH  16  17
HETATM   17  C   UNL     1     -44.586 -53.368  13.476  1.00  0.00     0.292 C 
BRANCH  17  18
HETATM   18  N   UNL     1     -44.728 -51.896  13.610  1.00  0.00     0.094 N 
HETATM   19  C   UNL     1     -44.175 -51.378  14.876  1.00  0.00     0.273 C 
HETATM   20  C   UNL     1     -45.008 -51.752  16.102  1.00  0.00     0.030 C 
HETATM   21  C   UNL     1     -46.449 -51.275  15.946  1.00  0.00     0.004 C 
HETATM   22  C   UNL     1     -47.039 -51.697  14.600  1.00  0.00     0.035 C 
HETATM   23  C   UNL     1     -46.095 -51.356  13.435  1.00  0.00     0.219 C 
HETATM   24  C   UNL     1     -46.732 -51.692  12.085  1.00  0.00     0.043 C 
ENDBRANCH  17  18
ENDBRANCH  16  17
ENDBRANCH   4  16
TORSDOF 5
ENDMDL
MODEL 6
REMARK VINA RESULT:      -5.5      1.733      2.574
REMARK  5 active torsions:
REMARK  status: ('A' for Active; 'I' for Inactive)
REMARK    1  A    between atoms: O_2  and  C_3 
REMARK    2  A    between atoms: C_6  and  N_7 
REMARK       I    between atoms: N_7  and  C_8 
REMARK       I    between atoms: C_8  and  N_10 
REMARK    3  A    between atoms: N_10  and  C_11 
REMARK    4  A    between atoms: C_11  and  C_12 
REMARK    5  A    between atoms: C_12  and  N_13 
ROOT
HETATM    1  N   UNL     1     -40.852 -49.384  10.648  1.00  0.00    -0.308 N 
HETATM    2  C   UNL     1     -41.357 -50.288  11.557  1.00  0.00     0.320 C 
HETATM    3  O   UNL     1     -42.158 -50.013  12.443  1.00  0.00    -0.247 OA
HETATM    4  N   UNL     1     -40.874 -51.575  11.373  1.00  0.00    -0.341 N 
HETATM    5  H   UNL     1     -40.513 -49.764   9.780  1.00  0.00     0.170 HD
HETATM    6  H   UNL     1     -40.542 -51.821  10.452  1.00  0.00     0.164 HD
ENDROOT
BRANCH   1   7
HETATM    7  C   UNL     1     -41.236 -48.021  10.651  1.00  0.00     0.051 A 
HETATM    8  C   UNL     1     -42.419 -47.567  10.058  1.00  0.00     0.035 A 
HETATM    9  C   UNL     1     -42.714 -46.202  10.072  1.00  0.00     0.058 A 
HETATM   10  C   UNL     1     -41.818 -45.338  10.671  1.00  0.00     0.141 A 
HETATM   11  N   UNL     1     -40.673 -45.740  11.267  1.00  0.00    -0.345 N 
HETATM   12  C   UNL     1     -40.415 -47.069  11.247  1.00  0.00     0.119 A 
ATOM     13  HN  UNL     1     -40.036 -45.076  11.709  1.00  0.00     0.167 HD
BRANCH  10  14
HETATM   14  O   UNL     1     -42.146 -43.997  10.642  1.00  0.00    -0.341 OA
HETATM   15  C   UNL     1     -41.220 -43.181  11.353  1.00  0.00     0.211 C 
ENDBRANCH  10  14
ENDBRANCH   1   7
BRANCH   4  16
HETATM   16  C   UNL     1     -41.520 -52.610  12.165  1.00  0.00     0.154 C 
BRANCH  16  17
HETATM   17  C   UNL     1     -40.668 -53.279  13.269  1.00  0.00     0.292 C 
BRANCH  17  18
HETATM   18  N   UNL     1     -41.168 -52.931  14.623  1.00  0.00     0.094 N 
HETATM   19  C   UNL     1     -40.199 -52.140  15.407  1.00  0.00     0.273 C 
HETATM   20  C   UNL     1     -38.984 -52.945  15.864  1.00  0.00     0.030 C 
HETATM   21  C   UNL     1     -39.412 -54.165  16.673  1.00  0.00     0.004 C 
HETATM   22  C   UNL     1     -40.495 -54.968  15.950  1.00  0.00     0.035 C 
HETATM   23  C   UNL     1     -41.635 -54.064  15.454  1.00  0.00     0.219 C 
HETATM   24  C   UNL     1     -42.760 -54.884  14.819  1.00  0.00     0.043 C 
ENDBRANCH  17  18
ENDBRANCH  16  17
ENDBRANCH   4  16
TORSDOF 5
ENDMDL
MODEL 7
REMARK VINA RESULT:      -5.3      2.593      7.991
REMARK  5 active torsions:
REMARK  status: ('A' for Active; 'I' for Inactive)
REMARK    1  A    between atoms: O_2  and  C_3 
REMARK    2  A    between atoms: C_6  and  N_7 
REMARK       I    between atoms: N_7  and  C_8 
REMARK       I    between atoms: C_8  and  N_10 
REMARK    3  A    between atoms: N_10  and  C_11 
REMARK    4  A    between atoms: C_11  and  C_12 
REMARK    5  A    between atoms: C_12  and  N_13 
ROOT
HETATM    1  N   UNL     1     -43.300 -51.564  12.437  1.00  0.00    -0.308 N 
HETATM    2  C   UNL     1     -41.980 -51.186  12.556  1.00  0.00     0.320 C 
HETATM    3  O   UNL     1     -41.244 -51.506  13.482  1.00  0.00    -0.247 OA
HETATM    4  N   UNL     1     -41.542 -50.398  11.502  1.00  0.00    -0.341 N 
HETATM    5  H   UNL     1     -43.684 -51.563  11.507  1.00  0.00     0.170 HD
HETATM    6  H   UNL     1     -42.033 -50.478  10.625  1.00  0.00     0.164 HD
ENDROOT
BRANCH   1   7
HETATM    7  C   UNL     1     -43.934 -52.390  13.398  1.00  0.00     0.051 A 
HETATM    8  C   UNL     1     -43.911 -53.787  13.329  1.00  0.00     0.035 A 
HETATM    9  C   UNL     1     -44.589 -54.534  14.294  1.00  0.00     0.058 A 
HETATM   10  C   UNL     1     -45.270 -53.862  15.291  1.00  0.00     0.141 A 
HETATM   11  N   UNL     1     -45.304 -52.514  15.400  1.00  0.00    -0.345 N 
HETATM   12  C   UNL     1     -44.631 -51.815  14.456  1.00  0.00     0.119 A 
ATOM     13  HN  UNL     1     -45.810 -52.049  16.154  1.00  0.00     0.167 HD
BRANCH  10  14
HETATM   14  O   UNL     1     -45.940 -54.645  16.211  1.00  0.00    -0.341 OA
HETATM   15  C   UNL     1     -45.817 -54.164  17.546  1.00  0.00     0.211 C 
ENDBRANCH  10  14
ENDBRANCH   1   7
BRANCH   4  16
HETATM   16  C   UNL     1     -40.110 -50.137  11.464  1.00  0.00     0.154 C 
BRANCH  16  17
HETATM   17  C   UNL     1     -39.661 -48.675  11.692  1.00  0.00     0.292 C 
BRANCH  17  18
HETATM   18  N   UNL     1     -40.826 -47.777  11.893  1.00  0.00     0.094 N 
HETATM   19  C   UNL     1     -41.024 -46.834  10.775  1.00  0.00     0.273 C 
HETATM   20  C   UNL     1     -39.961 -45.739  10.707  1.00  0.00     0.030 C 
HETATM   21  C   UNL     1     -39.895 -44.962  12.018  1.00  0.00     0.004 C 
HETATM   22  C   UNL     1     -39.794 -45.898  13.223  1.00  0.00     0.035 C 
HETATM   23  C   UNL     1     -40.849 -47.016  13.162  1.00  0.00     0.219 C 
HETATM   24  C   UNL     1     -40.805 -47.891  14.417  1.00  0.00     0.043 C 
ENDBRANCH  17  18
ENDBRANCH  16  17
ENDBRANCH   4  16
TORSDOF 5
ENDMDL
MODEL 8
REMARK VINA RESULT:      -5.3      2.158      8.329
REMARK  5 active torsions:
REMARK  status: ('A' for Active; 'I' for Inactive)
REMARK    1  A    between atoms: O_2  and  C_3 
REMARK    2  A    between atoms: C_6  and  N_7 
REMARK       I    between atoms: N_7  and  C_8 
REMARK       I    between atoms: C_8  and  N_10 
REMARK    3  A    between atoms: N_10  and  C_11 
REMARK    4  A    between atoms: C_11  and  C_12 
REMARK    5  A    between atoms: C_12  and  N_13 
ROOT
HETATM    1  N   UNL     1     -41.062 -51.180  11.454  1.00  0.00    -0.308 N 
HETATM    2  C   UNL     1     -40.624 -49.981  11.971  1.00  0.00     0.320 C 
HETATM    3  O   UNL     1     -40.679 -49.671  13.156  1.00  0.00    -0.247 OA
HETATM    4  N   UNL     1     -40.092 -49.134  11.011  1.00  0.00    -0.341 N 
HETATM    5  H   UNL     1     -40.651 -51.468  10.582  1.00  0.00     0.170 HD
HETATM    6  H   UNL     1     -39.731 -49.554  10.167  1.00  0.00     0.164 HD
ENDROOT
BRANCH   1   7
HETATM    7  C   UNL     1     -41.619 -52.193  12.272  1.00  0.00     0.051 A 
HETATM    8  C   UNL     1     -40.859 -53.242  12.802  1.00  0.00     0.035 A 
HETATM    9  C   UNL     1     -41.485 -54.223  13.572  1.00  0.00     0.058 A 
HETATM   10  C   UNL     1     -42.847 -54.128  13.785  1.00  0.00     0.141 A 
HETATM   11  N   UNL     1     -43.613 -53.123  13.303  1.00  0.00    -0.345 N 
HETATM   12  C   UNL     1     -42.979 -52.180  12.566  1.00  0.00     0.119 A 
ATOM     13  HN  UNL     1     -44.616 -53.077  13.485  1.00  0.00     0.167 HD
BRANCH  10  14
HETATM   14  O   UNL     1     -43.422 -55.133  14.537  1.00  0.00    -0.341 OA
HETATM   15  C   UNL     1     -42.624 -55.520  15.652  1.00  0.00     0.211 C 
ENDBRANCH  10  14
ENDBRANCH   1   7
BRANCH   4  16
HETATM   16  C   UNL     1     -39.429 -47.942  11.519  1.00  0.00     0.154 C 
BRANCH  16  17
HETATM   17  C   UNL     1     -40.028 -46.579  11.103  1.00  0.00     0.292 C 
BRANCH  17  18
HETATM   18  N   UNL     1     -40.788 -45.960  12.218  1.00  0.00     0.094 N 
HETATM   19  C   UNL     1     -42.242 -45.918  11.969  1.00  0.00     0.273 C 
HETATM   20  C   UNL     1     -42.646 -44.911  10.893  1.00  0.00     0.030 C 
HETATM   21  C   UNL     1     -42.153 -43.511  11.246  1.00  0.00     0.004 C 
HETATM   22  C   UNL     1     -40.669 -43.513  11.615  1.00  0.00     0.035 C 
HETATM   23  C   UNL     1     -40.342 -44.612  12.639  1.00  0.00     0.219 C 
HETATM   24  C   UNL     1     -38.877 -44.547  13.078  1.00  0.00     0.043 C 
ENDBRANCH  17  18
ENDBRANCH  16  17
ENDBRANCH   4  16
TORSDOF 5
ENDMDL
MODEL 9
REMARK VINA RESULT:      -5.2      1.979      2.970
REMARK  5 active torsions:
REMARK  status: ('A' for Active; 'I' for Inactive)
REMARK    1  A    between atoms: O_2  and  C_3 
REMARK    2  A    between atoms: C_6  and  N_7 
REMARK       I    between atoms: N_7  and  C_8 
REMARK       I    between atoms: C_8  and  N_10 
REMARK    3  A    between atoms: N_10  and  C_11 
REMARK    4  A    between atoms: C_11  and  C_12 
REMARK    5  A    between atoms: C_12  and  N_13 
ROOT
HETATM    1  N   UNL     1     -41.189 -48.465  10.623  1.00  0.00    -0.308 N 
HETATM    2  C   UNL     1     -41.649 -49.281  11.633  1.00  0.00     0.320 C 
HETATM    3  O   UNL     1     -42.195 -48.884  12.656  1.00  0.00    -0.247 OA
HETATM    4  N   UNL     1     -41.443 -50.629  11.383  1.00  0.00    -0.341 N 
HETATM    5  H   UNL     1     -41.103 -48.886   9.713  1.00  0.00     0.170 HD
HETATM    6  H   UNL     1     -41.350 -50.915  10.420  1.00  0.00     0.164 HD
ENDROOT
BRANCH   1   7
HETATM    7  C   UNL     1     -41.323 -47.056  10.675  1.00  0.00     0.051 A 
HETATM    8  C   UNL     1     -40.230 -46.197  10.831  1.00  0.00     0.035 A 
HETATM    9  C   UNL     1     -40.444 -44.819  10.908  1.00  0.00     0.058 A 
HETATM   10  C   UNL     1     -41.741 -44.347  10.831  1.00  0.00     0.141 A 
HETATM   11  N   UNL     1     -42.821 -45.144  10.666  1.00  0.00    -0.345 N 
HETATM   12  C   UNL     1     -42.584 -46.475  10.586  1.00  0.00     0.119 A 
ATOM     13  HN  UNL     1     -43.765 -44.762  10.604  1.00  0.00     0.167 HD
BRANCH  10  14
HETATM   14  O   UNL     1     -41.902 -42.979  10.931  1.00  0.00    -0.341 OA
HETATM   15  C   UNL     1     -43.269 -42.577  10.918  1.00  0.00     0.211 C 
ENDBRANCH  10  14
ENDBRANCH   1   7
BRANCH   4  16
HETATM   16  C   UNL     1     -42.085 -51.548  12.311  1.00  0.00     0.154 C 
BRANCH  16  17
HETATM   17  C   UNL     1     -41.324 -51.866  13.619  1.00  0.00     0.292 C 
BRANCH  17  18
HETATM   18  N   UNL     1     -40.156 -52.746  13.363  1.00  0.00     0.094 N 
HETATM   19  C   UNL     1     -40.455 -54.175  13.583  1.00  0.00     0.273 C 
HETATM   20  C   UNL     1     -40.638 -54.539  15.055  1.00  0.00     0.030 C 
HETATM   21  C   UNL     1     -39.408 -54.149  15.869  1.00  0.00     0.004 C 
HETATM   22  C   UNL     1     -38.990 -52.704  15.600  1.00  0.00     0.035 C 
HETATM   23  C   UNL     1     -38.913 -52.407  14.093  1.00  0.00     0.219 C 
HETATM   24  C   UNL     1     -38.401 -50.989  13.830  1.00  0.00     0.043 C 
ENDBRANCH  17  18
ENDBRANCH  16  17
ENDBRANCH   4  16
TORSDOF 5
ENDMDL
