MODEL 1
REMARK VINA RESULT:      -5.6      0.000      0.000
REMARK  4 active torsions:
REMARK  status: ('A' for Active; 'I' for Inactive)
REMARK       I    between atoms: C_2  and  N_3 
REMARK       I    between atoms: C_2  and  N_13 
REMARK    1  A    between atoms: N_3  and  C_4 
REMARK    2  A    between atoms: C_4  and  C_5 
REMARK    3  A    between atoms: C_5  and  C_6 
REMARK    4  A    between atoms: N_13  and  C_14 
ROOT
HETATM    1  O   UNL     1     -41.024 -48.132  12.458  1.00  0.00    -0.247 OA
HETATM    2  C   UNL     1     -40.801 -48.455  11.299  1.00  0.00     0.316 C 
HETATM    3  N   UNL     1     -41.544 -48.022  10.229  1.00  0.00    -0.343 N 
HETATM    4  N   UNL     1     -39.810 -49.329  10.906  1.00  0.00    -0.339 N 
HETATM    5  H   UNL     1     -41.182 -48.198   9.305  1.00  0.00     0.164 HD
HETATM    6  H   UNL     1     -39.616 -49.410   9.920  1.00  0.00     0.164 HD
ENDROOT
BRANCH   3   7
HETATM    7  C   UNL     1     -42.597 -47.027  10.368  1.00  0.00     0.130 C 
BRANCH   7   8
HETATM    8  C   UNL     1     -43.130 -46.631   8.995  1.00  0.00     0.076 C 
BRANCH   8   9
HETATM    9  C   UNL     1     -44.361 -47.389   8.583  1.00  0.00     0.010 A 
HETATM   10  C   UNL     1     -45.486 -47.410   9.405  1.00  0.00     0.025 A 
HETATM   11  C   UNL     1     -46.570 -48.201   9.038  1.00  0.00     0.003 A 
HETATM   12  C   UNL     1     -46.511 -48.938   7.863  1.00  0.00     0.017 A 
HETATM   13  C   UNL     1     -45.365 -48.842   7.092  1.00  0.00     0.088 A 
HETATM   14  N   UNL     1     -44.295 -48.088   7.423  1.00  0.00    -0.369 N 
ATOM     15  HN  UNL     1     -43.470 -48.045   6.825  1.00  0.00     0.165 HD
ENDBRANCH   8   9
ENDBRANCH   7   8
ENDBRANCH   3   7
BRANCH   4  16
HETATM   16  C   UNL     1     -38.925 -49.979  11.819  1.00  0.00     0.086 A 
HETATM   17  C   UNL     1     -37.815 -49.209  12.478  1.00  0.00     0.027 A 
HETATM   18  C   UNL     1     -37.493 -50.234  11.426  1.00  0.00     0.027 A 
ENDBRANCH   4  16
TORSDOF 4
ENDMDL
MODEL 2
REMARK VINA RESULT:      -5.5      3.315      6.560
REMARK  4 active torsions:
REMARK  status: ('A' for Active; 'I' for Inactive)
REMARK       I    between atoms: C_2  and  N_3 
REMARK       I    between atoms: C_2  and  N_13 
REMARK    1  A    between atoms: N_3  and  C_4 
REMARK    2  A    between atoms: C_4  and  C_5 
REMARK    3  A    between atoms: C_5  and  C_6 
REMARK    4  A    between atoms: N_13  and  C_14 
ROOT
HETATM    1  O   UNL     1     -43.133 -46.033   8.850  1.00  0.00    -0.247 OA
HETATM    2  C   UNL     1     -43.299 -46.996   9.588  1.00  0.00     0.316 C 
HETATM    3  N   UNL     1     -42.379 -47.413  10.518  1.00  0.00    -0.343 N 
HETATM    4  N   UNL     1     -44.402 -47.822   9.562  1.00  0.00    -0.339 N 
HETATM    5  H   UNL     1     -42.674 -48.100  11.193  1.00  0.00     0.164 HD
HETATM    6  H   UNL     1     -44.508 -48.491  10.308  1.00  0.00     0.164 HD
ENDROOT
BRANCH   3   7
HETATM    7  C   UNL     1     -41.165 -46.660  10.799  1.00  0.00     0.130 C 
BRANCH   7   8
HETATM    8  C   UNL     1     -41.378 -45.755  12.008  1.00  0.00     0.076 C 
BRANCH   8   9
HETATM    9  C   UNL     1     -41.624 -44.316  11.650  1.00  0.00     0.010 A 
HETATM   10  C   UNL     1     -40.624 -43.362  11.832  1.00  0.00     0.025 A 
HETATM   11  C   UNL     1     -40.918 -42.025  11.583  1.00  0.00     0.003 A 
HETATM   12  C   UNL     1     -42.190 -41.676  11.150  1.00  0.00     0.017 A 
HETATM   13  C   UNL     1     -43.118 -42.688  10.971  1.00  0.00     0.088 A 
HETATM   14  N   UNL     1     -42.864 -43.994  11.209  1.00  0.00    -0.369 N 
ATOM     15  HN  UNL     1     -43.577 -44.708  11.064  1.00  0.00     0.165 HD
ENDBRANCH   8   9
ENDBRANCH   7   8
ENDBRANCH   3   7
BRANCH   4  16
HETATM   16  C   UNL     1     -45.488 -47.657   8.650  1.00  0.00     0.086 A 
HETATM   17  C   UNL     1     -46.842 -47.237   9.150  1.00  0.00     0.027 A 
HETATM   18  C   UNL     1     -46.630 -48.640   8.653  1.00  0.00     0.027 A 
ENDBRANCH   4  16
TORSDOF 4
ENDMDL
MODEL 3
REMARK VINA RESULT:      -5.4      4.074      6.226
REMARK  4 active torsions:
REMARK  status: ('A' for Active; 'I' for Inactive)
REMARK       I    between atoms: C_2  and  N_3 
REMARK       I    between atoms: C_2  and  N_13 
REMARK    1  A    between atoms: N_3  and  C_4 
REMARK    2  A    between atoms: C_4  and  C_5 
REMARK    3  A    between atoms: C_5  and  C_6 
REMARK    4  A    between atoms: N_13  and  C_14 
ROOT
HETATM    1  O   UNL     1     -41.551 -49.027  12.575  1.00  0.00    -0.247 OA
HETATM    2  C   UNL     1     -41.323 -49.551  11.493  1.00  0.00     0.316 C 
HETATM    3  N   UNL     1     -40.698 -50.766  11.350  1.00  0.00    -0.343 N 
HETATM    4  N   UNL     1     -41.612 -48.985  10.270  1.00  0.00    -0.339 N 
HETATM    5  H   UNL     1     -40.711 -51.195  10.438  1.00  0.00     0.164 HD
HETATM    6  H   UNL     1     -41.521 -49.562   9.449  1.00  0.00     0.164 HD
ENDROOT
BRANCH   3   7
HETATM    7  C   UNL     1     -40.365 -51.605  12.492  1.00  0.00     0.130 C 
BRANCH   7   8
HETATM    8  C   UNL     1     -40.785 -53.046  12.223  1.00  0.00     0.076 C 
BRANCH   8   9
HETATM    9  C   UNL     1     -42.146 -53.390  12.761  1.00  0.00     0.010 A 
HETATM   10  C   UNL     1     -42.276 -54.186  13.897  1.00  0.00     0.025 A 
HETATM   11  C   UNL     1     -43.550 -54.565  14.310  1.00  0.00     0.003 A 
HETATM   12  C   UNL     1     -44.656 -54.133  13.590  1.00  0.00     0.017 A 
HETATM   13  C   UNL     1     -44.440 -53.323  12.487  1.00  0.00     0.088 A 
HETATM   14  N   UNL     1     -43.216 -52.944  12.060  1.00  0.00    -0.369 N 
ATOM     15  HN  UNL     1     -43.102 -52.346  11.242  1.00  0.00     0.165 HD
ENDBRANCH   8   9
ENDBRANCH   7   8
ENDBRANCH   3   7
BRANCH   4  16
HETATM   16  C   UNL     1     -42.210 -47.696  10.121  1.00  0.00     0.086 A 
HETATM   17  C   UNL     1     -43.667 -47.495  10.428  1.00  0.00     0.027 A 
HETATM   18  C   UNL     1     -43.188 -47.445   9.003  1.00  0.00     0.027 A 
ENDBRANCH   4  16
TORSDOF 4
ENDMDL
MODEL 4
REMARK VINA RESULT:      -5.3      3.935      5.700
REMARK  4 active torsions:
REMARK  status: ('A' for Active; 'I' for Inactive)
REMARK       I    between atoms: C_2  and  N_3 
REMARK       I    between atoms: C_2  and  N_13 
REMARK    1  A    between atoms: N_3  and  C_4 
REMARK    2  A    between atoms: C_4  and  C_5 
REMARK    3  A    between atoms: C_5  and  C_6 
REMARK    4  A    between atoms: N_13  and  C_14 
ROOT
HETATM    1  O   UNL     1     -43.017 -48.134  12.450  1.00  0.00    -0.247 OA
HETATM    2  C   UNL     1     -42.585 -48.683  11.445  1.00  0.00     0.316 C 
HETATM    3  N   UNL     1     -41.860 -49.849  11.464  1.00  0.00    -0.343 N 
HETATM    4  N   UNL     1     -42.718 -48.192  10.164  1.00  0.00    -0.339 N 
HETATM    5  H   UNL     1     -41.698 -50.315  10.586  1.00  0.00     0.164 HD
HETATM    6  H   UNL     1     -42.458 -48.793   9.399  1.00  0.00     0.164 HD
ENDROOT
BRANCH   3   7
HETATM    7  C   UNL     1     -41.651 -50.611  12.687  1.00  0.00     0.130 C 
BRANCH   7   8
HETATM    8  C   UNL     1     -42.385 -51.946  12.604  1.00  0.00     0.076 C 
BRANCH   8   9
HETATM    9  C   UNL     1     -43.835 -51.863  12.992  1.00  0.00     0.010 A 
HETATM   10  C   UNL     1     -44.227 -51.126  14.107  1.00  0.00     0.025 A 
HETATM   11  C   UNL     1     -45.564 -51.152  14.493  1.00  0.00     0.003 A 
HETATM   12  C   UNL     1     -46.472 -51.898  13.755  1.00  0.00     0.017 A 
HETATM   13  C   UNL     1     -46.004 -52.582  12.645  1.00  0.00     0.088 A 
HETATM   14  N   UNL     1     -44.713 -52.580  12.249  1.00  0.00    -0.369 N 
ATOM     15  HN  UNL     1     -44.410 -53.099  11.425  1.00  0.00     0.165 HD
ENDBRANCH   8   9
ENDBRANCH   7   8
ENDBRANCH   3   7
BRANCH   4  16
HETATM   16  C   UNL     1     -43.376 -46.962   9.857  1.00  0.00     0.086 A 
HETATM   17  C   UNL     1     -44.695 -46.966   9.138  1.00  0.00     0.027 A 
HETATM   18  C   UNL     1     -43.458 -46.489   8.429  1.00  0.00     0.027 A 
ENDBRANCH   4  16
TORSDOF 4
ENDMDL
MODEL 5
REMARK VINA RESULT:      -5.2      1.816      7.266
REMARK  4 active torsions:
REMARK  status: ('A' for Active; 'I' for Inactive)
REMARK       I    between atoms: C_2  and  N_3 
REMARK       I    between atoms: C_2  and  N_13 
REMARK    1  A    between atoms: N_3  and  C_4 
REMARK    2  A    between atoms: C_4  and  C_5 
REMARK    3  A    between atoms: C_5  and  C_6 
REMARK    4  A    between atoms: N_13  and  C_14 
ROOT
HETATM    1  O   UNL     1     -41.465 -48.161  11.906  1.00  0.00    -0.247 OA
HETATM    2  C   UNL     1     -41.288 -48.711  10.827  1.00  0.00     0.316 C 
HETATM    3  N   UNL     1     -40.404 -49.743  10.632  1.00  0.00    -0.343 N 
HETATM    4  N   UNL     1     -41.909 -48.348   9.652  1.00  0.00    -0.339 N 
HETATM    5  H   UNL     1     -40.453 -50.245   9.760  1.00  0.00     0.164 HD
HETATM    6  H   UNL     1     -41.807 -48.959   8.856  1.00  0.00     0.164 HD
ENDROOT
BRANCH   3   7
HETATM    7  C   UNL     1     -39.684 -50.366  11.734  1.00  0.00     0.130 C 
BRANCH   7   8
HETATM    8  C   UNL     1     -38.310 -49.724  11.891  1.00  0.00     0.076 C 
BRANCH   8   9
HETATM    9  C   UNL     1     -38.145 -48.955  13.172  1.00  0.00     0.010 A 
HETATM   10  C   UNL     1     -37.431 -49.500  14.237  1.00  0.00     0.025 A 
HETATM   11  C   UNL     1     -37.382 -48.803  15.440  1.00  0.00     0.003 A 
HETATM   12  C   UNL     1     -38.033 -47.581  15.547  1.00  0.00     0.017 A 
HETATM   13  C   UNL     1     -38.700 -47.099  14.433  1.00  0.00     0.088 A 
HETATM   14  N   UNL     1     -38.769 -47.755  13.254  1.00  0.00    -0.369 N 
ATOM     15  HN  UNL     1     -39.272 -47.363  12.458  1.00  0.00     0.165 HD
ENDBRANCH   8   9
ENDBRANCH   7   8
ENDBRANCH   3   7
BRANCH   4  16
HETATM   16  C   UNL     1     -42.835 -47.265   9.551  1.00  0.00     0.086 A 
HETATM   17  C   UNL     1     -44.284 -47.472   9.889  1.00  0.00     0.027 A 
HETATM   18  C   UNL     1     -43.872 -47.260   8.459  1.00  0.00     0.027 A 
ENDBRANCH   4  16
TORSDOF 4
ENDMDL
MODEL 6
REMARK VINA RESULT:      -5.1      6.408      9.675
REMARK  4 active torsions:
REMARK  status: ('A' for Active; 'I' for Inactive)
REMARK       I    between atoms: C_2  and  N_3 
REMARK       I    between atoms: C_2  and  N_13 
REMARK    1  A    between atoms: N_3  and  C_4 
REMARK    2  A    between atoms: C_4  and  C_5 
REMARK    3  A    between atoms: C_5  and  C_6 
REMARK    4  A    between atoms: N_13  and  C_14 
ROOT
HETATM    1  O   UNL     1     -43.875 -54.455  13.652  1.00  0.00    -0.247 OA
HETATM    2  C   UNL     1     -43.586 -53.563  12.865  1.00  0.00     0.316 C 
HETATM    3  N   UNL     1     -42.305 -53.298  12.447  1.00  0.00    -0.343 N 
HETATM    4  N   UNL     1     -44.488 -52.671  12.326  1.00  0.00    -0.339 N 
HETATM    5  H   UNL     1     -42.186 -52.666  11.672  1.00  0.00     0.164 HD
HETATM    6  H   UNL     1     -44.172 -52.075  11.578  1.00  0.00     0.164 HD
ENDROOT
BRANCH   3   7
HETATM    7  C   UNL     1     -41.180 -54.150  12.808  1.00  0.00     0.130 C 
BRANCH   7   8
HETATM    8  C   UNL     1     -40.534 -53.646  14.094  1.00  0.00     0.076 C 
BRANCH   8   9
HETATM    9  C   UNL     1     -40.548 -54.650  15.212  1.00  0.00     0.010 A 
HETATM   10  C   UNL     1     -39.356 -55.182  15.699  1.00  0.00     0.025 A 
HETATM   11  C   UNL     1     -39.412 -56.181  16.666  1.00  0.00     0.003 A 
HETATM   12  C   UNL     1     -40.647 -56.614  17.128  1.00  0.00     0.017 A 
HETATM   13  C   UNL     1     -41.783 -56.017  16.609  1.00  0.00     0.088 A 
HETATM   14  N   UNL     1     -41.761 -55.049  15.667  1.00  0.00    -0.369 N 
ATOM     15  HN  UNL     1     -42.622 -54.635  15.312  1.00  0.00     0.165 HD
ENDBRANCH   8   9
ENDBRANCH   7   8
ENDBRANCH   3   7
BRANCH   4  16
HETATM   16  C   UNL     1     -45.882 -52.676  12.636  1.00  0.00     0.086 A 
HETATM   17  C   UNL     1     -46.813 -51.707  11.963  1.00  0.00     0.027 A 
HETATM   18  C   UNL     1     -46.483 -51.539  13.420  1.00  0.00     0.027 A 
ENDBRANCH   4  16
TORSDOF 4
ENDMDL
MODEL 7
REMARK VINA RESULT:      -5.1      2.350      4.137
REMARK  4 active torsions:
REMARK  status: ('A' for Active; 'I' for Inactive)
REMARK       I    between atoms: C_2  and  N_3 
REMARK       I    between atoms: C_2  and  N_13 
REMARK    1  A    between atoms: N_3  and  C_4 
REMARK    2  A    between atoms: C_4  and  C_5 
REMARK    3  A    between atoms: C_5  and  C_6 
REMARK    4  A    between atoms: N_13  and  C_14 
ROOT
HETATM    1  O   UNL     1     -41.156 -48.764  12.399  1.00  0.00    -0.247 OA
HETATM    2  C   UNL     1     -40.893 -49.051  11.239  1.00  0.00     0.316 C 
HETATM    3  N   UNL     1     -41.699 -48.736  10.173  1.00  0.00    -0.343 N 
HETATM    4  N   UNL     1     -39.785 -49.766  10.840  1.00  0.00    -0.339 N 
HETATM    5  H   UNL     1     -41.321 -48.856   9.247  1.00  0.00     0.164 HD
HETATM    6  H   UNL     1     -39.586 -49.818   9.853  1.00  0.00     0.164 HD
ENDROOT
BRANCH   3   7
HETATM    7  C   UNL     1     -42.889 -47.910  10.318  1.00  0.00     0.130 C 
BRANCH   7   8
HETATM    8  C   UNL     1     -42.705 -46.590   9.578  1.00  0.00     0.076 C 
BRANCH   8   9
HETATM    9  C   UNL     1     -41.821 -45.611  10.298  1.00  0.00     0.010 A 
HETATM   10  C   UNL     1     -42.362 -44.709  11.211  1.00  0.00     0.025 A 
HETATM   11  C   UNL     1     -41.530 -43.753  11.785  1.00  0.00     0.003 A 
HETATM   12  C   UNL     1     -40.184 -43.728  11.444  1.00  0.00     0.017 A 
HETATM   13  C   UNL     1     -39.721 -44.675  10.546  1.00  0.00     0.088 A 
HETATM   14  N   UNL     1     -40.506 -45.612   9.969  1.00  0.00    -0.369 N 
ATOM     15  HN  UNL     1     -40.124 -46.292   9.313  1.00  0.00     0.165 HD
ENDBRANCH   8   9
ENDBRANCH   7   8
ENDBRANCH   3   7
BRANCH   4  16
HETATM   16  C   UNL     1     -38.806 -50.274  11.748  1.00  0.00     0.086 A 
HETATM   17  C   UNL     1     -37.839 -49.341  12.421  1.00  0.00     0.027 A 
HETATM   18  C   UNL     1     -37.351 -50.286  11.357  1.00  0.00     0.027 A 
ENDBRANCH   4  16
TORSDOF 4
ENDMDL
MODEL 8
REMARK VINA RESULT:      -5.1      2.134      7.144
REMARK  4 active torsions:
REMARK  status: ('A' for Active; 'I' for Inactive)
REMARK       I    between atoms: C_2  and  N_3 
REMARK       I    between atoms: C_2  and  N_13 
REMARK    1  A    between atoms: N_3  and  C_4 
REMARK    2  A    between atoms: C_4  and  C_5 
REMARK    3  A    between atoms: C_5  and  C_6 
REMARK    4  A    between atoms: N_13  and  C_14 
ROOT
HETATM    1  O   UNL     1     -43.125 -45.722   9.094  1.00  0.00    -0.247 OA
HETATM    2  C   UNL     1     -43.080 -46.878   9.494  1.00  0.00     0.316 C 
HETATM    3  N   UNL     1     -42.020 -47.404  10.191  1.00  0.00    -0.343 N 
HETATM    4  N   UNL     1     -44.054 -47.825   9.266  1.00  0.00    -0.339 N 
HETATM    5  H   UNL     1     -42.145 -48.303  10.627  1.00  0.00     0.164 HD
HETATM    6  H   UNL     1     -43.989 -48.699   9.764  1.00  0.00     0.164 HD
ENDROOT
BRANCH   3   7
HETATM    7  C   UNL     1     -40.899 -46.585  10.631  1.00  0.00     0.130 C 
BRANCH   7   8
HETATM    8  C   UNL     1     -40.932 -46.422  12.147  1.00  0.00     0.076 C 
BRANCH   8   9
HETATM    9  C   UNL     1     -39.795 -47.104  12.854  1.00  0.00     0.010 A 
HETATM   10  C   UNL     1     -39.144 -46.475  13.913  1.00  0.00     0.025 A 
HETATM   11  C   UNL     1     -38.032 -47.093  14.480  1.00  0.00     0.003 A 
HETATM   12  C   UNL     1     -37.608 -48.319  13.986  1.00  0.00     0.017 A 
HETATM   13  C   UNL     1     -38.326 -48.887  12.947  1.00  0.00     0.088 A 
HETATM   14  N   UNL     1     -39.404 -48.309  12.373  1.00  0.00    -0.369 N 
ATOM     15  HN  UNL     1     -39.905 -48.763  11.609  1.00  0.00     0.165 HD
ENDBRANCH   8   9
ENDBRANCH   7   8
ENDBRANCH   3   7
BRANCH   4  16
HETATM   16  C   UNL     1     -45.241 -47.569   8.514  1.00  0.00     0.086 A 
HETATM   17  C   UNL     1     -46.471 -47.040   9.196  1.00  0.00     0.027 A 
HETATM   18  C   UNL     1     -46.448 -48.455   8.688  1.00  0.00     0.027 A 
ENDBRANCH   4  16
TORSDOF 4
ENDMDL
MODEL 9
REMARK VINA RESULT:      -5.1      4.970      5.853
REMARK  4 active torsions:
REMARK  status: ('A' for Active; 'I' for Inactive)
REMARK       I    between atoms: C_2  and  N_3 
REMARK       I    between atoms: C_2  and  N_13 
REMARK    1  A    between atoms: N_3  and  C_4 
REMARK    2  A    between atoms: C_4  and  C_5 
REMARK    3  A    between atoms: C_5  and  C_6 
REMARK    4  A    between atoms: N_13  and  C_14 
ROOT
HETATM    1  O   UNL     1     -41.192 -51.540  13.923  1.00  0.00    -0.247 OA
HETATM    2  C   UNL     1     -40.910 -51.974  12.814  1.00  0.00     0.316 C 
HETATM    3  N   UNL     1     -41.504 -53.078  12.252  1.00  0.00    -0.343 N 
HETATM    4  N   UNL     1     -39.933 -51.454  11.994  1.00  0.00    -0.339 N 
HETATM    5  H   UNL     1     -41.335 -53.255  11.275  1.00  0.00     0.164 HD
HETATM    6  H   UNL     1     -39.885 -51.790  11.045  1.00  0.00     0.164 HD
ENDROOT
BRANCH   3   7
HETATM    7  C   UNL     1     -42.625 -53.760  12.883  1.00  0.00     0.130 C 
BRANCH   7   8
HETATM    8  C   UNL     1     -43.942 -53.168  12.391  1.00  0.00     0.076 C 
BRANCH   8   9
HETATM    9  C   UNL     1     -44.762 -52.531  13.477  1.00  0.00     0.010 A 
HETATM   10  C   UNL     1     -46.064 -52.105  13.221  1.00  0.00     0.025 A 
HETATM   11  C   UNL     1     -46.758 -51.431  14.221  1.00  0.00     0.003 A 
HETATM   12  C   UNL     1     -46.145 -51.210  15.447  1.00  0.00     0.017 A 
HETATM   13  C   UNL     1     -44.857 -51.687  15.627  1.00  0.00     0.088 A 
HETATM   14  N   UNL     1     -44.156 -52.339  14.674  1.00  0.00    -0.369 N 
ATOM     15  HN  UNL     1     -43.210 -52.675  14.849  1.00  0.00     0.165 HD
ENDBRANCH   8   9
ENDBRANCH   7   8
ENDBRANCH   3   7
BRANCH   4  16
HETATM   16  C   UNL     1     -39.115 -50.339  12.352  1.00  0.00     0.086 A 
HETATM   17  C   UNL     1     -38.009 -49.886  11.441  1.00  0.00     0.027 A 
HETATM   18  C   UNL     1     -37.677 -50.557  12.746  1.00  0.00     0.027 A 
ENDBRANCH   4  16
TORSDOF 4
ENDMDL
