MODEL 1
REMARK VINA RESULT:      -6.1      0.000      0.000
REMARK  4 active torsions:
REMARK  status: ('A' for Active; 'I' for Inactive)
REMARK    1  A    between atoms: C_2  and  C_3 
REMARK    2  A    between atoms: C_2  and  N_14 
REMARK    3  A    between atoms: C_3  and  N_4 
REMARK       I    between atoms: N_4  and  C_5 
REMARK       I    between atoms: C_5  and  N_7 
REMARK    4  A    between atoms: N_7  and  C_8 
ROOT
HETATM    1  N   UNL     1     -40.874 -49.313  10.337  1.00  0.00    -0.341 N 
HETATM    2  C   UNL     1     -41.896 -48.398  10.493  1.00  0.00     0.320 C 
HETATM    3  O   UNL     1     -42.267 -48.016  11.597  1.00  0.00    -0.247 OA
HETATM    4  N   UNL     1     -42.439 -48.014   9.289  1.00  0.00    -0.306 N 
HETATM    5  H   UNL     1     -40.291 -49.222   9.516  1.00  0.00     0.164 HD
HETATM    6  H   UNL     1     -42.111 -48.467   8.451  1.00  0.00     0.171 HD
ENDROOT
BRANCH   1   7
HETATM    7  C   UNL     1     -40.175 -49.758  11.530  1.00  0.00     0.159 C 
BRANCH   7   8
HETATM    8  C   UNL     1     -38.892 -48.947  11.833  1.00  0.00     0.236 C 
HETATM    9  C   UNL     1     -37.680 -49.855  11.561  1.00  0.00     0.044 C 
BRANCH   8  10
HETATM   10  N   UNL     1     -38.933 -48.329  13.177  1.00  0.00     0.094 N 
HETATM   11  C   UNL     1     -39.361 -46.925  13.184  1.00  0.00     0.273 C 
HETATM   12  C   UNL     1     -38.625 -46.264  14.345  1.00  0.00     0.032 C 
HETATM   13  C   UNL     1     -37.922 -47.402  15.060  1.00  0.00     0.032 C 
HETATM   14  C   UNL     1     -37.702 -48.424  13.960  1.00  0.00     0.273 C 
ENDBRANCH   8  10
ENDBRANCH   7   8
ENDBRANCH   1   7
BRANCH   4  15
HETATM   15  C   UNL     1     -43.492 -47.123   9.177  1.00  0.00     0.070 A 
HETATM   16  C   UNL     1     -43.537 -45.713   9.289  1.00  0.00     0.138 A 
HETATM   17  N   UNL     1     -44.769 -45.225   9.114  1.00  0.00    -0.310 N 
HETATM   18  N   UNL     1     -45.512 -46.322   8.894  1.00  0.00    -0.310 N 
ATOM     19  HN  UNL     1     -45.072 -44.252   9.142  1.00  0.00     0.186 HD
HETATM   20  C   UNL     1     -44.793 -47.484   8.920  1.00  0.00     0.138 A 
HETATM   21  H   UNL     1     -46.507 -46.200   8.733  1.00  0.00     0.186 HD
ENDBRANCH   4  15
TORSDOF 4
ENDMDL
MODEL 2
REMARK VINA RESULT:      -5.9      2.295      3.612
REMARK  4 active torsions:
REMARK  status: ('A' for Active; 'I' for Inactive)
REMARK    1  A    between atoms: C_2  and  C_3 
REMARK    2  A    between atoms: C_2  and  N_14 
REMARK    3  A    between atoms: C_3  and  N_4 
REMARK       I    between atoms: N_4  and  C_5 
REMARK       I    between atoms: C_5  and  N_7 
REMARK    4  A    between atoms: N_7  and  C_8 
ROOT
HETATM    1  N   UNL     1     -40.820 -49.370  10.487  1.00  0.00    -0.341 N 
HETATM    2  C   UNL     1     -41.749 -48.352  10.575  1.00  0.00     0.320 C 
HETATM    3  O   UNL     1     -41.909 -47.702  11.602  1.00  0.00    -0.247 OA
HETATM    4  N   UNL     1     -42.462 -48.196   9.410  1.00  0.00    -0.306 N 
HETATM    5  H   UNL     1     -40.378 -49.517   9.590  1.00  0.00     0.164 HD
HETATM    6  H   UNL     1     -42.305 -48.853   8.662  1.00  0.00     0.171 HD
ENDROOT
BRANCH   1   7
HETATM    7  C   UNL     1     -39.958 -49.602  11.633  1.00  0.00     0.159 C 
BRANCH   7   8
HETATM    8  C   UNL     1     -40.628 -50.435  12.752  1.00  0.00     0.236 C 
HETATM    9  C   UNL     1     -40.421 -49.695  14.085  1.00  0.00     0.044 C 
BRANCH   8  10
HETATM   10  N   UNL     1     -40.183 -51.846  12.733  1.00  0.00     0.094 N 
HETATM   11  C   UNL     1     -41.171 -52.785  12.189  1.00  0.00     0.273 C 
HETATM   12  C   UNL     1     -40.956 -54.101  12.930  1.00  0.00     0.032 C 
HETATM   13  C   UNL     1     -39.710 -53.881  13.765  1.00  0.00     0.032 C 
HETATM   14  C   UNL     1     -39.713 -52.383  14.010  1.00  0.00     0.273 C 
ENDBRANCH   8  10
ENDBRANCH   7   8
ENDBRANCH   1   7
BRANCH   4  15
HETATM   15  C   UNL     1     -43.468 -47.259   9.252  1.00  0.00     0.070 A 
HETATM   16  C   UNL     1     -44.863 -47.408   9.070  1.00  0.00     0.138 A 
HETATM   17  N   UNL     1     -45.493 -46.236   8.953  1.00  0.00    -0.310 N 
HETATM   18  N   UNL     1     -44.502 -45.336   9.056  1.00  0.00    -0.310 N 
ATOM     19  HN  UNL     1     -46.489 -46.065   8.817  1.00  0.00     0.186 HD
HETATM   20  C   UNL     1     -43.269 -45.898   9.238  1.00  0.00     0.138 A 
HETATM   21  H   UNL     1     -44.742 -44.352   8.993  1.00  0.00     0.186 HD
ENDBRANCH   4  15
TORSDOF 4
ENDMDL
MODEL 3
REMARK VINA RESULT:      -5.8      4.355      5.769
REMARK  4 active torsions:
REMARK  status: ('A' for Active; 'I' for Inactive)
REMARK    1  A    between atoms: C_2  and  C_3 
REMARK    2  A    between atoms: C_2  and  N_14 
REMARK    3  A    between atoms: C_3  and  N_4 
REMARK       I    between atoms: N_4  and  C_5 
REMARK       I    between atoms: C_5  and  N_7 
REMARK    4  A    between atoms: N_7  and  C_8 
ROOT
HETATM    1  N   UNL     1     -41.392 -51.981  11.542  1.00  0.00    -0.341 N 
HETATM    2  C   UNL     1     -42.414 -52.226  12.438  1.00  0.00     0.320 C 
HETATM    3  O   UNL     1     -42.382 -51.816  13.592  1.00  0.00    -0.247 OA
HETATM    4  N   UNL     1     -43.417 -52.990  11.887  1.00  0.00    -0.306 N 
HETATM    5  H   UNL     1     -41.645 -51.874  10.569  1.00  0.00     0.164 HD
HETATM    6  H   UNL     1     -43.288 -53.347  10.954  1.00  0.00     0.171 HD
ENDROOT
BRANCH   1   7
HETATM    7  C   UNL     1     -40.296 -51.136  11.980  1.00  0.00     0.159 C 
BRANCH   7   8
HETATM    8  C   UNL     1     -40.267 -49.753  11.286  1.00  0.00     0.236 C 
HETATM    9  C   UNL     1     -39.052 -48.976  11.823  1.00  0.00     0.044 C 
BRANCH   8  10
HETATM   10  N   UNL     1     -41.566 -49.053  11.394  1.00  0.00     0.094 N 
HETATM   11  C   UNL     1     -41.824 -48.087  10.318  1.00  0.00     0.273 C 
HETATM   12  C   UNL     1     -42.667 -46.978  10.939  1.00  0.00     0.032 C 
HETATM   13  C   UNL     1     -42.991 -47.469  12.336  1.00  0.00     0.032 C 
HETATM   14  C   UNL     1     -41.825 -48.381  12.667  1.00  0.00     0.273 C 
ENDBRANCH   8  10
ENDBRANCH   7   8
ENDBRANCH   1   7
BRANCH   4  15
HETATM   15  C   UNL     1     -44.541 -53.392  12.587  1.00  0.00     0.070 A 
HETATM   16  C   UNL     1     -44.782 -54.531  13.390  1.00  0.00     0.138 A 
HETATM   17  N   UNL     1     -46.019 -54.550  13.895  1.00  0.00    -0.310 N 
HETATM   18  N   UNL     1     -46.571 -53.424  13.413  1.00  0.00    -0.310 N 
ATOM     19  HN  UNL     1     -46.443 -55.251  14.501  1.00  0.00     0.186 HD
HETATM   20  C   UNL     1     -45.725 -52.694  12.625  1.00  0.00     0.138 A 
HETATM   21  H   UNL     1     -47.533 -53.218  13.664  1.00  0.00     0.186 HD
ENDBRANCH   4  15
TORSDOF 4
ENDMDL
MODEL 4
REMARK VINA RESULT:      -5.6      4.154      5.674
REMARK  4 active torsions:
REMARK  status: ('A' for Active; 'I' for Inactive)
REMARK    1  A    between atoms: C_2  and  C_3 
REMARK    2  A    between atoms: C_2  and  N_14 
REMARK    3  A    between atoms: C_3  and  N_4 
REMARK       I    between atoms: N_4  and  C_5 
REMARK       I    between atoms: C_5  and  N_7 
REMARK    4  A    between atoms: N_7  and  C_8 
ROOT
HETATM    1  N   UNL     1     -42.175 -51.060  12.743  1.00  0.00    -0.341 N 
HETATM    2  C   UNL     1     -42.260 -49.718  12.432  1.00  0.00     0.320 C 
HETATM    3  O   UNL     1     -42.695 -48.891  13.225  1.00  0.00    -0.247 OA
HETATM    4  N   UNL     1     -41.836 -49.452  11.151  1.00  0.00    -0.306 N 
HETATM    5  H   UNL     1     -41.412 -51.583  12.334  1.00  0.00     0.164 HD
HETATM    6  H   UNL     1     -41.587 -50.229  10.559  1.00  0.00     0.171 HD
ENDROOT
BRANCH   1   7
HETATM    7  C   UNL     1     -42.538 -51.469  14.088  1.00  0.00     0.159 C 
BRANCH   7   8
HETATM    8  C   UNL     1     -43.272 -52.830  14.144  1.00  0.00     0.236 C 
HETATM    9  C   UNL     1     -42.651 -53.750  13.078  1.00  0.00     0.044 C 
BRANCH   8  10
HETATM   10  N   UNL     1     -44.741 -52.670  14.065  1.00  0.00     0.094 N 
HETATM   11  C   UNL     1     -45.293 -52.807  12.712  1.00  0.00     0.273 C 
HETATM   12  C   UNL     1     -46.510 -51.889  12.656  1.00  0.00     0.032 C 
HETATM   13  C   UNL     1     -46.686 -51.387  14.076  1.00  0.00     0.032 C 
HETATM   14  C   UNL     1     -45.280 -51.439  14.643  1.00  0.00     0.273 C 
ENDBRANCH   8  10
ENDBRANCH   7   8
ENDBRANCH   1   7
BRANCH   4  15
HETATM   15  C   UNL     1     -41.846 -48.186  10.592  1.00  0.00     0.070 A 
HETATM   16  C   UNL     1     -41.005 -47.067  10.802  1.00  0.00     0.138 A 
HETATM   17  N   UNL     1     -41.357 -46.016  10.057  1.00  0.00    -0.310 N 
HETATM   18  N   UNL     1     -42.423 -46.460   9.372  1.00  0.00    -0.310 N 
ATOM     19  HN  UNL     1     -40.919 -45.096  10.017  1.00  0.00     0.186 HD
HETATM   20  C   UNL     1     -42.756 -47.755   9.656  1.00  0.00     0.138 A 
HETATM   21  H   UNL     1     -42.876 -45.820   8.726  1.00  0.00     0.186 HD
ENDBRANCH   4  15
TORSDOF 4
ENDMDL
MODEL 5
REMARK VINA RESULT:      -5.3      5.178      7.604
REMARK  4 active torsions:
REMARK  status: ('A' for Active; 'I' for Inactive)
REMARK    1  A    between atoms: C_2  and  C_3 
REMARK    2  A    between atoms: C_2  and  N_14 
REMARK    3  A    between atoms: C_3  and  N_4 
REMARK       I    between atoms: N_4  and  C_5 
REMARK       I    between atoms: C_5  and  N_7 
REMARK    4  A    between atoms: N_7  and  C_8 
ROOT
HETATM    1  N   UNL     1     -42.127 -52.869  14.214  1.00  0.00    -0.341 N 
HETATM    2  C   UNL     1     -41.205 -52.602  13.222  1.00  0.00     0.320 C 
HETATM    3  O   UNL     1     -40.898 -53.433  12.375  1.00  0.00    -0.247 OA
HETATM    4  N   UNL     1     -40.677 -51.336  13.329  1.00  0.00    -0.306 N 
HETATM    5  H   UNL     1     -42.698 -52.099  14.536  1.00  0.00     0.164 HD
HETATM    6  H   UNL     1     -40.939 -50.775  14.124  1.00  0.00     0.171 HD
ENDROOT
BRANCH   1   7
HETATM    7  C   UNL     1     -42.805 -54.154  14.181  1.00  0.00     0.159 C 
BRANCH   7   8
HETATM    8  C   UNL     1     -44.309 -54.067  14.531  1.00  0.00     0.236 C 
HETATM    9  C   UNL     1     -45.001 -55.324  13.974  1.00  0.00     0.044 C 
BRANCH   8  10
HETATM   10  N   UNL     1     -44.902 -52.778  14.111  1.00  0.00     0.094 N 
HETATM   11  C   UNL     1     -45.734 -52.133  15.134  1.00  0.00     0.273 C 
HETATM   12  C   UNL     1     -46.821 -51.375  14.379  1.00  0.00     0.032 C 
HETATM   13  C   UNL     1     -46.440 -51.499  12.916  1.00  0.00     0.032 C 
HETATM   14  C   UNL     1     -45.668 -52.804  12.865  1.00  0.00     0.273 C 
ENDBRANCH   8  10
ENDBRANCH   7   8
ENDBRANCH   1   7
BRANCH   4  15
HETATM   15  C   UNL     1     -39.715 -50.836  12.469  1.00  0.00     0.070 A 
HETATM   16  C   UNL     1     -38.307 -50.976  12.460  1.00  0.00     0.138 A 
HETATM   17  N   UNL     1     -37.734 -50.324  11.445  1.00  0.00    -0.310 N 
HETATM   18  N   UNL     1     -38.774 -49.763  10.806  1.00  0.00    -0.310 N 
ATOM     19  HN  UNL     1     -36.744 -50.266  11.211  1.00  0.00     0.186 HD
HETATM   20  C   UNL     1     -39.983 -50.041  11.380  1.00  0.00     0.138 A 
HETATM   21  H   UNL     1     -38.582 -49.201   9.983  1.00  0.00     0.186 HD
ENDBRANCH   4  15
TORSDOF 4
ENDMDL
MODEL 6
REMARK VINA RESULT:      -5.3      4.966      6.017
REMARK  4 active torsions:
REMARK  status: ('A' for Active; 'I' for Inactive)
REMARK    1  A    between atoms: C_2  and  C_3 
REMARK    2  A    between atoms: C_2  and  N_14 
REMARK    3  A    between atoms: C_3  and  N_4 
REMARK       I    between atoms: N_4  and  C_5 
REMARK       I    between atoms: C_5  and  N_7 
REMARK    4  A    between atoms: N_7  and  C_8 
ROOT
HETATM    1  N   UNL     1     -42.244 -52.269  11.661  1.00  0.00    -0.341 N 
HETATM    2  C   UNL     1     -43.043 -52.721  12.692  1.00  0.00     0.320 C 
HETATM    3  O   UNL     1     -42.619 -52.858  13.834  1.00  0.00    -0.247 OA
HETATM    4  N   UNL     1     -44.319 -53.014  12.271  1.00  0.00    -0.306 N 
HETATM    5  H   UNL     1     -42.688 -51.717  10.939  1.00  0.00     0.164 HD
HETATM    6  H   UNL     1     -44.525 -52.950  11.287  1.00  0.00     0.171 HD
ENDROOT
BRANCH   1   7
HETATM    7  C   UNL     1     -40.885 -51.868  11.982  1.00  0.00     0.159 C 
BRANCH   7   8
HETATM    8  C   UNL     1     -40.776 -50.413  12.495  1.00  0.00     0.236 C 
HETATM    9  C   UNL     1     -41.311 -49.478  11.396  1.00  0.00     0.044 C 
BRANCH   8  10
HETATM   10  N   UNL     1     -39.416 -50.100  12.987  1.00  0.00     0.094 N 
HETATM   11  C   UNL     1     -38.341 -50.431  12.044  1.00  0.00     0.273 C 
HETATM   12  C   UNL     1     -37.135 -50.815  12.895  1.00  0.00     0.032 C 
HETATM   13  C   UNL     1     -37.552 -50.516  14.322  1.00  0.00     0.032 C 
HETATM   14  C   UNL     1     -39.060 -50.672  14.286  1.00  0.00     0.273 C 
ENDBRANCH   8  10
ENDBRANCH   7   8
ENDBRANCH   1   7
BRANCH   4  15
HETATM   15  C   UNL     1     -45.304 -53.507  13.110  1.00  0.00     0.070 A 
HETATM   16  C   UNL     1     -45.498 -54.793  13.667  1.00  0.00     0.138 A 
HETATM   17  N   UNL     1     -46.589 -54.859  14.435  1.00  0.00    -0.310 N 
HETATM   18  N   UNL     1     -47.096 -53.617  14.367  1.00  0.00    -0.310 N 
ATOM     19  HN  UNL     1     -46.952 -55.661  14.949  1.00  0.00     0.186 HD
HETATM   20  C   UNL     1     -46.361 -52.768  13.587  1.00  0.00     0.138 A 
HETATM   21  H   UNL     1     -47.949 -53.420  14.881  1.00  0.00     0.186 HD
ENDBRANCH   4  15
TORSDOF 4
ENDMDL
MODEL 7
REMARK VINA RESULT:      -5.2      4.727      6.189
REMARK  4 active torsions:
REMARK  status: ('A' for Active; 'I' for Inactive)
REMARK    1  A    between atoms: C_2  and  C_3 
REMARK    2  A    between atoms: C_2  and  N_14 
REMARK    3  A    between atoms: C_3  and  N_4 
REMARK       I    between atoms: N_4  and  C_5 
REMARK       I    between atoms: C_5  and  N_7 
REMARK    4  A    between atoms: N_7  and  C_8 
ROOT
HETATM    1  N   UNL     1     -43.649 -50.520  12.700  1.00  0.00    -0.341 N 
HETATM    2  C   UNL     1     -43.047 -49.289  12.537  1.00  0.00     0.320 C 
HETATM    3  O   UNL     1     -43.113 -48.412  13.391  1.00  0.00    -0.247 OA
HETATM    4  N   UNL     1     -42.415 -49.175  11.321  1.00  0.00    -0.306 N 
HETATM    5  H   UNL     1     -43.191 -51.319  12.281  1.00  0.00     0.164 HD
HETATM    6  H   UNL     1     -42.508 -49.931  10.661  1.00  0.00     0.171 HD
ENDROOT
BRANCH   1   7
HETATM    7  C   UNL     1     -44.303 -50.793  13.968  1.00  0.00     0.159 C 
BRANCH   7   8
HETATM    8  C   UNL     1     -45.345 -51.934  13.892  1.00  0.00     0.236 C 
HETATM    9  C   UNL     1     -46.687 -51.389  14.412  1.00  0.00     0.044 C 
BRANCH   8  10
HETATM   10  N   UNL     1     -44.863 -53.168  14.552  1.00  0.00     0.094 N 
HETATM   11  C   UNL     1     -44.073 -52.934  15.768  1.00  0.00     0.273 C 
HETATM   12  C   UNL     1     -43.059 -54.073  15.838  1.00  0.00     0.032 C 
HETATM   13  C   UNL     1     -43.447 -55.012  14.712  1.00  0.00     0.032 C 
HETATM   14  C   UNL     1     -44.113 -54.094  13.704  1.00  0.00     0.273 C 
ENDBRANCH   8  10
ENDBRANCH   7   8
ENDBRANCH   1   7
BRANCH   4  15
HETATM   15  C   UNL     1     -41.758 -48.029  10.908  1.00  0.00     0.070 A 
HETATM   16  C   UNL     1     -42.209 -46.909  10.170  1.00  0.00     0.138 A 
HETATM   17  N   UNL     1     -41.246 -46.003   9.975  1.00  0.00    -0.310 N 
HETATM   18  N   UNL     1     -40.179 -46.544  10.584  1.00  0.00    -0.310 N 
ATOM     19  HN  UNL     1     -41.307 -45.114   9.481  1.00  0.00     0.186 HD
HETATM   20  C   UNL     1     -40.434 -47.758  11.160  1.00  0.00     0.138 A 
HETATM   21  H   UNL     1     -39.305 -46.027  10.567  1.00  0.00     0.186 HD
ENDBRANCH   4  15
TORSDOF 4
ENDMDL
MODEL 8
REMARK VINA RESULT:      -5.1      1.372      2.732
REMARK  4 active torsions:
REMARK  status: ('A' for Active; 'I' for Inactive)
REMARK    1  A    between atoms: C_2  and  C_3 
REMARK    2  A    between atoms: C_2  and  N_14 
REMARK    3  A    between atoms: C_3  and  N_4 
REMARK       I    between atoms: N_4  and  C_5 
REMARK       I    between atoms: C_5  and  N_7 
REMARK    4  A    between atoms: N_7  and  C_8 
ROOT
HETATM    1  N   UNL     1     -40.336 -46.370  11.047  1.00  0.00    -0.341 N 
HETATM    2  C   UNL     1     -41.707 -46.281  10.917  1.00  0.00     0.320 C 
HETATM    3  O   UNL     1     -42.439 -46.037  11.870  1.00  0.00    -0.247 OA
HETATM    4  N   UNL     1     -42.125 -46.524   9.630  1.00  0.00    -0.306 N 
HETATM    5  H   UNL     1     -39.775 -46.073  10.260  1.00  0.00     0.164 HD
HETATM    6  H   UNL     1     -41.437 -46.806   8.949  1.00  0.00     0.171 HD
ENDROOT
BRANCH   1   7
HETATM    7  C   UNL     1     -39.758 -46.077  12.347  1.00  0.00     0.159 C 
BRANCH   7   8
HETATM    8  C   UNL     1     -39.575 -47.330  13.238  1.00  0.00     0.236 C 
HETATM    9  C   UNL     1     -38.587 -46.974  14.362  1.00  0.00     0.044 C 
BRANCH   8  10
HETATM   10  N   UNL     1     -39.227 -48.528  12.443  1.00  0.00     0.094 N 
HETATM   11  C   UNL     1     -40.202 -49.621  12.536  1.00  0.00     0.273 C 
HETATM   12  C   UNL     1     -39.404 -50.913  12.395  1.00  0.00     0.032 C 
HETATM   13  C   UNL     1     -37.995 -50.468  12.055  1.00  0.00     0.032 C 
HETATM   14  C   UNL     1     -37.900 -49.093  12.689  1.00  0.00     0.273 C 
ENDBRANCH   8  10
ENDBRANCH   7   8
ENDBRANCH   1   7
BRANCH   4  15
HETATM   15  C   UNL     1     -43.454 -46.518   9.245  1.00  0.00     0.070 A 
HETATM   16  C   UNL     1     -44.323 -47.571   8.872  1.00  0.00     0.138 A 
HETATM   17  N   UNL     1     -45.549 -47.138   8.564  1.00  0.00    -0.310 N 
HETATM   18  N   UNL     1     -45.465 -45.809   8.737  1.00  0.00    -0.310 N 
ATOM     19  HN  UNL     1     -46.356 -47.686   8.268  1.00  0.00     0.186 HD
HETATM   20  C   UNL     1     -44.230 -45.387   9.146  1.00  0.00     0.138 A 
HETATM   21  H   UNL     1     -46.293 -45.250   8.556  1.00  0.00     0.186 HD
ENDBRANCH   4  15
TORSDOF 4
ENDMDL
MODEL 9
REMARK VINA RESULT:      -5.0      4.021      5.164
REMARK  4 active torsions:
REMARK  status: ('A' for Active; 'I' for Inactive)
REMARK    1  A    between atoms: C_2  and  C_3 
REMARK    2  A    between atoms: C_2  and  N_14 
REMARK    3  A    between atoms: C_3  and  N_4 
REMARK       I    between atoms: N_4  and  C_5 
REMARK       I    between atoms: C_5  and  N_7 
REMARK    4  A    between atoms: N_7  and  C_8 
ROOT
HETATM    1  N   UNL     1     -41.485 -51.209  12.301  1.00  0.00    -0.341 N 
HETATM    2  C   UNL     1     -41.128 -50.124  11.527  1.00  0.00     0.320 C 
HETATM    3  O   UNL     1     -39.997 -49.990  11.073  1.00  0.00    -0.247 OA
HETATM    4  N   UNL     1     -42.164 -49.233  11.368  1.00  0.00    -0.306 N 
HETATM    5  H   UNL     1     -42.439 -51.538  12.226  1.00  0.00     0.164 HD
HETATM    6  H   UNL     1     -43.022 -49.405  11.868  1.00  0.00     0.171 HD
ENDROOT
BRANCH   1   7
HETATM    7  C   UNL     1     -40.497 -52.256  12.499  1.00  0.00     0.159 C 
BRANCH   7   8
HETATM    8  C   UNL     1     -40.535 -52.881  13.914  1.00  0.00     0.236 C 
HETATM    9  C   UNL     1     -39.526 -54.043  13.948  1.00  0.00     0.044 C 
BRANCH   8  10
HETATM   10  N   UNL     1     -41.912 -53.224  14.331  1.00  0.00     0.094 N 
HETATM   11  C   UNL     1     -42.058 -53.506  15.764  1.00  0.00     0.273 C 
HETATM   12  C   UNL     1     -43.172 -54.541  15.880  1.00  0.00     0.032 C 
HETATM   13  C   UNL     1     -43.729 -54.675  14.477  1.00  0.00     0.032 C 
HETATM   14  C   UNL     1     -42.548 -54.317  13.595  1.00  0.00     0.273 C 
ENDBRANCH   8  10
ENDBRANCH   7   8
ENDBRANCH   1   7
BRANCH   4  15
HETATM   15  C   UNL     1     -42.052 -48.053  10.655  1.00  0.00     0.070 A 
HETATM   16  C   UNL     1     -41.198 -46.938  10.823  1.00  0.00     0.138 A 
HETATM   17  N   UNL     1     -41.412 -45.986   9.910  1.00  0.00    -0.310 N 
HETATM   18  N   UNL     1     -42.405 -46.490   9.160  1.00  0.00    -0.310 N 
ATOM     19  HN  UNL     1     -40.935 -45.091   9.808  1.00  0.00     0.186 HD
HETATM   20  C   UNL     1     -42.823 -47.727   9.564  1.00  0.00     0.138 A 
HETATM   21  H   UNL     1     -42.749 -45.931   8.385  1.00  0.00     0.186 HD
ENDBRANCH   4  15
TORSDOF 4
ENDMDL
