MODEL 1
REMARK VINA RESULT:      -6.0      0.000      0.000
REMARK  4 active torsions:
REMARK  status: ('A' for Active; 'I' for Inactive)
REMARK       I    between atoms: C_2  and  N_3 
REMARK    1  A    between atoms: C_2  and  C_13 
REMARK    2  A    between atoms: N_3  and  C_4 
REMARK    3  A    between atoms: C_4  and  C_5 
REMARK    4  A    between atoms: C_5  and  C_6 
ROOT
HETATM    1  O   UNL     1     -42.880 -54.181  13.599  1.00  0.00    -0.273 OA
HETATM    2  C   UNL     1     -43.581 -53.546  12.812  1.00  0.00     0.222 C 
HETATM    3  N   UNL     1     -43.061 -52.671  11.884  1.00  0.00    -0.360 N 
HETATM    4  H   UNL     1     -43.691 -51.994  11.467  1.00  0.00     0.162 HD
ENDROOT
BRANCH   3   5
HETATM    5  C   UNL     1     -41.632 -52.420  11.863  1.00  0.00     0.128 C 
BRANCH   5   6
HETATM    6  C   UNL     1     -41.291 -50.950  12.047  1.00  0.00     0.076 C 
BRANCH   6   7
HETATM    7  C   UNL     1     -39.801 -50.761  12.133  1.00  0.00     0.010 A 
HETATM    8  C   UNL     1     -39.080 -51.287  13.202  1.00  0.00     0.025 A 
HETATM    9  C   UNL     1     -37.712 -51.043  13.274  1.00  0.00     0.003 A 
HETATM   10  C   UNL     1     -37.103 -50.281  12.284  1.00  0.00     0.017 A 
HETATM   11  C   UNL     1     -37.893 -49.794  11.258  1.00  0.00     0.088 A 
HETATM   12  N   UNL     1     -39.223 -50.016  11.161  1.00  0.00    -0.369 N 
ATOM     13  HN  UNL     1     -39.769 -49.637  10.387  1.00  0.00     0.165 HD
ENDBRANCH   6   7
ENDBRANCH   5   6
ENDBRANCH   3   5
BRANCH   2  14
HETATM   14  C   UNL     1     -45.096 -53.701  12.799  1.00  0.00     0.081 C 
HETATM   15  C   UNL     1     -45.783 -52.331  12.671  1.00  0.00     0.018 C 
HETATM   16  C   UNL     1     -46.532 -51.787  13.888  1.00  0.00     0.027 C 
HETATM   17  C   UNL     1     -46.921 -52.787  14.920  1.00  0.00    -0.031 C 
HETATM   18  C   UNL     1     -46.489 -54.052  14.935  1.00  0.00    -0.030 C 
HETATM   19  C   UNL     1     -45.565 -54.637  13.918  1.00  0.00     0.041 C 
ENDBRANCH   2  14
TORSDOF 4
ENDMDL
MODEL 2
REMARK VINA RESULT:      -6.0      1.801      2.812
REMARK  4 active torsions:
REMARK  status: ('A' for Active; 'I' for Inactive)
REMARK       I    between atoms: C_2  and  N_3 
REMARK    1  A    between atoms: C_2  and  C_13 
REMARK    2  A    between atoms: N_3  and  C_4 
REMARK    3  A    between atoms: C_4  and  C_5 
REMARK    4  A    between atoms: C_5  and  C_6 
ROOT
HETATM    1  O   UNL     1     -42.616 -53.691  13.807  1.00  0.00    -0.273 OA
HETATM    2  C   UNL     1     -43.252 -53.336  12.815  1.00  0.00     0.222 C 
HETATM    3  N   UNL     1     -42.685 -52.642  11.769  1.00  0.00    -0.360 N 
HETATM    4  H   UNL     1     -43.306 -52.155  11.133  1.00  0.00     0.162 HD
ENDROOT
BRANCH   3   5
HETATM    5  C   UNL     1     -41.293 -52.241  11.853  1.00  0.00     0.128 C 
BRANCH   5   6
HETATM    6  C   UNL     1     -41.091 -50.998  12.705  1.00  0.00     0.076 C 
BRANCH   6   7
HETATM    7  C   UNL     1     -41.729 -49.802  12.053  1.00  0.00     0.010 A 
HETATM    8  C   UNL     1     -42.871 -49.221  12.601  1.00  0.00     0.025 A 
HETATM    9  C   UNL     1     -43.463 -48.150  11.937  1.00  0.00     0.003 A 
HETATM   10  C   UNL     1     -42.907 -47.694  10.748  1.00  0.00     0.017 A 
HETATM   11  C   UNL     1     -41.774 -48.329  10.272  1.00  0.00     0.088 A 
HETATM   12  N   UNL     1     -41.175 -49.369  10.895  1.00  0.00    -0.369 N 
ATOM     13  HN  UNL     1     -40.341 -49.810  10.509  1.00  0.00     0.165 HD
ENDBRANCH   6   7
ENDBRANCH   5   6
ENDBRANCH   3   5
BRANCH   2  14
HETATM   14  C   UNL     1     -44.733 -53.663  12.667  1.00  0.00     0.081 C 
HETATM   15  C   UNL     1     -45.572 -52.375  12.618  1.00  0.00     0.018 C 
HETATM   16  C   UNL     1     -46.463 -52.052  13.818  1.00  0.00     0.027 C 
HETATM   17  C   UNL     1     -46.795 -53.194  14.715  1.00  0.00    -0.031 C 
HETATM   18  C   UNL     1     -46.213 -54.395  14.641  1.00  0.00    -0.030 C 
HETATM   19  C   UNL     1     -45.158 -54.759  13.650  1.00  0.00     0.041 C 
ENDBRANCH   2  14
TORSDOF 4
ENDMDL
MODEL 3
REMARK VINA RESULT:      -5.9      1.605      2.003
REMARK  4 active torsions:
REMARK  status: ('A' for Active; 'I' for Inactive)
REMARK       I    between atoms: C_2  and  N_3 
REMARK    1  A    between atoms: C_2  and  C_13 
REMARK    2  A    between atoms: N_3  and  C_4 
REMARK    3  A    between atoms: C_4  and  C_5 
REMARK    4  A    between atoms: C_5  and  C_6 
ROOT
HETATM    1  O   UNL     1     -43.927 -55.202  15.128  1.00  0.00    -0.273 OA
HETATM    2  C   UNL     1     -44.157 -54.425  14.202  1.00  0.00     0.222 C 
HETATM    3  N   UNL     1     -43.163 -53.870  13.425  1.00  0.00    -0.360 N 
HETATM    4  H   UNL     1     -43.396 -53.049  12.877  1.00  0.00     0.162 HD
ENDROOT
BRANCH   3   5
HETATM    5  C   UNL     1     -41.775 -54.146  13.741  1.00  0.00     0.128 C 
BRANCH   5   6
HETATM    6  C   UNL     1     -40.833 -53.803  12.598  1.00  0.00     0.076 C 
BRANCH   6   7
HETATM    7  C   UNL     1     -40.500 -52.336  12.611  1.00  0.00     0.010 A 
HETATM    8  C   UNL     1     -39.879 -51.759  13.717  1.00  0.00     0.025 A 
HETATM    9  C   UNL     1     -39.638 -50.388  13.713  1.00  0.00     0.003 A 
HETATM   10  C   UNL     1     -40.025 -49.632  12.613  1.00  0.00     0.017 A 
HETATM   11  C   UNL     1     -40.638 -50.284  11.557  1.00  0.00     0.088 A 
HETATM   12  N   UNL     1     -40.883 -51.613  11.532  1.00  0.00    -0.369 N 
ATOM     13  HN  UNL     1     -41.338 -52.053  10.733  1.00  0.00     0.165 HD
ENDBRANCH   6   7
ENDBRANCH   5   6
ENDBRANCH   3   5
BRANCH   2  14
HETATM   14  C   UNL     1     -45.582 -54.031  13.833  1.00  0.00     0.081 C 
HETATM   15  C   UNL     1     -45.583 -52.942  12.748  1.00  0.00     0.018 C 
HETATM   16  C   UNL     1     -46.022 -51.532  13.146  1.00  0.00     0.027 C 
HETATM   17  C   UNL     1     -46.828 -51.424  14.393  1.00  0.00    -0.031 C 
HETATM   18  C   UNL     1     -47.006 -52.429  15.257  1.00  0.00    -0.030 C 
HETATM   19  C   UNL     1     -46.431 -53.796  15.087  1.00  0.00     0.041 C 
ENDBRANCH   2  14
TORSDOF 4
ENDMDL
MODEL 4
REMARK VINA RESULT:      -5.7      3.546      4.854
REMARK  4 active torsions:
REMARK  status: ('A' for Active; 'I' for Inactive)
REMARK       I    between atoms: C_2  and  N_3 
REMARK    1  A    between atoms: C_2  and  C_13 
REMARK    2  A    between atoms: N_3  and  C_4 
REMARK    3  A    between atoms: C_4  and  C_5 
REMARK    4  A    between atoms: C_5  and  C_6 
ROOT
HETATM    1  O   UNL     1     -43.453 -50.939  13.826  1.00  0.00    -0.273 OA
HETATM    2  C   UNL     1     -42.861 -51.423  12.862  1.00  0.00     0.222 C 
HETATM    3  N   UNL     1     -42.134 -50.664  11.971  1.00  0.00    -0.360 N 
HETATM    4  H   UNL     1     -41.909 -51.077  11.072  1.00  0.00     0.162 HD
ENDROOT
BRANCH   3   5
HETATM    5  C   UNL     1     -42.109 -49.221  12.118  1.00  0.00     0.128 C 
BRANCH   5   6
HETATM    6  C   UNL     1     -41.604 -48.512  10.872  1.00  0.00     0.076 C 
BRANCH   6   7
HETATM    7  C   UNL     1     -42.723 -47.761  10.203  1.00  0.00     0.010 A 
HETATM    8  C   UNL     1     -44.047 -47.978  10.578  1.00  0.00     0.025 A 
HETATM    9  C   UNL     1     -45.056 -47.304   9.897  1.00  0.00     0.003 A 
HETATM   10  C   UNL     1     -44.720 -46.440   8.862  1.00  0.00     0.017 A 
HETATM   11  C   UNL     1     -43.381 -46.284   8.551  1.00  0.00     0.088 A 
HETATM   12  N   UNL     1     -42.379 -46.923   9.196  1.00  0.00    -0.369 N 
ATOM     13  HN  UNL     1     -41.404 -46.780   8.934  1.00  0.00     0.165 HD
ENDBRANCH   6   7
ENDBRANCH   5   6
ENDBRANCH   3   5
BRANCH   2  14
HETATM   14  C   UNL     1     -42.879 -52.923  12.594  1.00  0.00     0.081 C 
HETATM   15  C   UNL     1     -44.320 -53.424  12.403  1.00  0.00     0.018 C 
HETATM   16  C   UNL     1     -44.925 -54.303  13.498  1.00  0.00     0.027 C 
HETATM   17  C   UNL     1     -43.959 -54.967  14.416  1.00  0.00    -0.031 C 
HETATM   18  C   UNL     1     -42.653 -54.683  14.458  1.00  0.00    -0.030 C 
HETATM   19  C   UNL     1     -41.984 -53.672  13.587  1.00  0.00     0.041 C 
ENDBRANCH   2  14
TORSDOF 4
ENDMDL
MODEL 5
REMARK VINA RESULT:      -5.5      3.094      3.993
REMARK  4 active torsions:
REMARK  status: ('A' for Active; 'I' for Inactive)
REMARK       I    between atoms: C_2  and  N_3 
REMARK    1  A    between atoms: C_2  and  C_13 
REMARK    2  A    between atoms: N_3  and  C_4 
REMARK    3  A    between atoms: C_4  and  C_5 
REMARK    4  A    between atoms: C_5  and  C_6 
ROOT
HETATM    1  O   UNL     1     -44.111 -50.222  14.567  1.00  0.00    -0.273 OA
HETATM    2  C   UNL     1     -44.199 -50.765  13.467  1.00  0.00     0.222 C 
HETATM    3  N   UNL     1     -43.220 -50.669  12.503  1.00  0.00    -0.360 N 
HETATM    4  H   UNL     1     -43.472 -50.902  11.549  1.00  0.00     0.162 HD
ENDROOT
BRANCH   3   5
HETATM    5  C   UNL     1     -42.057 -49.838  12.750  1.00  0.00     0.128 C 
BRANCH   5   6
HETATM    6  C   UNL     1     -41.331 -49.449  11.471  1.00  0.00     0.076 C 
BRANCH   6   7
HETATM    7  C   UNL     1     -41.932 -48.202  10.882  1.00  0.00     0.010 A 
HETATM    8  C   UNL     1     -42.029 -47.036  11.639  1.00  0.00     0.025 A 
HETATM    9  C   UNL     1     -42.642 -45.920  11.076  1.00  0.00     0.003 A 
HETATM   10  C   UNL     1     -43.143 -45.998   9.782  1.00  0.00     0.017 A 
HETATM   11  C   UNL     1     -43.007 -47.195   9.101  1.00  0.00     0.088 A 
HETATM   12  N   UNL     1     -42.415 -48.294   9.620  1.00  0.00    -0.369 N 
ATOM     13  HN  UNL     1     -42.337 -49.158   9.084  1.00  0.00     0.165 HD
ENDBRANCH   6   7
ENDBRANCH   5   6
ENDBRANCH   3   5
BRANCH   2  14
HETATM   14  C   UNL     1     -45.412 -51.610  13.097  1.00  0.00     0.081 C 
HETATM   15  C   UNL     1     -46.552 -51.397  14.106  1.00  0.00     0.018 C 
HETATM   16  C   UNL     1     -46.895 -52.546  15.055  1.00  0.00     0.027 C 
HETATM   17  C   UNL     1     -46.429 -53.899  14.643  1.00  0.00    -0.031 C 
HETATM   18  C   UNL     1     -45.585 -54.122  13.630  1.00  0.00    -0.030 C 
HETATM   19  C   UNL     1     -45.002 -53.050  12.771  1.00  0.00     0.041 C 
ENDBRANCH   2  14
TORSDOF 4
ENDMDL
MODEL 6
REMARK VINA RESULT:      -5.5      1.917      7.098
REMARK  4 active torsions:
REMARK  status: ('A' for Active; 'I' for Inactive)
REMARK       I    between atoms: C_2  and  N_3 
REMARK    1  A    between atoms: C_2  and  C_13 
REMARK    2  A    between atoms: N_3  and  C_4 
REMARK    3  A    between atoms: C_4  and  C_5 
REMARK    4  A    between atoms: C_5  and  C_6 
ROOT
HETATM    1  O   UNL     1     -40.099 -52.212  12.539  1.00  0.00    -0.273 OA
HETATM    2  C   UNL     1     -40.915 -51.440  12.038  1.00  0.00     0.222 C 
HETATM    3  N   UNL     1     -42.276 -51.650  12.090  1.00  0.00    -0.360 N 
HETATM    4  H   UNL     1     -42.859 -51.137  11.438  1.00  0.00     0.162 HD
ENDROOT
BRANCH   3   5
HETATM    5  C   UNL     1     -42.786 -52.864  12.699  1.00  0.00     0.128 C 
BRANCH   5   6
HETATM    6  C   UNL     1     -44.164 -53.246  12.182  1.00  0.00     0.076 C 
BRANCH   6   7
HETATM    7  C   UNL     1     -45.217 -52.935  13.211  1.00  0.00     0.010 A 
HETATM    8  C   UNL     1     -45.714 -51.641  13.349  1.00  0.00     0.025 A 
HETATM    9  C   UNL     1     -46.648 -51.384  14.349  1.00  0.00     0.003 A 
HETATM   10  C   UNL     1     -47.055 -52.418  15.183  1.00  0.00     0.017 A 
HETATM   11  C   UNL     1     -46.511 -53.674  14.979  1.00  0.00     0.088 A 
HETATM   12  N   UNL     1     -45.605 -53.954  14.015  1.00  0.00    -0.369 N 
ATOM     13  HN  UNL     1     -45.227 -54.894  13.899  1.00  0.00     0.165 HD
ENDBRANCH   6   7
ENDBRANCH   5   6
ENDBRANCH   3   5
BRANCH   2  14
HETATM   14  C   UNL     1     -40.469 -50.169  11.326  1.00  0.00     0.081 C 
HETATM   15  C   UNL     1     -39.003 -49.844  11.660  1.00  0.00     0.018 C 
HETATM   16  C   UNL     1     -38.721 -48.632  12.549  1.00  0.00     0.027 C 
HETATM   17  C   UNL     1     -39.810 -47.621  12.645  1.00  0.00    -0.031 C 
HETATM   18  C   UNL     1     -41.048 -47.809  12.176  1.00  0.00    -0.030 C 
HETATM   19  C   UNL     1     -41.506 -49.052  11.488  1.00  0.00     0.041 C 
ENDBRANCH   2  14
TORSDOF 4
ENDMDL
MODEL 7
REMARK VINA RESULT:      -5.5      2.014      6.969
REMARK  4 active torsions:
REMARK  status: ('A' for Active; 'I' for Inactive)
REMARK       I    between atoms: C_2  and  N_3 
REMARK    1  A    between atoms: C_2  and  C_13 
REMARK    2  A    between atoms: N_3  and  C_4 
REMARK    3  A    between atoms: C_4  and  C_5 
REMARK    4  A    between atoms: C_5  and  C_6 
ROOT
HETATM    1  O   UNL     1     -43.012 -51.635  13.120  1.00  0.00    -0.273 OA
HETATM    2  C   UNL     1     -42.621 -52.668  12.577  1.00  0.00     0.222 C 
HETATM    3  N   UNL     1     -43.474 -53.673  12.177  1.00  0.00    -0.360 N 
HETATM    4  H   UNL     1     -43.075 -54.587  11.995  1.00  0.00     0.162 HD
ENDROOT
BRANCH   3   5
HETATM    5  C   UNL     1     -44.892 -53.559  12.462  1.00  0.00     0.128 C 
BRANCH   5   6
HETATM    6  C   UNL     1     -45.300 -54.309  13.721  1.00  0.00     0.076 C 
BRANCH   6   7
HETATM    7  C   UNL     1     -45.928 -53.369  14.714  1.00  0.00     0.010 A 
HETATM    8  C   UNL     1     -46.521 -52.182  14.290  1.00  0.00     0.025 A 
HETATM    9  C   UNL     1     -47.042 -51.313  15.245  1.00  0.00     0.003 A 
HETATM   10  C   UNL     1     -46.953 -51.649  16.591  1.00  0.00     0.017 A 
HETATM   11  C   UNL     1     -46.347 -52.847  16.926  1.00  0.00     0.088 A 
HETATM   12  N   UNL     1     -45.834 -53.710  16.021  1.00  0.00    -0.369 N 
ATOM     13  HN  UNL     1     -45.394 -54.584  16.311  1.00  0.00     0.165 HD
ENDBRANCH   6   7
ENDBRANCH   5   6
ENDBRANCH   3   5
BRANCH   2  14
HETATM   14  C   UNL     1     -41.143 -52.901  12.289  1.00  0.00     0.081 C 
HETATM   15  C   UNL     1     -40.604 -54.073  13.126  1.00  0.00     0.018 C 
HETATM   16  C   UNL     1     -39.633 -53.756  14.264  1.00  0.00     0.027 C 
HETATM   17  C   UNL     1     -38.944 -52.438  14.190  1.00  0.00    -0.031 C 
HETATM   18  C   UNL     1     -39.270 -51.472  13.326  1.00  0.00    -0.030 C 
HETATM   19  C   UNL     1     -40.361 -51.584  12.313  1.00  0.00     0.041 C 
ENDBRANCH   2  14
TORSDOF 4
ENDMDL
MODEL 8
REMARK VINA RESULT:      -5.5      1.771      2.180
REMARK  4 active torsions:
REMARK  status: ('A' for Active; 'I' for Inactive)
REMARK       I    between atoms: C_2  and  N_3 
REMARK    1  A    between atoms: C_2  and  C_13 
REMARK    2  A    between atoms: N_3  and  C_4 
REMARK    3  A    between atoms: C_4  and  C_5 
REMARK    4  A    between atoms: C_5  and  C_6 
ROOT
HETATM    1  O   UNL     1     -43.727 -50.873  14.556  1.00  0.00    -0.273 OA
HETATM    2  C   UNL     1     -44.268 -50.821  13.453  1.00  0.00     0.222 C 
HETATM    3  N   UNL     1     -43.807 -50.023  12.429  1.00  0.00    -0.360 N 
HETATM    4  H   UNL     1     -44.441 -49.824  11.663  1.00  0.00     0.162 HD
ENDROOT
BRANCH   3   5
HETATM    5  C   UNL     1     -42.677 -49.144  12.665  1.00  0.00     0.128 C 
BRANCH   5   6
HETATM    6  C   UNL     1     -41.751 -49.042  11.463  1.00  0.00     0.076 C 
BRANCH   6   7
HETATM    7  C   UNL     1     -40.317 -49.203  11.888  1.00  0.00     0.010 A 
HETATM    8  C   UNL     1     -39.860 -48.632  13.074  1.00  0.00     0.025 A 
HETATM    9  C   UNL     1     -38.514 -48.757  13.403  1.00  0.00     0.003 A 
HETATM   10  C   UNL     1     -37.662 -49.439  12.543  1.00  0.00     0.017 A 
HETATM   11  C   UNL     1     -38.197 -49.974  11.384  1.00  0.00     0.088 A 
HETATM   12  N   UNL     1     -39.500 -49.871  11.039  1.00  0.00    -0.369 N 
ATOM     13  HN  UNL     1     -39.854 -50.280  10.174  1.00  0.00     0.165 HD
ENDBRANCH   6   7
ENDBRANCH   5   6
ENDBRANCH   3   5
BRANCH   2  14
HETATM   14  C   UNL     1     -45.495 -51.666  13.132  1.00  0.00     0.081 C 
HETATM   15  C   UNL     1     -46.611 -51.417  14.160  1.00  0.00     0.018 C 
HETATM   16  C   UNL     1     -46.941 -52.538  15.146  1.00  0.00     0.027 C 
HETATM   17  C   UNL     1     -46.496 -53.905  14.759  1.00  0.00    -0.031 C 
HETATM   18  C   UNL     1     -45.677 -54.161  13.734  1.00  0.00    -0.030 C 
HETATM   19  C   UNL     1     -45.104 -53.117  12.834  1.00  0.00     0.041 C 
ENDBRANCH   2  14
TORSDOF 4
ENDMDL
MODEL 9
REMARK VINA RESULT:      -5.4      1.974      2.537
REMARK  4 active torsions:
REMARK  status: ('A' for Active; 'I' for Inactive)
REMARK       I    between atoms: C_2  and  N_3 
REMARK    1  A    between atoms: C_2  and  C_13 
REMARK    2  A    between atoms: N_3  and  C_4 
REMARK    3  A    between atoms: C_4  and  C_5 
REMARK    4  A    between atoms: C_5  and  C_6 
ROOT
HETATM    1  O   UNL     1     -42.115 -51.358  15.483  1.00  0.00    -0.273 OA
HETATM    2  C   UNL     1     -42.972 -51.601  14.635  1.00  0.00     0.222 C 
HETATM    3  N   UNL     1     -42.898 -52.681  13.782  1.00  0.00    -0.360 N 
HETATM    4  H   UNL     1     -43.478 -52.666  12.950  1.00  0.00     0.162 HD
ENDROOT
BRANCH   3   5
HETATM    5  C   UNL     1     -41.731 -53.541  13.822  1.00  0.00     0.128 C 
BRANCH   5   6
HETATM    6  C   UNL     1     -40.892 -53.452  12.557  1.00  0.00     0.076 C 
BRANCH   6   7
HETATM    7  C   UNL     1     -40.327 -52.068  12.395  1.00  0.00     0.010 A 
HETATM    8  C   UNL     1     -39.374 -51.582  13.288  1.00  0.00     0.025 A 
HETATM    9  C   UNL     1     -38.916 -50.276  13.137  1.00  0.00     0.003 A 
HETATM   10  C   UNL     1     -39.422 -49.493  12.107  1.00  0.00     0.017 A 
HETATM   11  C   UNL     1     -40.367 -50.052  11.265  1.00  0.00     0.088 A 
HETATM   12  N   UNL     1     -40.829 -51.317  11.386  1.00  0.00    -0.369 N 
ATOM     13  HN  UNL     1     -41.528 -51.690  10.744  1.00  0.00     0.165 HD
ENDBRANCH   6   7
ENDBRANCH   5   6
ENDBRANCH   3   5
BRANCH   2  14
HETATM   14  C   UNL     1     -44.206 -50.720  14.481  1.00  0.00     0.081 C 
HETATM   15  C   UNL     1     -44.910 -50.527  15.834  1.00  0.00     0.018 C 
HETATM   16  C   UNL     1     -46.263 -51.208  16.043  1.00  0.00     0.027 C 
HETATM   17  C   UNL     1     -46.991 -51.613  14.809  1.00  0.00    -0.031 C 
HETATM   18  C   UNL     1     -46.453 -51.597  13.585  1.00  0.00    -0.030 C 
HETATM   19  C   UNL     1     -45.056 -51.165  13.286  1.00  0.00     0.041 C 
ENDBRANCH   2  14
TORSDOF 4
ENDMDL
