MODEL 1
REMARK VINA RESULT:      -6.3      0.000      0.000
REMARK  4 active torsions:
REMARK  status: ('A' for Active; 'I' for Inactive)
REMARK    1  A    between atoms: O_1  and  C_2 
REMARK    2  A    between atoms: C_7  and  N_8 
REMARK       I    between atoms: N_8  and  C_9 
REMARK    3  A    between atoms: C_9  and  C_11 
REMARK    4  A    between atoms: C_11  and  C_14 
ROOT
HETATM    1  N   UNL     1     -42.679 -54.136  13.903  1.00  0.00    -0.348 N 
HETATM    2  C   UNL     1     -43.704 -54.932  14.401  1.00  0.00     0.297 C 
HETATM    3  O   UNL     1     -43.506 -55.782  15.270  1.00  0.00    -0.266 OA
HETATM    4  H   UNL     1     -42.899 -53.557  13.097  1.00  0.00     0.163 HD
ENDROOT
BRANCH   2   5
HETATM    5  C   UNL     1     -45.105 -54.641  13.791  1.00  0.00     0.364 C 
HETATM    6  F   UNL     1     -44.977 -54.281  12.472  1.00  0.00    -0.188 F 
HETATM    7  F   UNL     1     -45.849 -55.801  13.751  1.00  0.00    -0.188 F 
BRANCH   5   8
HETATM    8  C   UNL     1     -45.781 -53.553  14.619  1.00  0.00     0.091 A 
HETATM    9  C   UNL     1     -46.317 -52.433  13.978  1.00  0.00     0.032 A 
HETATM   10  C   UNL     1     -46.877 -51.416  14.747  1.00  0.00     0.003 A 
HETATM   11  C   UNL     1     -46.898 -51.542  16.130  1.00  0.00     0.017 A 
HETATM   12  C   UNL     1     -46.359 -52.685  16.693  1.00  0.00     0.088 A 
HETATM   13  N   UNL     1     -45.797 -53.683  15.977  1.00  0.00    -0.364 N 
ATOM     14  HN  UNL     1     -45.399 -54.504  16.434  1.00  0.00     0.165 HD
ENDBRANCH   5   8
ENDBRANCH   2   5
BRANCH   1  15
HETATM   15  C   UNL     1     -41.288 -54.307  14.315  1.00  0.00     0.113 C 
HETATM   16  C   UNL     1     -40.294 -53.965  13.179  1.00  0.00     0.140 C 
HETATM   17  C   UNL     1     -40.247 -52.460  12.902  1.00  0.00     0.034 C 
HETATM   18  C   UNL     1     -39.952 -51.652  14.166  1.00  0.00     0.003 C 
HETATM   19  C   UNL     1     -40.922 -51.981  15.296  1.00  0.00     0.002 C 
HETATM   20  C   UNL     1     -40.994 -53.482  15.576  1.00  0.00     0.028 C 
BRANCH  16  21
HETATM   21  O   UNL     1     -38.985 -54.406  13.554  1.00  0.00    -0.394 OA
HETATM   22  H   UNL     1     -39.002 -54.589  14.509  1.00  0.00     0.210 HD
ENDBRANCH  16  21
ENDBRANCH   1  15
TORSDOF 4
ENDMDL
MODEL 2
REMARK VINA RESULT:      -6.2      1.872      2.248
REMARK  4 active torsions:
REMARK  status: ('A' for Active; 'I' for Inactive)
REMARK    1  A    between atoms: O_1  and  C_2 
REMARK    2  A    between atoms: C_7  and  N_8 
REMARK       I    between atoms: N_8  and  C_9 
REMARK    3  A    between atoms: C_9  and  C_11 
REMARK    4  A    between atoms: C_11  and  C_14 
ROOT
HETATM    1  N   UNL     1     -43.562 -52.595  12.998  1.00  0.00    -0.348 N 
HETATM    2  C   UNL     1     -44.855 -53.103  12.933  1.00  0.00     0.297 C 
HETATM    3  O   UNL     1     -45.080 -54.276  12.632  1.00  0.00    -0.266 OA
HETATM    4  H   UNL     1     -43.471 -51.590  13.122  1.00  0.00     0.163 HD
ENDROOT
BRANCH   2   5
HETATM    5  C   UNL     1     -45.971 -52.083  13.296  1.00  0.00     0.364 C 
HETATM    6  F   UNL     1     -45.563 -50.810  12.980  1.00  0.00    -0.188 F 
HETATM    7  F   UNL     1     -47.073 -52.289  12.494  1.00  0.00    -0.188 F 
BRANCH   5   8
HETATM    8  C   UNL     1     -46.303 -52.227  14.778  1.00  0.00     0.091 A 
HETATM    9  C   UNL     1     -47.139 -51.291  15.391  1.00  0.00     0.032 A 
HETATM   10  C   UNL     1     -47.385 -51.396  16.757  1.00  0.00     0.003 A 
HETATM   11  C   UNL     1     -46.804 -52.432  17.477  1.00  0.00     0.017 A 
HETATM   12  C   UNL     1     -45.997 -53.328  16.798  1.00  0.00     0.088 A 
HETATM   13  N   UNL     1     -45.727 -53.247  15.477  1.00  0.00    -0.364 N 
ATOM     14  HN  UNL     1     -45.115 -53.923  15.019  1.00  0.00     0.165 HD
ENDBRANCH   5   8
ENDBRANCH   2   5
BRANCH   1  15
HETATM   15  C   UNL     1     -42.392 -53.390  12.634  1.00  0.00     0.113 C 
HETATM   16  C   UNL     1     -41.306 -52.545  11.925  1.00  0.00     0.140 C 
HETATM   17  C   UNL     1     -40.614 -51.583  12.894  1.00  0.00     0.034 C 
HETATM   18  C   UNL     1     -40.049 -52.307  14.116  1.00  0.00     0.003 C 
HETATM   19  C   UNL     1     -41.107 -53.147  14.825  1.00  0.00     0.002 C 
HETATM   20  C   UNL     1     -41.820 -54.103  13.868  1.00  0.00     0.028 C 
BRANCH  16  21
HETATM   21  O   UNL     1     -40.324 -53.421  11.363  1.00  0.00    -0.394 OA
HETATM   22  H   UNL     1     -40.759 -53.934  10.660  1.00  0.00     0.210 HD
ENDBRANCH  16  21
ENDBRANCH   1  15
TORSDOF 4
ENDMDL
MODEL 3
REMARK VINA RESULT:      -5.8      3.943      6.159
REMARK  4 active torsions:
REMARK  status: ('A' for Active; 'I' for Inactive)
REMARK    1  A    between atoms: O_1  and  C_2 
REMARK    2  A    between atoms: C_7  and  N_8 
REMARK       I    between atoms: N_8  and  C_9 
REMARK    3  A    between atoms: C_9  and  C_11 
REMARK    4  A    between atoms: C_11  and  C_14 
ROOT
HETATM    1  N   UNL     1     -43.898 -51.483  12.999  1.00  0.00    -0.348 N 
HETATM    2  C   UNL     1     -42.589 -51.623  12.554  1.00  0.00     0.297 C 
HETATM    3  O   UNL     1     -42.238 -52.567  11.845  1.00  0.00    -0.266 OA
HETATM    4  H   UNL     1     -44.074 -50.754  13.686  1.00  0.00     0.163 HD
ENDROOT
BRANCH   2   5
HETATM    5  C   UNL     1     -41.627 -50.485  13.002  1.00  0.00     0.364 C 
HETATM    6  F   UNL     1     -41.647 -50.366  14.369  1.00  0.00    -0.188 F 
HETATM    7  F   UNL     1     -40.324 -50.833  12.715  1.00  0.00    -0.188 F 
BRANCH   5   8
HETATM    8  C   UNL     1     -42.043 -49.192  12.308  1.00  0.00     0.091 A 
HETATM    9  C   UNL     1     -42.554 -48.136  13.067  1.00  0.00     0.032 A 
HETATM   10  C   UNL     1     -42.988 -46.984  12.419  1.00  0.00     0.003 A 
HETATM   11  C   UNL     1     -42.897 -46.905  11.035  1.00  0.00     0.017 A 
HETATM   12  C   UNL     1     -42.370 -47.987  10.351  1.00  0.00     0.088 A 
HETATM   13  N   UNL     1     -41.952 -49.124  10.949  1.00  0.00    -0.364 N 
ATOM     14  HN  UNL     1     -41.581 -49.903  10.403  1.00  0.00     0.165 HD
ENDBRANCH   5   8
ENDBRANCH   2   5
BRANCH   1  15
HETATM   15  C   UNL     1     -44.926 -52.484  12.726  1.00  0.00     0.113 C 
HETATM   16  C   UNL     1     -44.879 -53.662  13.729  1.00  0.00     0.140 C 
HETATM   17  C   UNL     1     -45.360 -53.241  15.120  1.00  0.00     0.034 C 
HETATM   18  C   UNL     1     -46.746 -52.599  15.079  1.00  0.00     0.003 C 
HETATM   19  C   UNL     1     -46.810 -51.437  14.091  1.00  0.00     0.002 C 
HETATM   20  C   UNL     1     -46.317 -51.836  12.700  1.00  0.00     0.028 C 
BRANCH  16  21
HETATM   21  O   UNL     1     -45.717 -54.719  13.251  1.00  0.00    -0.394 OA
HETATM   22  H   UNL     1     -45.135 -55.421  12.913  1.00  0.00     0.210 HD
ENDBRANCH  16  21
ENDBRANCH   1  15
TORSDOF 4
ENDMDL
MODEL 4
REMARK VINA RESULT:      -5.8      1.691      2.142
REMARK  4 active torsions:
REMARK  status: ('A' for Active; 'I' for Inactive)
REMARK    1  A    between atoms: O_1  and  C_2 
REMARK    2  A    between atoms: C_7  and  N_8 
REMARK       I    between atoms: N_8  and  C_9 
REMARK    3  A    between atoms: C_9  and  C_11 
REMARK    4  A    between atoms: C_11  and  C_14 
ROOT
HETATM    1  N   UNL     1     -42.663 -54.108  13.615  1.00  0.00    -0.348 N 
HETATM    2  C   UNL     1     -43.999 -54.200  13.242  1.00  0.00     0.297 C 
HETATM    3  O   UNL     1     -44.372 -53.971  12.090  1.00  0.00    -0.266 OA
HETATM    4  H   UNL     1     -42.459 -54.181  14.607  1.00  0.00     0.163 HD
ENDROOT
BRANCH   2   5
HETATM    5  C   UNL     1     -44.962 -54.639  14.382  1.00  0.00     0.364 C 
HETATM    6  F   UNL     1     -45.813 -55.615  13.927  1.00  0.00    -0.188 F 
HETATM    7  F   UNL     1     -44.248 -55.258  15.386  1.00  0.00    -0.188 F 
BRANCH   5   8
HETATM    8  C   UNL     1     -45.715 -53.411  14.885  1.00  0.00     0.091 A 
HETATM    9  C   UNL     1     -46.042 -53.310  16.239  1.00  0.00     0.032 A 
HETATM   10  C   UNL     1     -46.783 -52.216  16.677  1.00  0.00     0.003 A 
HETATM   11  C   UNL     1     -47.172 -51.247  15.762  1.00  0.00     0.017 A 
HETATM   12  C   UNL     1     -46.802 -51.410  14.438  1.00  0.00     0.088 A 
HETATM   13  N   UNL     1     -46.094 -52.465  13.979  1.00  0.00    -0.364 N 
ATOM     14  HN  UNL     1     -45.853 -52.550  12.991  1.00  0.00     0.165 HD
ENDBRANCH   5   8
ENDBRANCH   2   5
BRANCH   1  15
HETATM   15  C   UNL     1     -41.625 -53.654  12.692  1.00  0.00     0.113 C 
HETATM   16  C   UNL     1     -41.760 -52.151  12.350  1.00  0.00     0.140 C 
HETATM   17  C   UNL     1     -41.386 -51.263  13.539  1.00  0.00     0.034 C 
HETATM   18  C   UNL     1     -39.996 -51.589  14.084  1.00  0.00     0.003 C 
HETATM   19  C   UNL     1     -39.846 -53.069  14.424  1.00  0.00     0.002 C 
HETATM   20  C   UNL     1     -40.231 -53.971  13.251  1.00  0.00     0.028 C 
BRANCH  16  21
HETATM   21  O   UNL     1     -40.896 -51.841  11.252  1.00  0.00    -0.394 OA
HETATM   22  H   UNL     1     -41.238 -51.034  10.832  1.00  0.00     0.210 HD
ENDBRANCH  16  21
ENDBRANCH   1  15
TORSDOF 4
ENDMDL
MODEL 5
REMARK VINA RESULT:      -5.6      3.404      6.735
REMARK  4 active torsions:
REMARK  status: ('A' for Active; 'I' for Inactive)
REMARK    1  A    between atoms: O_1  and  C_2 
REMARK    2  A    between atoms: C_7  and  N_8 
REMARK       I    between atoms: N_8  and  C_9 
REMARK    3  A    between atoms: C_9  and  C_11 
REMARK    4  A    between atoms: C_11  and  C_14 
ROOT
HETATM    1  N   UNL     1     -43.365 -51.340  13.160  1.00  0.00    -0.348 N 
HETATM    2  C   UNL     1     -42.143 -51.437  12.504  1.00  0.00     0.297 C 
HETATM    3  O   UNL     1     -41.715 -52.511  12.078  1.00  0.00    -0.266 OA
HETATM    4  H   UNL     1     -43.582 -50.447  13.595  1.00  0.00     0.163 HD
ENDROOT
BRANCH   2   5
HETATM    5  C   UNL     1     -41.390 -50.087  12.333  1.00  0.00     0.364 C 
HETATM    6  F   UNL     1     -41.725 -49.513  11.132  1.00  0.00    -0.188 F 
HETATM    7  F   UNL     1     -41.834 -49.181  13.272  1.00  0.00    -0.188 F 
BRANCH   5   8
HETATM    8  C   UNL     1     -39.891 -50.345  12.446  1.00  0.00     0.091 A 
HETATM    9  C   UNL     1     -39.023 -49.785  11.507  1.00  0.00     0.032 A 
HETATM   10  C   UNL     1     -37.664 -50.077  11.583  1.00  0.00     0.003 A 
HETATM   11  C   UNL     1     -37.201 -50.910  12.593  1.00  0.00     0.017 A 
HETATM   12  C   UNL     1     -38.121 -51.420  13.494  1.00  0.00     0.088 A 
HETATM   13  N   UNL     1     -39.446 -51.166  13.441  1.00  0.00    -0.364 N 
ATOM     14  HN  UNL     1     -40.090 -51.574  14.119  1.00  0.00     0.165 HD
ENDBRANCH   5   8
ENDBRANCH   2   5
BRANCH   1  15
HETATM   15  C   UNL     1     -44.184 -52.511  13.463  1.00  0.00     0.113 C 
HETATM   16  C   UNL     1     -44.589 -52.574  14.955  1.00  0.00     0.140 C 
HETATM   17  C   UNL     1     -45.621 -51.500  15.308  1.00  0.00     0.034 C 
HETATM   18  C   UNL     1     -46.845 -51.558  14.394  1.00  0.00     0.003 C 
HETATM   19  C   UNL     1     -46.461 -51.500  12.918  1.00  0.00     0.002 C 
HETATM   20  C   UNL     1     -45.419 -52.556  12.552  1.00  0.00     0.028 C 
BRANCH  16  21
HETATM   21  O   UNL     1     -45.148 -53.862  15.235  1.00  0.00    -0.394 OA
HETATM   22  H   UNL     1     -44.679 -54.221  16.007  1.00  0.00     0.210 HD
ENDBRANCH  16  21
ENDBRANCH   1  15
TORSDOF 4
ENDMDL
MODEL 6
REMARK VINA RESULT:      -5.5      2.977      4.446
REMARK  4 active torsions:
REMARK  status: ('A' for Active; 'I' for Inactive)
REMARK    1  A    between atoms: O_1  and  C_2 
REMARK    2  A    between atoms: C_7  and  N_8 
REMARK       I    between atoms: N_8  and  C_9 
REMARK    3  A    between atoms: C_9  and  C_11 
REMARK    4  A    between atoms: C_11  and  C_14 
ROOT
HETATM    1  N   UNL     1     -39.745 -51.771  13.566  1.00  0.00    -0.348 N 
HETATM    2  C   UNL     1     -40.453 -52.919  13.233  1.00  0.00     0.297 C 
HETATM    3  O   UNL     1     -40.447 -53.381  12.091  1.00  0.00    -0.266 OA
HETATM    4  H   UNL     1     -39.909 -51.383  14.491  1.00  0.00     0.163 HD
ENDROOT
BRANCH   2   5
HETATM    5  C   UNL     1     -41.220 -53.574  14.418  1.00  0.00     0.364 C 
HETATM    6  F   UNL     1     -40.610 -54.751  14.776  1.00  0.00    -0.188 F 
HETATM    7  F   UNL     1     -41.108 -52.784  15.542  1.00  0.00    -0.188 F 
BRANCH   5   8
HETATM    8  C   UNL     1     -42.673 -53.783  14.004  1.00  0.00     0.091 A 
HETATM    9  C   UNL     1     -43.430 -54.779  14.626  1.00  0.00     0.032 A 
HETATM   10  C   UNL     1     -44.735 -55.003  14.199  1.00  0.00     0.003 A 
HETATM   11  C   UNL     1     -45.258 -54.229  13.171  1.00  0.00     0.017 A 
HETATM   12  C   UNL     1     -44.451 -53.254  12.610  1.00  0.00     0.088 A 
HETATM   13  N   UNL     1     -43.177 -53.019  12.993  1.00  0.00    -0.364 N 
ATOM     14  HN  UNL     1     -42.614 -52.298  12.542  1.00  0.00     0.165 HD
ENDBRANCH   5   8
ENDBRANCH   2   5
BRANCH   1  15
HETATM   15  C   UNL     1     -39.014 -50.989  12.571  1.00  0.00     0.113 C 
HETATM   16  C   UNL     1     -39.711 -49.644  12.255  1.00  0.00     0.140 C 
HETATM   17  C   UNL     1     -39.596 -48.659  13.421  1.00  0.00     0.034 C 
HETATM   18  C   UNL     1     -38.146 -48.448  13.855  1.00  0.00     0.003 C 
HETATM   19  C   UNL     1     -37.444 -49.766  14.168  1.00  0.00     0.002 C 
HETATM   20  C   UNL     1     -37.562 -50.768  13.019  1.00  0.00     0.028 C 
BRANCH  16  21
HETATM   21  O   UNL     1     -39.102 -49.061  11.098  1.00  0.00    -0.394 OA
HETATM   22  H   UNL     1     -38.281 -48.628  11.388  1.00  0.00     0.210 HD
ENDBRANCH  16  21
ENDBRANCH   1  15
TORSDOF 4
ENDMDL
MODEL 7
REMARK VINA RESULT:      -5.5      2.931      6.554
REMARK  4 active torsions:
REMARK  status: ('A' for Active; 'I' for Inactive)
REMARK    1  A    between atoms: O_1  and  C_2 
REMARK    2  A    between atoms: C_7  and  N_8 
REMARK       I    between atoms: N_8  and  C_9 
REMARK    3  A    between atoms: C_9  and  C_11 
REMARK    4  A    between atoms: C_11  and  C_14 
ROOT
HETATM    1  N   UNL     1     -43.252 -52.172  13.894  1.00  0.00    -0.348 N 
HETATM    2  C   UNL     1     -41.949 -52.281  13.422  1.00  0.00     0.297 C 
HETATM    3  O   UNL     1     -41.678 -52.899  12.391  1.00  0.00    -0.266 OA
HETATM    4  H   UNL     1     -43.373 -51.763  14.816  1.00  0.00     0.163 HD
ENDROOT
BRANCH   2   5
HETATM    5  C   UNL     1     -40.884 -51.542  14.282  1.00  0.00     0.364 C 
HETATM    6  F   UNL     1     -41.468 -50.494  14.951  1.00  0.00    -0.188 F 
HETATM    7  F   UNL     1     -40.436 -52.372  15.287  1.00  0.00    -0.188 F 
BRANCH   5   8
HETATM    8  C   UNL     1     -39.753 -51.080  13.369  1.00  0.00     0.091 A 
HETATM    9  C   UNL     1     -38.440 -51.463  13.652  1.00  0.00     0.032 A 
HETATM   10  C   UNL     1     -37.408 -50.985  12.849  1.00  0.00     0.003 A 
HETATM   11  C   UNL     1     -37.706 -50.149  11.782  1.00  0.00     0.017 A 
HETATM   12  C   UNL     1     -39.033 -49.822  11.557  1.00  0.00     0.088 A 
HETATM   13  N   UNL     1     -40.055 -50.257  12.324  1.00  0.00    -0.364 N 
ATOM     14  HN  UNL     1     -41.018 -49.981  12.129  1.00  0.00     0.165 HD
ENDBRANCH   5   8
ENDBRANCH   2   5
BRANCH   1  15
HETATM   15  C   UNL     1     -44.375 -52.849  13.249  1.00  0.00     0.113 C 
HETATM   16  C   UNL     1     -44.889 -54.051  14.077  1.00  0.00     0.140 C 
HETATM   17  C   UNL     1     -45.618 -53.596  15.344  1.00  0.00     0.034 C 
HETATM   18  C   UNL     1     -46.743 -52.608  15.035  1.00  0.00     0.003 C 
HETATM   19  C   UNL     1     -46.252 -51.418  14.216  1.00  0.00     0.002 C 
HETATM   20  C   UNL     1     -45.507 -51.855  12.955  1.00  0.00     0.028 C 
BRANCH  16  21
HETATM   21  O   UNL     1     -45.792 -54.820  13.275  1.00  0.00    -0.394 OA
HETATM   22  H   UNL     1     -45.460 -55.734  13.260  1.00  0.00     0.210 HD
ENDBRANCH  16  21
ENDBRANCH   1  15
TORSDOF 4
ENDMDL
MODEL 8
REMARK VINA RESULT:      -5.4      3.588      4.522
REMARK  4 active torsions:
REMARK  status: ('A' for Active; 'I' for Inactive)
REMARK    1  A    between atoms: O_1  and  C_2 
REMARK    2  A    between atoms: C_7  and  N_8 
REMARK       I    between atoms: N_8  and  C_9 
REMARK    3  A    between atoms: C_9  and  C_11 
REMARK    4  A    between atoms: C_11  and  C_14 
ROOT
HETATM    1  N   UNL     1     -41.655 -50.546  12.536  1.00  0.00    -0.348 N 
HETATM    2  C   UNL     1     -41.790 -51.925  12.418  1.00  0.00     0.297 C 
HETATM    3  O   UNL     1     -41.328 -52.545  11.459  1.00  0.00    -0.266 OA
HETATM    4  H   UNL     1     -42.177 -50.097  13.284  1.00  0.00     0.163 HD
ENDROOT
BRANCH   2   5
HETATM    5  C   UNL     1     -42.540 -52.607  13.598  1.00  0.00     0.364 C 
HETATM    6  F   UNL     1     -42.351 -53.966  13.549  1.00  0.00    -0.188 F 
HETATM    7  F   UNL     1     -41.969 -52.232  14.795  1.00  0.00    -0.188 F 
BRANCH   5   8
HETATM    8  C   UNL     1     -44.016 -52.230  13.521  1.00  0.00     0.091 A 
HETATM    9  C   UNL     1     -44.612 -51.555  14.590  1.00  0.00     0.032 A 
HETATM   10  C   UNL     1     -45.973 -51.271  14.537  1.00  0.00     0.003 A 
HETATM   11  C   UNL     1     -46.706 -51.655  13.422  1.00  0.00     0.017 A 
HETATM   12  C   UNL     1     -46.045 -52.310  12.397  1.00  0.00     0.088 A 
HETATM   13  N   UNL     1     -44.729 -52.613  12.423  1.00  0.00    -0.364 N 
ATOM     14  HN  UNL     1     -44.285 -53.108  11.649  1.00  0.00     0.165 HD
ENDBRANCH   5   8
ENDBRANCH   2   5
BRANCH   1  15
HETATM   15  C   UNL     1     -41.031 -49.731  11.497  1.00  0.00     0.113 C 
HETATM   16  C   UNL     1     -41.724 -48.357  11.335  1.00  0.00     0.140 C 
HETATM   17  C   UNL     1     -41.440 -47.435  12.524  1.00  0.00     0.034 C 
HETATM   18  C   UNL     1     -39.942 -47.278  12.783  1.00  0.00     0.003 C 
HETATM   19  C   UNL     1     -39.243 -48.625  12.942  1.00  0.00     0.002 C 
HETATM   20  C   UNL     1     -39.530 -49.565  11.771  1.00  0.00     0.028 C 
BRANCH  16  21
HETATM   21  O   UNL     1     -41.247 -47.730  10.140  1.00  0.00    -0.394 OA
HETATM   22  H   UNL     1     -42.025 -47.448   9.629  1.00  0.00     0.210 HD
ENDBRANCH  16  21
ENDBRANCH   1  15
TORSDOF 4
ENDMDL
MODEL 9
REMARK VINA RESULT:      -5.3      2.488      6.024
REMARK  4 active torsions:
REMARK  status: ('A' for Active; 'I' for Inactive)
REMARK    1  A    between atoms: O_1  and  C_2 
REMARK    2  A    between atoms: C_7  and  N_8 
REMARK       I    between atoms: N_8  and  C_9 
REMARK    3  A    between atoms: C_9  and  C_11 
REMARK    4  A    between atoms: C_11  and  C_14 
ROOT
HETATM    1  N   UNL     1     -43.868 -53.451  15.281  1.00  0.00    -0.348 N 
HETATM    2  C   UNL     1     -43.091 -54.559  14.961  1.00  0.00     0.297 C 
HETATM    3  O   UNL     1     -43.519 -55.708  15.070  1.00  0.00    -0.266 OA
HETATM    4  H   UNL     1     -43.398 -52.550  15.291  1.00  0.00     0.163 HD
ENDROOT
BRANCH   2   5
HETATM    5  C   UNL     1     -41.666 -54.222  14.436  1.00  0.00     0.364 C 
HETATM    6  F   UNL     1     -41.537 -54.637  13.134  1.00  0.00    -0.188 F 
HETATM    7  F   UNL     1     -41.502 -52.855  14.369  1.00  0.00    -0.188 F 
BRANCH   5   8
HETATM    8  C   UNL     1     -40.640 -54.880  15.352  1.00  0.00     0.091 A 
HETATM    9  C   UNL     1     -39.284 -54.822  15.022  1.00  0.00     0.032 A 
HETATM   10  C   UNL     1     -38.360 -55.478  15.831  1.00  0.00     0.003 A 
HETATM   11  C   UNL     1     -38.806 -56.168  16.951  1.00  0.00     0.017 A 
HETATM   12  C   UNL     1     -40.164 -56.172  17.221  1.00  0.00     0.088 A 
HETATM   13  N   UNL     1     -41.086 -55.557  16.449  1.00  0.00    -0.364 N 
ATOM     14  HN  UNL     1     -42.079 -55.596  16.679  1.00  0.00     0.165 HD
ENDBRANCH   5   8
ENDBRANCH   2   5
BRANCH   1  15
HETATM   15  C   UNL     1     -45.210 -53.575  15.844  1.00  0.00     0.113 C 
HETATM   16  C   UNL     1     -45.596 -52.355  16.714  1.00  0.00     0.140 C 
HETATM   17  C   UNL     1     -45.841 -51.106  15.861  1.00  0.00     0.034 C 
HETATM   18  C   UNL     1     -46.870 -51.355  14.760  1.00  0.00     0.003 C 
HETATM   19  C   UNL     1     -46.505 -52.558  13.895  1.00  0.00     0.002 C 
HETATM   20  C   UNL     1     -46.241 -53.810  14.731  1.00  0.00     0.028 C 
BRANCH  16  21
HETATM   21  O   UNL     1     -46.791 -52.657  17.442  1.00  0.00    -0.394 OA
HETATM   22  H   UNL     1     -46.551 -53.282  18.147  1.00  0.00     0.210 HD
ENDBRANCH  16  21
ENDBRANCH   1  15
TORSDOF 4
ENDMDL
