MODEL 1
REMARK VINA RESULT:      -5.0      0.000      0.000
REMARK  1 active torsions:
REMARK  status: ('A' for Active; 'I' for Inactive)
REMARK    1  A    between atoms: C_4  and  C_7 
ROOT
HETATM    1  C   UNL     1     -40.371 -45.943  10.812  1.00  0.00     0.299 C 
HETATM    2  C   UNL     1     -41.693 -45.161  10.662  1.00  0.00     0.300 C 
HETATM    3  N   UNL     1     -42.769 -45.700  11.502  1.00  0.00     0.095 N 
HETATM    4  C   UNL     1     -42.985 -47.146  11.264  1.00  0.00     0.281 C 
HETATM    5  C   UNL     1     -41.615 -47.879  11.477  1.00  0.00     0.309 C 
HETATM    6  N   UNL     1     -40.526 -47.394  10.599  1.00  0.00     0.087 N 
HETATM    7  H   UNL     1     -43.625 -45.171  11.385  1.00  0.00     0.316 HD
HETATM    8  H   UNL     1     -40.820 -47.532   9.630  1.00  0.00     0.316 HD
ENDROOT
BRANCH   4   9
HETATM    9  C   UNL     1     -43.714 -47.457   9.950  1.00  0.00    -0.021 A 
HETATM   10  C   UNL     1     -43.023 -47.726   8.758  1.00  0.00     0.026 A 
HETATM   11  C   UNL     1     -43.734 -48.056   7.611  1.00  0.00     0.088 A 
HETATM   12  N   UNL     1     -45.077 -48.146   7.556  1.00  0.00    -0.375 N 
HETATM   13  C   UNL     1     -45.735 -47.913   8.707  1.00  0.00     0.088 A 
ATOM     14  HN  UNL     1     -45.567 -48.378   6.692  1.00  0.00     0.164 HD
HETATM   15  C   UNL     1     -45.112 -47.585   9.903  1.00  0.00     0.026 A 
ENDBRANCH   4   9
TORSDOF 1
ENDMDL
MODEL 2
REMARK VINA RESULT:      -4.6      6.616      8.129
REMARK  1 active torsions:
REMARK  status: ('A' for Active; 'I' for Inactive)
REMARK    1  A    between atoms: C_4  and  C_7 
ROOT
HETATM    1  C   UNL     1     -46.301 -52.598  14.462  1.00  0.00     0.299 C 
HETATM    2  C   UNL     1     -45.549 -51.783  13.388  1.00  0.00     0.300 C 
HETATM    3  N   UNL     1     -45.192 -52.587  12.213  1.00  0.00     0.095 N 
HETATM    4  C   UNL     1     -44.424 -53.799  12.586  1.00  0.00     0.281 C 
HETATM    5  C   UNL     1     -45.265 -54.596  13.642  1.00  0.00     0.309 C 
HETATM    6  N   UNL     1     -45.589 -53.826  14.864  1.00  0.00     0.087 N 
HETATM    7  H   UNL     1     -44.699 -52.031  11.524  1.00  0.00     0.316 HD
HETATM    8  H   UNL     1     -44.709 -53.542  15.298  1.00  0.00     0.316 HD
ENDROOT
BRANCH   4   9
HETATM    9  C   UNL     1     -42.964 -53.516  12.966  1.00  0.00    -0.021 A 
HETATM   10  C   UNL     1     -42.271 -54.299  13.902  1.00  0.00     0.026 A 
HETATM   11  C   UNL     1     -40.934 -54.032  14.166  1.00  0.00     0.088 A 
HETATM   12  N   UNL     1     -40.229 -53.052  13.569  1.00  0.00    -0.375 N 
HETATM   13  C   UNL     1     -40.889 -52.319  12.654  1.00  0.00     0.088 A 
ATOM     14  HN  UNL     1     -39.251 -52.875  13.798  1.00  0.00     0.164 HD
HETATM   15  C   UNL     1     -42.221 -52.517  12.316  1.00  0.00     0.026 A 
ENDBRANCH   4   9
TORSDOF 1
ENDMDL
MODEL 3
REMARK VINA RESULT:      -4.5      5.723      6.714
REMARK  1 active torsions:
REMARK  status: ('A' for Active; 'I' for Inactive)
REMARK    1  A    between atoms: C_4  and  C_7 
ROOT
HETATM    1  C   UNL     1     -39.476 -53.168  14.046  1.00  0.00     0.299 C 
HETATM    2  C   UNL     1     -40.506 -54.181  13.501  1.00  0.00     0.300 C 
HETATM    3  N   UNL     1     -40.905 -53.895  12.118  1.00  0.00     0.095 N 
HETATM    4  C   UNL     1     -41.401 -52.507  11.962  1.00  0.00     0.281 C 
HETATM    5  C   UNL     1     -40.291 -51.535  12.493  1.00  0.00     0.309 C 
HETATM    6  N   UNL     1     -39.910 -51.765  13.906  1.00  0.00     0.087 N 
HETATM    7  H   UNL     1     -41.581 -54.572  11.784  1.00  0.00     0.316 HD
HETATM    8  H   UNL     1     -40.747 -51.644  14.479  1.00  0.00     0.316 HD
ENDROOT
BRANCH   4   9
HETATM    9  C   UNL     1     -42.811 -52.285  12.526  1.00  0.00    -0.021 A 
HETATM   10  C   UNL     1     -43.191 -51.079  13.136  1.00  0.00     0.026 A 
HETATM   11  C   UNL     1     -44.497 -50.914  13.578  1.00  0.00     0.088 A 
HETATM   12  N   UNL     1     -45.458 -51.849  13.456  1.00  0.00    -0.375 N 
HETATM   13  C   UNL     1     -45.098 -52.995  12.848  1.00  0.00     0.088 A 
ATOM     14  HN  UNL     1     -46.405 -51.699  13.805  1.00  0.00     0.164 HD
HETATM   15  C   UNL     1     -43.821 -53.248  12.366  1.00  0.00     0.026 A 
ENDBRANCH   4   9
TORSDOF 1
ENDMDL
MODEL 4
REMARK VINA RESULT:      -4.5      6.625      7.512
REMARK  1 active torsions:
REMARK  status: ('A' for Active; 'I' for Inactive)
REMARK    1  A    between atoms: C_4  and  C_7 
ROOT
HETATM    1  C   UNL     1     -40.856 -52.446  14.256  1.00  0.00     0.299 C 
HETATM    2  C   UNL     1     -41.364 -53.864  13.916  1.00  0.00     0.300 C 
HETATM    3  N   UNL     1     -41.963 -53.946  12.579  1.00  0.00     0.095 N 
HETATM    4  C   UNL     1     -43.039 -52.944  12.393  1.00  0.00     0.281 C 
HETATM    5  C   UNL     1     -42.441 -51.529  12.712  1.00  0.00     0.309 C 
HETATM    6  N   UNL     1     -41.882 -51.402  14.077  1.00  0.00     0.087 N 
HETATM    7  H   UNL     1     -42.289 -54.884  12.380  1.00  0.00     0.316 HD
HETATM    8  H   UNL     1     -42.633 -51.593  14.741  1.00  0.00     0.316 HD
ENDROOT
BRANCH   4   9
HETATM    9  C   UNL     1     -44.347 -53.296  13.115  1.00  0.00    -0.021 A 
HETATM   10  C   UNL     1     -45.344 -52.340  13.363  1.00  0.00     0.026 A 
HETATM   11  C   UNL     1     -46.532 -52.728  13.970  1.00  0.00     0.088 A 
HETATM   12  N   UNL     1     -46.809 -53.991  14.345  1.00  0.00    -0.375 N 
HETATM   13  C   UNL     1     -45.861 -54.910  14.083  1.00  0.00     0.088 A 
ATOM     14  HN  UNL     1     -47.688 -54.238  14.802  1.00  0.00     0.164 HD
HETATM   15  C   UNL     1     -44.649 -54.620  13.473  1.00  0.00     0.026 A 
ENDBRANCH   4   9
TORSDOF 1
ENDMDL
MODEL 5
REMARK VINA RESULT:      -4.4      6.295      7.115
REMARK  1 active torsions:
REMARK  status: ('A' for Active; 'I' for Inactive)
REMARK    1  A    between atoms: C_4  and  C_7 
ROOT
HETATM    1  C   UNL     1     -40.817 -51.287  12.062  1.00  0.00     0.299 C 
HETATM    2  C   UNL     1     -41.471 -51.114  13.449  1.00  0.00     0.300 C 
HETATM    3  N   UNL     1     -41.290 -52.288  14.312  1.00  0.00     0.095 N 
HETATM    4  C   UNL     1     -41.763 -53.532  13.659  1.00  0.00     0.281 C 
HETATM    5  C   UNL     1     -41.027 -53.663  12.281  1.00  0.00     0.309 C 
HETATM    6  N   UNL     1     -41.241 -52.518  11.368  1.00  0.00     0.087 N 
HETATM    7  H   UNL     1     -41.728 -52.150  15.215  1.00  0.00     0.316 HD
HETATM    8  H   UNL     1     -42.245 -52.441  11.193  1.00  0.00     0.316 HD
ENDROOT
BRANCH   4   9
HETATM    9  C   UNL     1     -43.291 -53.668  13.618  1.00  0.00    -0.021 A 
HETATM   10  C   UNL     1     -44.086 -52.905  12.748  1.00  0.00     0.026 A 
HETATM   11  C   UNL     1     -45.460 -53.111  12.714  1.00  0.00     0.088 A 
HETATM   12  N   UNL     1     -46.105 -54.018  13.472  1.00  0.00    -0.375 N 
HETATM   13  C   UNL     1     -45.337 -54.766  14.286  1.00  0.00     0.088 A 
ATOM     14  HN  UNL     1     -47.118 -54.133  13.431  1.00  0.00     0.164 HD
HETATM   15  C   UNL     1     -43.958 -54.639  14.383  1.00  0.00     0.026 A 
ENDBRANCH   4   9
TORSDOF 1
ENDMDL
MODEL 6
REMARK VINA RESULT:      -4.4      7.175      8.349
REMARK  1 active torsions:
REMARK  status: ('A' for Active; 'I' for Inactive)
REMARK    1  A    between atoms: C_4  and  C_7 
ROOT
HETATM    1  C   UNL     1     -46.755 -51.835  15.709  1.00  0.00     0.299 C 
HETATM    2  C   UNL     1     -46.563 -51.651  14.188  1.00  0.00     0.300 C 
HETATM    3  N   UNL     1     -46.710 -52.908  13.443  1.00  0.00     0.095 N 
HETATM    4  C   UNL     1     -45.811 -53.966  13.962  1.00  0.00     0.281 C 
HETATM    5  C   UNL     1     -46.092 -54.127  15.496  1.00  0.00     0.309 C 
HETATM    6  N   UNL     1     -45.894 -52.887  16.281  1.00  0.00     0.087 N 
HETATM    7  H   UNL     1     -46.579 -52.761  12.449  1.00  0.00     0.316 HD
HETATM    8  H   UNL     1     -44.925 -52.590  16.158  1.00  0.00     0.316 HD
ENDROOT
BRANCH   4   9
HETATM    9  C   UNL     1     -44.341 -53.780  13.565  1.00  0.00    -0.021 A 
HETATM   10  C   UNL     1     -43.299 -54.457  14.220  1.00  0.00     0.026 A 
HETATM   11  C   UNL     1     -41.991 -54.293  13.781  1.00  0.00     0.088 A 
HETATM   12  N   UNL     1     -41.637 -53.516  12.740  1.00  0.00    -0.375 N 
HETATM   13  C   UNL     1     -42.640 -52.889  12.099  1.00  0.00     0.088 A 
ATOM     14  HN  UNL     1     -40.663 -53.409  12.454  1.00  0.00     0.164 HD
HETATM   15  C   UNL     1     -43.977 -52.997  12.457  1.00  0.00     0.026 A 
ENDBRANCH   4   9
TORSDOF 1
ENDMDL
MODEL 7
REMARK VINA RESULT:      -4.4      6.793      7.729
REMARK  1 active torsions:
REMARK  status: ('A' for Active; 'I' for Inactive)
REMARK    1  A    between atoms: C_4  and  C_7 
ROOT
HETATM    1  C   UNL     1     -40.486 -52.012  14.802  1.00  0.00     0.299 C 
HETATM    2  C   UNL     1     -41.197 -53.172  15.531  1.00  0.00     0.300 C 
HETATM    3  N   UNL     1     -41.200 -54.415  14.751  1.00  0.00     0.095 N 
HETATM    4  C   UNL     1     -41.771 -54.217  13.398  1.00  0.00     0.281 C 
HETATM    5  C   UNL     1     -40.974 -53.058  12.703  1.00  0.00     0.309 C 
HETATM    6  N   UNL     1     -41.004 -51.775  13.442  1.00  0.00     0.087 N 
HETATM    7  H   UNL     1     -41.672 -55.160  15.250  1.00  0.00     0.316 HD
HETATM    8  H   UNL     1     -41.980 -51.489  13.531  1.00  0.00     0.316 HD
ENDROOT
BRANCH   4   9
HETATM    9  C   UNL     1     -43.300 -54.081  13.384  1.00  0.00    -0.021 A 
HETATM   10  C   UNL     1     -44.123 -54.812  14.254  1.00  0.00     0.026 A 
HETATM   11  C   UNL     1     -45.497 -54.607  14.236  1.00  0.00     0.088 A 
HETATM   12  N   UNL     1     -46.117 -53.729  13.425  1.00  0.00    -0.375 N 
HETATM   13  C   UNL     1     -45.323 -53.011  12.609  1.00  0.00     0.088 A 
ATOM     14  HN  UNL     1     -47.130 -53.614  13.428  1.00  0.00     0.164 HD
HETATM   15  C   UNL     1     -43.941 -53.139  12.562  1.00  0.00     0.026 A 
ENDBRANCH   4   9
TORSDOF 1
ENDMDL
MODEL 8
REMARK VINA RESULT:      -4.1      2.295      4.551
REMARK  1 active torsions:
REMARK  status: ('A' for Active; 'I' for Inactive)
REMARK    1  A    between atoms: C_4  and  C_7 
ROOT
HETATM    1  C   UNL     1     -42.299 -45.516  11.812  1.00  0.00     0.299 C 
HETATM    2  C   UNL     1     -40.925 -46.096  11.418  1.00  0.00     0.300 C 
HETATM    3  N   UNL     1     -41.004 -47.012  10.273  1.00  0.00     0.095 N 
HETATM    4  C   UNL     1     -41.987 -48.097  10.501  1.00  0.00     0.281 C 
HETATM    5  C   UNL     1     -43.364 -47.435  10.852  1.00  0.00     0.309 C 
HETATM    6  N   UNL     1     -43.325 -46.551  12.040  1.00  0.00     0.087 N 
HETATM    7  H   UNL     1     -40.090 -47.380  10.034  1.00  0.00     0.316 HD
HETATM    8  H   UNL     1     -43.023 -47.112  12.837  1.00  0.00     0.316 HD
ENDROOT
BRANCH   4   9
HETATM    9  C   UNL     1     -41.499 -49.183  11.469  1.00  0.00    -0.021 A 
HETATM   10  C   UNL     1     -42.343 -49.761  12.431  1.00  0.00     0.026 A 
HETATM   11  C   UNL     1     -41.862 -50.780  13.243  1.00  0.00     0.088 A 
HETATM   12  N   UNL     1     -40.612 -51.275  13.172  1.00  0.00    -0.375 N 
HETATM   13  C   UNL     1     -39.813 -50.737  12.233  1.00  0.00     0.088 A 
ATOM     14  HN  UNL     1     -40.289 -52.015  13.795  1.00  0.00     0.164 HD
HETATM   15  C   UNL     1     -40.205 -49.722  11.369  1.00  0.00     0.026 A 
ENDBRANCH   4   9
TORSDOF 1
ENDMDL
MODEL 9
REMARK VINA RESULT:      -4.0      2.058      3.604
REMARK  1 active torsions:
REMARK  status: ('A' for Active; 'I' for Inactive)
REMARK    1  A    between atoms: C_4  and  C_7 
ROOT
HETATM    1  C   UNL     1     -42.531 -43.578  13.548  1.00  0.00     0.299 C 
HETATM    2  C   UNL     1     -41.545 -44.751  13.732  1.00  0.00     0.300 C 
HETATM    3  N   UNL     1     -40.412 -44.690  12.801  1.00  0.00     0.095 N 
HETATM    4  C   UNL     1     -40.860 -44.597  11.391  1.00  0.00     0.281 C 
HETATM    5  C   UNL     1     -41.820 -43.362  11.271  1.00  0.00     0.309 C 
HETATM    6  N   UNL     1     -43.003 -43.427  12.159  1.00  0.00     0.087 N 
HETATM    7  H   UNL     1     -39.780 -45.469  12.941  1.00  0.00     0.316 HD
HETATM    8  H   UNL     1     -43.528 -44.269  11.920  1.00  0.00     0.316 HD
ENDROOT
BRANCH   4   9
HETATM    9  C   UNL     1     -41.393 -45.917  10.821  1.00  0.00    -0.021 A 
HETATM   10  C   UNL     1     -40.844 -47.160  11.175  1.00  0.00     0.026 A 
HETATM   11  C   UNL     1     -41.403 -48.327  10.671  1.00  0.00     0.088 A 
HETATM   12  N   UNL     1     -42.468 -48.358   9.847  1.00  0.00    -0.375 N 
HETATM   13  C   UNL     1     -43.008 -47.167   9.530  1.00  0.00     0.088 A 
ATOM     14  HN  UNL     1     -42.845 -49.235   9.485  1.00  0.00     0.164 HD
HETATM   15  C   UNL     1     -42.526 -45.950   9.991  1.00  0.00     0.026 A 
ENDBRANCH   4   9
TORSDOF 1
ENDMDL
