MODEL 1
REMARK VINA RESULT:      -6.3      0.000      0.000
REMARK  4 active torsions:
REMARK  status: ('A' for Active; 'I' for Inactive)
REMARK       I    between atoms: N_2  and  C_4 
REMARK    1  A    between atoms: C_4  and  C_6 
REMARK    2  A    between atoms: C_6  and  N_7 
REMARK       I    between atoms: N_7  and  C_8 
REMARK       I    between atoms: C_8  and  N_10 
REMARK    3  A    between atoms: N_10  and  C_11 
REMARK    4  A    between atoms: C_14  and  N_18 
ROOT
HETATM    1  C   UNL     1     -41.205 -49.487  12.233  1.00  0.00     0.051 C 
HETATM    2  C   UNL     1     -42.396 -49.445  12.941  1.00  0.00     0.035 C 
HETATM    3  C   UNL     1     -43.084 -50.645  13.173  1.00  0.00     0.051 C 
HETATM    4  C   UNL     1     -42.625 -51.861  12.653  1.00  0.00     0.103 C 
HETATM    5  N   UNL     1     -41.563 -51.846  11.813  1.00  0.00    -0.350 N 
ATOM      6  HN  UNL     1     -41.272 -52.700  11.338  1.00  0.00     0.166 HD
HETATM    7  C   UNL     1     -40.888 -50.685  11.608  1.00  0.00     0.119 C 
ENDROOT
BRANCH   1   8
HETATM    8  N   UNL     1     -40.322 -48.413  12.332  1.00  0.00    -0.308 N 
HETATM    9  C   UNL     1     -40.286 -47.245  11.630  1.00  0.00     0.321 C 
HETATM   10  N   UNL     1     -41.052 -47.028  10.529  1.00  0.00    -0.334 N 
HETATM   11  O   UNL     1     -39.452 -46.390  11.935  1.00  0.00    -0.247 OA
HETATM   12  H   UNL     1     -40.929 -46.097  10.148  1.00  0.00     0.164 HD
HETATM   13  H   UNL     1     -39.409 -48.589  12.748  1.00  0.00     0.170 HD
BRANCH  10  14
HETATM   14  C   UNL     1     -42.010 -47.883   9.845  1.00  0.00     0.227 C 
BRANCH  14  15
HETATM   15  C   UNL     1     -43.501 -47.556   9.814  1.00  0.00     0.236 C 
HETATM   16  N   UNL     1     -44.173 -47.670   8.598  1.00  0.00    -0.359 N 
HETATM   17  C   UNL     1     -45.615 -47.822   8.696  1.00  0.00     0.152 C 
HETATM   18  C   UNL     1     -43.528 -48.088   7.364  1.00  0.00     0.152 C 
HETATM   19  O   UNL     1     -44.106 -47.391  10.876  1.00  0.00    -0.272 OA
ENDBRANCH  14  15
ENDBRANCH  10  14
ENDBRANCH   1   8
BRANCH   4  20
HETATM   20  N   UNL     1     -43.136 -53.082  13.062  1.00  0.00    -0.367 N 
HETATM   21  C   UNL     1     -44.358 -53.672  12.515  1.00  0.00     0.124 C 
HETATM   22  C   UNL     1     -45.147 -54.334  13.646  1.00  0.00     0.020 C 
HETATM   23  C   UNL     1     -44.301 -55.372  14.374  1.00  0.00     0.003 C 
HETATM   24  C   UNL     1     -42.986 -54.759  14.851  1.00  0.00     0.020 C 
HETATM   25  C   UNL     1     -42.237 -54.042  13.720  1.00  0.00     0.124 C 
ENDBRANCH   4  20
TORSDOF 4
ENDMDL
MODEL 2
REMARK VINA RESULT:      -6.0      1.869      2.783
REMARK  4 active torsions:
REMARK  status: ('A' for Active; 'I' for Inactive)
REMARK       I    between atoms: N_2  and  C_4 
REMARK    1  A    between atoms: C_4  and  C_6 
REMARK    2  A    between atoms: C_6  and  N_7 
REMARK       I    between atoms: N_7  and  C_8 
REMARK       I    between atoms: C_8  and  N_10 
REMARK    3  A    between atoms: N_10  and  C_11 
REMARK    4  A    between atoms: C_14  and  N_18 
ROOT
HETATM    1  C   UNL     1     -40.486 -51.246  12.510  1.00  0.00     0.051 C 
HETATM    2  C   UNL     1     -40.837 -50.931  13.812  1.00  0.00     0.035 C 
HETATM    3  C   UNL     1     -42.058 -51.404  14.315  1.00  0.00     0.051 C 
HETATM    4  C   UNL     1     -42.947 -52.126  13.510  1.00  0.00     0.103 C 
HETATM    5  N   UNL     1     -42.663 -52.261  12.193  1.00  0.00    -0.350 N 
ATOM      6  HN  UNL     1     -43.341 -52.691  11.563  1.00  0.00     0.166 HD
HETATM    7  C   UNL     1     -41.470 -51.820  11.716  1.00  0.00     0.119 C 
ENDROOT
BRANCH   1   8
HETATM    8  N   UNL     1     -39.150 -51.143  12.124  1.00  0.00    -0.308 N 
HETATM    9  C   UNL     1     -38.447 -50.058  11.693  1.00  0.00     0.321 C 
HETATM   10  N   UNL     1     -39.042 -48.877  11.379  1.00  0.00    -0.334 N 
HETATM   11  O   UNL     1     -37.240 -50.176  11.473  1.00  0.00    -0.247 OA
HETATM   12  H   UNL     1     -38.373 -48.166  11.109  1.00  0.00     0.164 HD
HETATM   13  H   UNL     1     -38.676 -51.995  11.830  1.00  0.00     0.170 HD
BRANCH  10  14
HETATM   14  C   UNL     1     -40.441 -48.476  11.392  1.00  0.00     0.227 C 
BRANCH  14  15
HETATM   15  C   UNL     1     -40.860 -47.019  11.214  1.00  0.00     0.236 C 
HETATM   16  N   UNL     1     -41.945 -46.745  10.382  1.00  0.00    -0.359 N 
HETATM   17  C   UNL     1     -42.595 -45.466  10.609  1.00  0.00     0.152 C 
HETATM   18  C   UNL     1     -42.696 -47.775   9.683  1.00  0.00     0.152 C 
HETATM   19  O   UNL     1     -40.368 -46.154  11.943  1.00  0.00    -0.272 OA
ENDBRANCH  14  15
ENDBRANCH  10  14
ENDBRANCH   1   8
BRANCH   4  20
HETATM   20  N   UNL     1     -44.033 -52.809  14.033  1.00  0.00    -0.367 N 
HETATM   21  C   UNL     1     -44.058 -54.257  14.235  1.00  0.00     0.124 C 
HETATM   22  C   UNL     1     -45.441 -54.793  13.862  1.00  0.00     0.020 C 
HETATM   23  C   UNL     1     -46.536 -54.097  14.663  1.00  0.00     0.003 C 
HETATM   24  C   UNL     1     -46.431 -52.580  14.517  1.00  0.00     0.020 C 
HETATM   25  C   UNL     1     -45.020 -52.064  14.830  1.00  0.00     0.124 C 
ENDBRANCH   4  20
TORSDOF 4
ENDMDL
MODEL 3
REMARK VINA RESULT:      -5.9      3.486      5.756
REMARK  4 active torsions:
REMARK  status: ('A' for Active; 'I' for Inactive)
REMARK       I    between atoms: N_2  and  C_4 
REMARK    1  A    between atoms: C_4  and  C_6 
REMARK    2  A    between atoms: C_6  and  N_7 
REMARK       I    between atoms: N_7  and  C_8 
REMARK       I    between atoms: C_8  and  N_10 
REMARK    3  A    between atoms: N_10  and  C_11 
REMARK    4  A    between atoms: C_14  and  N_18 
ROOT
HETATM    1  C   UNL     1     -40.924 -51.038  11.930  1.00  0.00     0.051 C 
HETATM    2  C   UNL     1     -41.826 -50.301  12.680  1.00  0.00     0.035 C 
HETATM    3  C   UNL     1     -42.942 -50.953  13.224  1.00  0.00     0.051 C 
HETATM    4  C   UNL     1     -43.189 -52.308  12.971  1.00  0.00     0.103 C 
HETATM    5  N   UNL     1     -42.395 -52.957  12.087  1.00  0.00    -0.350 N 
ATOM      6  HN  UNL     1     -42.614 -53.912  11.805  1.00  0.00     0.166 HD
HETATM    7  C   UNL     1     -41.304 -52.326  11.579  1.00  0.00     0.119 C 
ENDROOT
BRANCH   1   8
HETATM    8  N   UNL     1     -39.642 -50.531  11.723  1.00  0.00    -0.308 N 
HETATM    9  C   UNL     1     -38.478 -50.810  12.375  1.00  0.00     0.321 C 
HETATM   10  N   UNL     1     -38.436 -51.538  13.522  1.00  0.00    -0.334 N 
HETATM   11  O   UNL     1     -37.431 -50.296  11.976  1.00  0.00    -0.247 OA
HETATM   12  H   UNL     1     -37.491 -51.681  13.856  1.00  0.00     0.164 HD
HETATM   13  H   UNL     1     -39.559 -49.635  11.247  1.00  0.00     0.170 HD
BRANCH  10  14
HETATM   14  C   UNL     1     -39.498 -52.146  14.309  1.00  0.00     0.227 C 
BRANCH  14  15
HETATM   15  C   UNL     1     -39.533 -53.647  14.586  1.00  0.00     0.236 C 
HETATM   16  N   UNL     1     -39.085 -54.096  15.829  1.00  0.00    -0.359 N 
HETATM   17  C   UNL     1     -39.566 -55.407  16.227  1.00  0.00     0.152 C 
HETATM   18  C   UNL     1     -38.594 -53.207  16.870  1.00  0.00     0.152 C 
HETATM   19  O   UNL     1     -40.123 -54.394  13.802  1.00  0.00    -0.272 OA
ENDBRANCH  14  15
ENDBRANCH  10  14
ENDBRANCH   1   8
BRANCH   4  20
HETATM   20  N   UNL     1     -44.132 -53.034  13.681  1.00  0.00    -0.367 N 
HETATM   21  C   UNL     1     -43.998 -54.459  13.981  1.00  0.00     0.124 C 
HETATM   22  C   UNL     1     -45.362 -55.135  13.836  1.00  0.00     0.020 C 
HETATM   23  C   UNL     1     -46.404 -54.470  14.728  1.00  0.00     0.003 C 
HETATM   24  C   UNL     1     -46.459 -52.967  14.467  1.00  0.00     0.020 C 
HETATM   25  C   UNL     1     -45.072 -52.313  14.552  1.00  0.00     0.124 C 
ENDBRANCH   4  20
TORSDOF 4
ENDMDL
MODEL 4
REMARK VINA RESULT:      -5.9      2.664      4.048
REMARK  4 active torsions:
REMARK  status: ('A' for Active; 'I' for Inactive)
REMARK       I    between atoms: N_2  and  C_4 
REMARK    1  A    between atoms: C_4  and  C_6 
REMARK    2  A    between atoms: C_6  and  N_7 
REMARK       I    between atoms: N_7  and  C_8 
REMARK       I    between atoms: C_8  and  N_10 
REMARK    3  A    between atoms: N_10  and  C_11 
REMARK    4  A    between atoms: C_14  and  N_18 
ROOT
HETATM    1  C   UNL     1     -40.674 -47.366  11.125  1.00  0.00     0.051 C 
HETATM    2  C   UNL     1     -40.121 -47.721  12.344  1.00  0.00     0.035 C 
HETATM    3  C   UNL     1     -40.498 -48.941  12.926  1.00  0.00     0.051 C 
HETATM    4  C   UNL     1     -41.461 -49.765  12.332  1.00  0.00     0.103 C 
HETATM    5  N   UNL     1     -42.118 -49.308  11.239  1.00  0.00    -0.350 N 
ATOM      6  HN  UNL     1     -42.895 -49.840  10.847  1.00  0.00     0.166 HD
HETATM    7  C   UNL     1     -41.734 -48.137  10.668  1.00  0.00     0.119 C 
ENDROOT
BRANCH   1   8
HETATM    8  N   UNL     1     -40.039 -46.394  10.352  1.00  0.00    -0.308 N 
HETATM    9  C   UNL     1     -40.185 -45.039  10.361  1.00  0.00     0.321 C 
HETATM   10  N   UNL     1     -41.177 -44.414  11.048  1.00  0.00    -0.334 N 
HETATM   11  O   UNL     1     -39.462 -44.355   9.635  1.00  0.00    -0.247 OA
HETATM   12  H   UNL     1     -41.122 -43.405  10.977  1.00  0.00     0.164 HD
HETATM   13  H   UNL     1     -39.633 -46.687   9.465  1.00  0.00     0.170 HD
BRANCH  10  14
HETATM   14  C   UNL     1     -42.259 -44.945  11.865  1.00  0.00     0.227 C 
BRANCH  14  15
HETATM   15  C   UNL     1     -42.693 -44.266  13.162  1.00  0.00     0.236 C 
HETATM   16  N   UNL     1     -43.086 -45.076  14.227  1.00  0.00    -0.359 N 
HETATM   17  C   UNL     1     -43.025 -44.453  15.537  1.00  0.00     0.152 C 
HETATM   18  C   UNL     1     -43.098 -46.529  14.164  1.00  0.00     0.152 C 
HETATM   19  O   UNL     1     -42.507 -43.055  13.303  1.00  0.00    -0.272 OA
ENDBRANCH  14  15
ENDBRANCH  10  14
ENDBRANCH   1   8
BRANCH   4  20
HETATM   20  N   UNL     1     -41.676 -51.070  12.743  1.00  0.00    -0.367 N 
HETATM   21  C   UNL     1     -40.614 -51.953  13.222  1.00  0.00     0.124 C 
HETATM   22  C   UNL     1     -40.852 -53.365  12.686  1.00  0.00     0.020 C 
HETATM   23  C   UNL     1     -42.231 -53.880  13.085  1.00  0.00     0.003 C 
HETATM   24  C   UNL     1     -43.319 -52.895  12.662  1.00  0.00     0.020 C 
HETATM   25  C   UNL     1     -43.031 -51.469  13.152  1.00  0.00     0.124 C 
ENDBRANCH   4  20
TORSDOF 4
ENDMDL
MODEL 5
REMARK VINA RESULT:      -5.9      1.935      2.583
REMARK  4 active torsions:
REMARK  status: ('A' for Active; 'I' for Inactive)
REMARK       I    between atoms: N_2  and  C_4 
REMARK    1  A    between atoms: C_4  and  C_6 
REMARK    2  A    between atoms: C_6  and  N_7 
REMARK       I    between atoms: N_7  and  C_8 
REMARK       I    between atoms: C_8  and  N_10 
REMARK    3  A    between atoms: N_10  and  C_11 
REMARK    4  A    between atoms: C_14  and  N_18 
ROOT
HETATM    1  C   UNL     1     -41.990 -47.788  11.379  1.00  0.00     0.051 C 
HETATM    2  C   UNL     1     -42.722 -47.998  12.536  1.00  0.00     0.035 C 
HETATM    3  C   UNL     1     -42.723 -49.278  13.110  1.00  0.00     0.051 C 
HETATM    4  C   UNL     1     -42.057 -50.349  12.504  1.00  0.00     0.103 C 
HETATM    5  N   UNL     1     -41.505 -50.160  11.282  1.00  0.00    -0.350 N 
ATOM      6  HN  UNL     1     -41.105 -50.947  10.771  1.00  0.00     0.166 HD
HETATM    7  C   UNL     1     -41.488 -48.914  10.740  1.00  0.00     0.119 C 
ENDROOT
BRANCH   1   8
HETATM    8  N   UNL     1     -41.647 -46.485  11.022  1.00  0.00    -0.308 N 
HETATM    9  C   UNL     1     -42.394 -45.523  10.410  1.00  0.00     0.321 C 
HETATM   10  N   UNL     1     -43.607 -45.780   9.855  1.00  0.00    -0.334 N 
HETATM   11  O   UNL     1     -41.910 -44.400  10.254  1.00  0.00    -0.247 OA
HETATM   12  H   UNL     1     -44.042 -44.949   9.472  1.00  0.00     0.164 HD
HETATM   13  H   UNL     1     -40.658 -46.269  10.914  1.00  0.00     0.170 HD
BRANCH  10  14
HETATM   14  C   UNL     1     -44.369 -47.015   9.747  1.00  0.00     0.227 C 
BRANCH  14  15
HETATM   15  C   UNL     1     -44.406 -47.826   8.455  1.00  0.00     0.236 C 
HETATM   16  N   UNL     1     -45.581 -48.508   8.141  1.00  0.00    -0.359 N 
HETATM   17  C   UNL     1     -45.746 -48.850   6.739  1.00  0.00     0.152 C 
HETATM   18  C   UNL     1     -46.770 -48.480   8.978  1.00  0.00     0.152 C 
HETATM   19  O   UNL     1     -43.488 -47.708   7.639  1.00  0.00    -0.272 OA
ENDBRANCH  14  15
ENDBRANCH  10  14
ENDBRANCH   1   8
BRANCH   4  20
HETATM   20  N   UNL     1     -41.835 -51.550  13.158  1.00  0.00    -0.367 N 
HETATM   21  C   UNL     1     -40.796 -52.503  12.771  1.00  0.00     0.124 C 
HETATM   22  C   UNL     1     -41.342 -53.926  12.903  1.00  0.00     0.020 C 
HETATM   23  C   UNL     1     -41.848 -54.192  14.317  1.00  0.00     0.003 C 
HETATM   24  C   UNL     1     -42.859 -53.129  14.738  1.00  0.00     0.020 C 
HETATM   25  C   UNL     1     -42.322 -51.705  14.537  1.00  0.00     0.124 C 
ENDBRANCH   4  20
TORSDOF 4
ENDMDL
MODEL 6
REMARK VINA RESULT:      -5.8      3.633      5.527
REMARK  4 active torsions:
REMARK  status: ('A' for Active; 'I' for Inactive)
REMARK       I    between atoms: N_2  and  C_4 
REMARK    1  A    between atoms: C_4  and  C_6 
REMARK    2  A    between atoms: C_6  and  N_7 
REMARK       I    between atoms: N_7  and  C_8 
REMARK       I    between atoms: C_8  and  N_10 
REMARK    3  A    between atoms: N_10  and  C_11 
REMARK    4  A    between atoms: C_14  and  N_18 
ROOT
HETATM    1  C   UNL     1     -40.779 -51.173  12.131  1.00  0.00     0.051 C 
HETATM    2  C   UNL     1     -41.628 -50.201  12.636  1.00  0.00     0.035 C 
HETATM    3  C   UNL     1     -42.952 -50.552  12.937  1.00  0.00     0.051 C 
HETATM    4  C   UNL     1     -43.441 -51.839  12.680  1.00  0.00     0.103 C 
HETATM    5  N   UNL     1     -42.646 -52.713  12.018  1.00  0.00    -0.350 N 
ATOM      6  HN  UNL     1     -43.011 -53.619  11.725  1.00  0.00     0.166 HD
HETATM    7  C   UNL     1     -41.358 -52.374  11.747  1.00  0.00     0.119 C 
ENDROOT
BRANCH   1   8
HETATM    8  N   UNL     1     -39.401 -50.970  12.201  1.00  0.00    -0.308 N 
HETATM    9  C   UNL     1     -38.501 -51.407  13.127  1.00  0.00     0.321 C 
HETATM   10  N   UNL     1     -38.876 -51.987  14.297  1.00  0.00    -0.334 N 
HETATM   11  O   UNL     1     -37.304 -51.172  12.953  1.00  0.00    -0.247 OA
HETATM   12  H   UNL     1     -38.084 -52.283  14.854  1.00  0.00     0.164 HD
HETATM   13  H   UNL     1     -39.015 -50.173  11.699  1.00  0.00     0.170 HD
BRANCH  10  14
HETATM   14  C   UNL     1     -40.194 -52.266  14.849  1.00  0.00     0.227 C 
BRANCH  14  15
HETATM   15  C   UNL     1     -40.659 -53.691  15.136  1.00  0.00     0.236 C 
HETATM   16  N   UNL     1     -41.874 -53.864  15.799  1.00  0.00    -0.359 N 
HETATM   17  C   UNL     1     -42.496 -55.165  15.629  1.00  0.00     0.152 C 
HETATM   18  C   UNL     1     -42.717 -52.758  16.224  1.00  0.00     0.152 C 
HETATM   19  O   UNL     1     -40.064 -54.639  14.617  1.00  0.00    -0.272 OA
ENDBRANCH  14  15
ENDBRANCH  10  14
ENDBRANCH   1   8
BRANCH   4  20
HETATM   20  N   UNL     1     -44.651 -52.286  13.183  1.00  0.00    -0.367 N 
HETATM   21  C   UNL     1     -45.826 -51.431  13.347  1.00  0.00     0.124 C 
HETATM   22  C   UNL     1     -46.532 -51.788  14.656  1.00  0.00     0.020 C 
HETATM   23  C   UNL     1     -46.906 -53.266  14.694  1.00  0.00     0.003 C 
HETATM   24  C   UNL     1     -45.683 -54.140  14.423  1.00  0.00     0.020 C 
HETATM   25  C   UNL     1     -44.947 -53.726  13.141  1.00  0.00     0.124 C 
ENDBRANCH   4  20
TORSDOF 4
ENDMDL
MODEL 7
REMARK VINA RESULT:      -5.8      2.433      4.115
REMARK  4 active torsions:
REMARK  status: ('A' for Active; 'I' for Inactive)
REMARK       I    between atoms: N_2  and  C_4 
REMARK    1  A    between atoms: C_4  and  C_6 
REMARK    2  A    between atoms: C_6  and  N_7 
REMARK       I    between atoms: N_7  and  C_8 
REMARK       I    between atoms: C_8  and  N_10 
REMARK    3  A    between atoms: N_10  and  C_11 
REMARK    4  A    between atoms: C_14  and  N_18 
ROOT
HETATM    1  C   UNL     1     -40.875 -47.491  11.083  1.00  0.00     0.051 C 
HETATM    2  C   UNL     1     -40.062 -48.091  12.030  1.00  0.00     0.035 C 
HETATM    3  C   UNL     1     -40.444 -49.335  12.554  1.00  0.00     0.051 C 
HETATM    4  C   UNL     1     -41.650 -49.942  12.186  1.00  0.00     0.103 C 
HETATM    5  N   UNL     1     -42.510 -49.250  11.401  1.00  0.00    -0.350 N 
ATOM      6  HN  UNL     1     -43.438 -49.623  11.202  1.00  0.00     0.166 HD
HETATM    7  C   UNL     1     -42.126 -48.055  10.880  1.00  0.00     0.119 C 
ENDROOT
BRANCH   1   8
HETATM    8  N   UNL     1     -40.342 -46.488  10.272  1.00  0.00    -0.308 N 
HETATM    9  C   UNL     1     -40.214 -45.152  10.507  1.00  0.00     0.321 C 
HETATM   10  N   UNL     1     -40.798 -44.535  11.567  1.00  0.00    -0.334 N 
HETATM   11  O   UNL     1     -39.638 -44.451   9.672  1.00  0.00    -0.247 OA
HETATM   12  H   UNL     1     -40.575 -43.548  11.612  1.00  0.00     0.164 HD
HETATM   13  H   UNL     1     -40.301 -46.664   9.270  1.00  0.00     0.170 HD
BRANCH  10  14
HETATM   14  C   UNL     1     -41.647 -45.054  12.629  1.00  0.00     0.227 C 
BRANCH  14  15
HETATM   15  C   UNL     1     -41.128 -45.245  14.052  1.00  0.00     0.236 C 
HETATM   16  N   UNL     1     -41.741 -46.210  14.851  1.00  0.00    -0.359 N 
HETATM   17  C   UNL     1     -40.947 -46.686  15.970  1.00  0.00     0.152 C 
HETATM   18  C   UNL     1     -42.842 -47.043  14.395  1.00  0.00     0.152 C 
HETATM   19  O   UNL     1     -40.078 -44.694  14.392  1.00  0.00    -0.272 OA
ENDBRANCH  14  15
ENDBRANCH  10  14
ENDBRANCH   1   8
BRANCH   4  20
HETATM   20  N   UNL     1     -41.939 -51.262  12.490  1.00  0.00    -0.367 N 
HETATM   21  C   UNL     1     -43.200 -51.698  13.088  1.00  0.00     0.124 C 
HETATM   22  C   UNL     1     -42.916 -52.790  14.122  1.00  0.00     0.020 C 
HETATM   23  C   UNL     1     -42.160 -53.957  13.496  1.00  0.00     0.003 C 
HETATM   24  C   UNL     1     -40.896 -53.467  12.792  1.00  0.00     0.020 C 
HETATM   25  C   UNL     1     -41.188 -52.327  11.807  1.00  0.00     0.124 C 
ENDBRANCH   4  20
TORSDOF 4
ENDMDL
MODEL 8
REMARK VINA RESULT:      -5.8      3.022      4.163
REMARK  4 active torsions:
REMARK  status: ('A' for Active; 'I' for Inactive)
REMARK       I    between atoms: N_2  and  C_4 
REMARK    1  A    between atoms: C_4  and  C_6 
REMARK    2  A    between atoms: C_6  and  N_7 
REMARK       I    between atoms: N_7  and  C_8 
REMARK       I    between atoms: C_8  and  N_10 
REMARK    3  A    between atoms: N_10  and  C_11 
REMARK    4  A    between atoms: C_14  and  N_18 
ROOT
HETATM    1  C   UNL     1     -40.390 -50.752  12.479  1.00  0.00     0.051 C 
HETATM    2  C   UNL     1     -40.501 -51.255  13.765  1.00  0.00     0.035 C 
HETATM    3  C   UNL     1     -41.781 -51.430  14.312  1.00  0.00     0.051 C 
HETATM    4  C   UNL     1     -42.931 -51.049  13.611  1.00  0.00     0.103 C 
HETATM    5  N   UNL     1     -42.785 -50.391  12.436  1.00  0.00    -0.350 N 
ATOM      6  HN  UNL     1     -43.601 -50.010  11.956  1.00  0.00     0.166 HD
HETATM    7  C   UNL     1     -41.545 -50.243  11.901  1.00  0.00     0.119 C 
ENDROOT
BRANCH   1   8
HETATM    8  N   UNL     1     -39.199 -50.941  11.779  1.00  0.00    -0.308 N 
HETATM    9  C   UNL     1     -38.071 -50.175  11.752  1.00  0.00     0.321 C 
HETATM   10  N   UNL     1     -38.016 -48.933  12.300  1.00  0.00    -0.334 N 
HETATM   11  O   UNL     1     -37.094 -50.572  11.114  1.00  0.00    -0.247 OA
HETATM   12  H   UNL     1     -37.096 -48.517  12.223  1.00  0.00     0.164 HD
HETATM   13  H   UNL     1     -39.225 -51.538  10.954  1.00  0.00     0.170 HD
BRANCH  10  14
HETATM   14  C   UNL     1     -39.028 -48.141  12.982  1.00  0.00     0.227 C 
BRANCH  14  15
HETATM   15  C   UNL     1     -39.740 -46.981  12.291  1.00  0.00     0.236 C 
HETATM   16  N   UNL     1     -39.711 -45.731  12.908  1.00  0.00    -0.359 N 
HETATM   17  C   UNL     1     -39.960 -44.599  12.032  1.00  0.00     0.152 C 
HETATM   18  C   UNL     1     -39.033 -45.478  14.169  1.00  0.00     0.152 C 
HETATM   19  O   UNL     1     -40.150 -47.124  11.136  1.00  0.00    -0.272 OA
ENDBRANCH  14  15
ENDBRANCH  10  14
ENDBRANCH   1   8
BRANCH   4  20
HETATM   20  N   UNL     1     -44.202 -51.426  14.012  1.00  0.00    -0.367 N 
HETATM   21  C   UNL     1     -45.162 -52.097  13.136  1.00  0.00     0.124 C 
HETATM   22  C   UNL     1     -46.561 -51.539  13.399  1.00  0.00     0.020 C 
HETATM   23  C   UNL     1     -46.945 -51.687  14.868  1.00  0.00     0.003 C 
HETATM   24  C   UNL     1     -45.881 -51.066  15.770  1.00  0.00     0.020 C 
HETATM   25  C   UNL     1     -44.473 -51.587  15.449  1.00  0.00     0.124 C 
ENDBRANCH   4  20
TORSDOF 4
ENDMDL
MODEL 9
REMARK VINA RESULT:      -5.7      3.356      7.846
REMARK  4 active torsions:
REMARK  status: ('A' for Active; 'I' for Inactive)
REMARK       I    between atoms: N_2  and  C_4 
REMARK    1  A    between atoms: C_4  and  C_6 
REMARK    2  A    between atoms: C_6  and  N_7 
REMARK       I    between atoms: N_7  and  C_8 
REMARK       I    between atoms: C_8  and  N_10 
REMARK    3  A    between atoms: N_10  and  C_11 
REMARK    4  A    between atoms: C_14  and  N_18 
ROOT
HETATM    1  C   UNL     1     -43.349 -52.304  12.707  1.00  0.00     0.051 C 
HETATM    2  C   UNL     1     -43.695 -51.100  13.299  1.00  0.00     0.035 C 
HETATM    3  C   UNL     1     -42.939 -49.958  12.996  1.00  0.00     0.051 C 
HETATM    4  C   UNL     1     -41.816 -50.028  12.164  1.00  0.00     0.103 C 
HETATM    5  N   UNL     1     -41.393 -51.245  11.748  1.00  0.00    -0.350 N 
ATOM      6  HN  UNL     1     -40.520 -51.336  11.228  1.00  0.00     0.166 HD
HETATM    7  C   UNL     1     -42.140 -52.345  12.027  1.00  0.00     0.119 C 
ENDROOT
BRANCH   1   8
HETATM    8  N   UNL     1     -44.289 -53.333  12.669  1.00  0.00    -0.308 N 
HETATM    9  C   UNL     1     -44.477 -54.376  13.526  1.00  0.00     0.321 C 
HETATM   10  N   UNL     1     -43.592 -54.685  14.509  1.00  0.00    -0.334 N 
HETATM   11  O   UNL     1     -45.427 -55.139  13.340  1.00  0.00    -0.247 OA
HETATM   12  H   UNL     1     -43.899 -55.466  15.076  1.00  0.00     0.164 HD
HETATM   13  H   UNL     1     -44.716 -53.550  11.770  1.00  0.00     0.170 HD
BRANCH  10  14
HETATM   14  C   UNL     1     -42.324 -54.076  14.883  1.00  0.00     0.227 C 
BRANCH  14  15
HETATM   15  C   UNL     1     -41.275 -54.835  15.691  1.00  0.00     0.236 C 
HETATM   16  N   UNL     1     -39.976 -54.896  15.187  1.00  0.00    -0.359 N 
HETATM   17  C   UNL     1     -38.942 -55.187  16.166  1.00  0.00     0.152 C 
HETATM   18  C   UNL     1     -39.572 -54.270  13.938  1.00  0.00     0.152 C 
HETATM   19  O   UNL     1     -41.543 -55.204  16.837  1.00  0.00    -0.272 OA
ENDBRANCH  14  15
ENDBRANCH  10  14
ENDBRANCH   1   8
BRANCH   4  20
HETATM   20  N   UNL     1     -41.200 -48.897  11.653  1.00  0.00    -0.367 N 
HETATM   21  C   UNL     1     -39.807 -48.542  11.921  1.00  0.00     0.124 C 
HETATM   22  C   UNL     1     -39.702 -47.029  12.121  1.00  0.00     0.020 C 
HETATM   23  C   UNL     1     -40.250 -46.274  10.914  1.00  0.00     0.003 C 
HETATM   24  C   UNL     1     -41.671 -46.731  10.591  1.00  0.00     0.020 C 
HETATM   25  C   UNL     1     -41.774 -48.257  10.459  1.00  0.00     0.124 C 
ENDBRANCH   4  20
TORSDOF 4
ENDMDL
