MODEL 1
REMARK VINA RESULT:      -6.0      0.000      0.000
REMARK  3 active torsions:
REMARK  status: ('A' for Active; 'I' for Inactive)
REMARK    1  A    between atoms: C_2  and  N_3 
REMARK       I    between atoms: N_3  and  C_4 
REMARK       I    between atoms: C_4  and  N_6 
REMARK    2  A    between atoms: N_6  and  C_7 
REMARK    3  A    between atoms: C_10  and  N_14 
ROOT
HETATM    1  C   UNL     1     -42.767 -51.264  13.029  1.00  0.00     0.051 A 
HETATM    2  C   UNL     1     -43.387 -50.048  13.247  1.00  0.00     0.035 A 
HETATM    3  C   UNL     1     -43.043 -48.932  12.481  1.00  0.00     0.051 A 
HETATM    4  C   UNL     1     -42.070 -49.013  11.490  1.00  0.00     0.103 A 
HETATM    5  N   UNL     1     -41.421 -50.186  11.313  1.00  0.00    -0.350 N 
ATOM      6  HN  UNL     1     -40.681 -50.263  10.615  1.00  0.00     0.166 HD
HETATM    7  C   UNL     1     -41.762 -51.266  12.074  1.00  0.00     0.119 A 
ENDROOT
BRANCH   1   8
HETATM    8  N   UNL     1     -43.127 -52.444  13.719  1.00  0.00    -0.308 N 
HETATM    9  C   UNL     1     -44.166 -53.268  13.339  1.00  0.00     0.320 C 
HETATM   10  N   UNL     1     -44.332 -54.331  14.207  1.00  0.00    -0.343 N 
HETATM   11  O   UNL     1     -44.870 -53.138  12.344  1.00  0.00    -0.247 OA
HETATM   12  H   UNL     1     -44.196 -54.097  15.180  1.00  0.00     0.164 HD
HETATM   13  H   UNL     1     -42.434 -52.870  14.315  1.00  0.00     0.170 HD
BRANCH  10  14
HETATM   14  C   UNL     1     -45.402 -55.265  13.901  1.00  0.00     0.120 C 
HETATM   15  C   UNL     1     -46.706 -54.912  14.582  1.00  0.00     0.026 C 
ENDBRANCH  10  14
ENDBRANCH   1   8
BRANCH   4  16
HETATM   16  N   UNL     1     -41.733 -47.934  10.704  1.00  0.00    -0.362 N 
HETATM   17  C   UNL     1     -40.597 -47.034  10.939  1.00  0.00     0.156 C 
HETATM   18  C   UNL     1     -41.106 -45.614  11.259  1.00  0.00     0.136 C 
HETATM   19  C   UNL     1     -39.940 -44.646  11.414  1.00  0.00     0.041 C 
HETATM   20  O   UNL     1     -41.943 -45.127  10.194  1.00  0.00    -0.378 OA
HETATM   21  C   UNL     1     -43.089 -45.985  10.014  1.00  0.00     0.136 C 
HETATM   22  C   UNL     1     -43.919 -45.384   8.887  1.00  0.00     0.041 C 
HETATM   23  C   UNL     1     -42.667 -47.438   9.681  1.00  0.00     0.156 C 
ENDBRANCH   4  16
TORSDOF 3
ENDMDL
MODEL 2
REMARK VINA RESULT:      -5.9      3.333      8.564
REMARK  3 active torsions:
REMARK  status: ('A' for Active; 'I' for Inactive)
REMARK    1  A    between atoms: C_2  and  N_3 
REMARK       I    between atoms: N_3  and  C_4 
REMARK       I    between atoms: C_4  and  N_6 
REMARK    2  A    between atoms: N_6  and  C_7 
REMARK    3  A    between atoms: C_10  and  N_14 
ROOT
HETATM    1  C   UNL     1     -39.629 -49.706  11.848  1.00  0.00     0.051 A 
HETATM    2  C   UNL     1     -38.885 -50.130  12.933  1.00  0.00     0.035 A 
HETATM    3  C   UNL     1     -39.081 -51.405  13.468  1.00  0.00     0.051 A 
HETATM    4  C   UNL     1     -40.027 -52.272  12.932  1.00  0.00     0.103 A 
HETATM    5  N   UNL     1     -40.797 -51.839  11.907  1.00  0.00    -0.350 N 
ATOM      6  HN  UNL     1     -41.519 -52.443  11.517  1.00  0.00     0.166 HD
HETATM    7  C   UNL     1     -40.599 -50.588  11.400  1.00  0.00     0.119 A 
ENDROOT
BRANCH   1   8
HETATM    8  N   UNL     1     -39.423 -48.458  11.216  1.00  0.00    -0.308 N 
HETATM    9  C   UNL     1     -40.311 -47.405  11.288  1.00  0.00     0.320 C 
HETATM   10  N   UNL     1     -39.889 -46.317  10.547  1.00  0.00    -0.343 N 
HETATM   11  O   UNL     1     -41.349 -47.373  11.940  1.00  0.00    -0.247 OA
HETATM   12  H   UNL     1     -39.453 -46.556   9.669  1.00  0.00     0.164 HD
HETATM   13  H   UNL     1     -38.479 -48.210  10.963  1.00  0.00     0.170 HD
BRANCH  10  14
HETATM   14  C   UNL     1     -40.752 -45.148  10.553  1.00  0.00     0.120 C 
HETATM   15  C   UNL     1     -40.145 -43.970  11.283  1.00  0.00     0.026 C 
ENDBRANCH  10  14
ENDBRANCH   1   8
BRANCH   4  16
HETATM   16  N   UNL     1     -40.219 -53.544  13.425  1.00  0.00    -0.362 N 
HETATM   17  C   UNL     1     -41.524 -54.181  13.646  1.00  0.00     0.156 C 
HETATM   18  C   UNL     1     -41.738 -54.435  15.151  1.00  0.00     0.136 C 
HETATM   19  C   UNL     1     -43.046 -55.180  15.390  1.00  0.00     0.041 C 
HETATM   20  O   UNL     1     -40.671 -55.241  15.684  1.00  0.00    -0.378 OA
HETATM   21  C   UNL     1     -39.400 -54.577  15.517  1.00  0.00     0.136 C 
HETATM   22  C   UNL     1     -38.342 -55.490  16.121  1.00  0.00     0.041 C 
HETATM   23  C   UNL     1     -39.100 -54.286  14.025  1.00  0.00     0.156 C 
ENDBRANCH   4  16
TORSDOF 3
ENDMDL
MODEL 3
REMARK VINA RESULT:      -5.7      2.326      8.175
REMARK  3 active torsions:
REMARK  status: ('A' for Active; 'I' for Inactive)
REMARK    1  A    between atoms: C_2  and  N_3 
REMARK       I    between atoms: N_3  and  C_4 
REMARK       I    between atoms: C_4  and  N_6 
REMARK    2  A    between atoms: N_6  and  C_7 
REMARK    3  A    between atoms: C_10  and  N_14 
ROOT
HETATM    1  C   UNL     1     -41.331 -48.977  11.082  1.00  0.00     0.051 A 
HETATM    2  C   UNL     1     -42.317 -49.263  12.006  1.00  0.00     0.035 A 
HETATM    3  C   UNL     1     -42.341 -50.500  12.653  1.00  0.00     0.051 A 
HETATM    4  C   UNL     1     -41.384 -51.472  12.382  1.00  0.00     0.103 A 
HETATM    5  N   UNL     1     -40.451 -51.217  11.435  1.00  0.00    -0.350 N 
ATOM      6  HN  UNL     1     -39.758 -51.924  11.194  1.00  0.00     0.166 HD
HETATM    7  C   UNL     1     -40.445 -50.006  10.806  1.00  0.00     0.119 A 
ENDROOT
BRANCH   1   8
HETATM    8  N   UNL     1     -41.210 -47.716  10.453  1.00  0.00    -0.308 N 
HETATM    9  C   UNL     1     -40.445 -46.681  10.949  1.00  0.00     0.320 C 
HETATM   10  N   UNL     1     -40.534 -45.546  10.166  1.00  0.00    -0.343 N 
HETATM   11  O   UNL     1     -39.730 -46.719  11.944  1.00  0.00    -0.247 OA
HETATM   12  H   UNL     1     -41.456 -45.366   9.797  1.00  0.00     0.164 HD
HETATM   13  H   UNL     1     -41.430 -47.658   9.470  1.00  0.00     0.170 HD
BRANCH  10  14
HETATM   14  C   UNL     1     -39.764 -44.391  10.597  1.00  0.00     0.120 C 
HETATM   15  C   UNL     1     -40.620 -43.313  11.225  1.00  0.00     0.026 C 
ENDBRANCH  10  14
ENDBRANCH   1   8
BRANCH   4  16
HETATM   16  N   UNL     1     -41.371 -52.689  13.026  1.00  0.00    -0.362 N 
HETATM   17  C   UNL     1     -42.481 -53.649  13.051  1.00  0.00     0.156 C 
HETATM   18  C   UNL     1     -43.012 -53.803  14.491  1.00  0.00     0.136 C 
HETATM   19  C   UNL     1     -44.103 -54.865  14.551  1.00  0.00     0.041 C 
HETATM   20  O   UNL     1     -41.954 -54.210  15.378  1.00  0.00    -0.378 OA
HETATM   21  C   UNL     1     -40.896 -53.229  15.392  1.00  0.00     0.136 C 
HETATM   22  C   UNL     1     -39.838 -53.733  16.364  1.00  0.00     0.041 C 
HETATM   23  C   UNL     1     -40.297 -53.014  13.979  1.00  0.00     0.156 C 
ENDBRANCH   4  16
TORSDOF 3
ENDMDL
MODEL 4
REMARK VINA RESULT:      -5.6      2.066      8.161
REMARK  3 active torsions:
REMARK  status: ('A' for Active; 'I' for Inactive)
REMARK    1  A    between atoms: C_2  and  N_3 
REMARK       I    between atoms: N_3  and  C_4 
REMARK       I    between atoms: C_4  and  N_6 
REMARK    2  A    between atoms: N_6  and  C_7 
REMARK    3  A    between atoms: C_10  and  N_14 
ROOT
HETATM    1  C   UNL     1     -41.615 -49.015  11.652  1.00  0.00     0.051 A 
HETATM    2  C   UNL     1     -40.806 -50.122  11.827  1.00  0.00     0.035 A 
HETATM    3  C   UNL     1     -41.193 -51.149  12.691  1.00  0.00     0.051 A 
HETATM    4  C   UNL     1     -42.389 -51.082  13.397  1.00  0.00     0.103 A 
HETATM    5  N   UNL     1     -43.155 -49.974  13.273  1.00  0.00    -0.350 N 
ATOM      6  HN  UNL     1     -44.020 -49.886  13.805  1.00  0.00     0.166 HD
HETATM    7  C   UNL     1     -42.760 -48.975  12.431  1.00  0.00     0.119 A 
ENDROOT
BRANCH   1   8
HETATM    8  N   UNL     1     -41.314 -47.982  10.735  1.00  0.00    -0.308 N 
HETATM    9  C   UNL     1     -40.499 -46.908  11.029  1.00  0.00     0.320 C 
HETATM   10  N   UNL     1     -40.404 -46.023   9.972  1.00  0.00    -0.343 N 
HETATM   11  O   UNL     1     -39.885 -46.727  12.074  1.00  0.00    -0.247 OA
HETATM   12  H   UNL     1     -41.267 -45.885   9.466  1.00  0.00     0.164 HD
HETATM   13  H   UNL     1     -41.436 -48.175   9.753  1.00  0.00     0.170 HD
BRANCH  10  14
HETATM   14  C   UNL     1     -39.567 -44.852  10.173  1.00  0.00     0.120 C 
HETATM   15  C   UNL     1     -38.650 -44.574   9.002  1.00  0.00     0.026 C 
ENDBRANCH  10  14
ENDBRANCH   1   8
BRANCH   4  16
HETATM   16  N   UNL     1     -42.804 -52.094  14.235  1.00  0.00    -0.362 N 
HETATM   17  C   UNL     1     -41.950 -52.811  15.190  1.00  0.00     0.156 C 
HETATM   18  C   UNL     1     -41.830 -54.293  14.781  1.00  0.00     0.136 C 
HETATM   19  C   UNL     1     -41.024 -55.072  15.813  1.00  0.00     0.041 C 
HETATM   20  O   UNL     1     -43.133 -54.899  14.694  1.00  0.00    -0.378 OA
HETATM   21  C   UNL     1     -43.942 -54.225  13.707  1.00  0.00     0.136 C 
HETATM   22  C   UNL     1     -45.286 -54.942  13.673  1.00  0.00     0.041 C 
HETATM   23  C   UNL     1     -44.121 -52.723  14.044  1.00  0.00     0.156 C 
ENDBRANCH   4  16
TORSDOF 3
ENDMDL
MODEL 5
REMARK VINA RESULT:      -5.6      2.670      7.858
REMARK  3 active torsions:
REMARK  status: ('A' for Active; 'I' for Inactive)
REMARK    1  A    between atoms: C_2  and  N_3 
REMARK       I    between atoms: N_3  and  C_4 
REMARK       I    between atoms: C_4  and  N_6 
REMARK    2  A    between atoms: N_6  and  C_7 
REMARK    3  A    between atoms: C_10  and  N_14 
ROOT
HETATM    1  C   UNL     1     -42.695 -47.128  11.050  1.00  0.00     0.051 A 
HETATM    2  C   UNL     1     -43.035 -47.750  12.237  1.00  0.00     0.035 A 
HETATM    3  C   UNL     1     -42.462 -48.976  12.580  1.00  0.00     0.051 A 
HETATM    4  C   UNL     1     -41.546 -49.602  11.742  1.00  0.00     0.103 A 
HETATM    5  N   UNL     1     -41.254 -49.024  10.554  1.00  0.00    -0.350 N 
ATOM      6  HN  UNL     1     -40.610 -49.478   9.907  1.00  0.00     0.166 HD
HETATM    7  C   UNL     1     -41.828 -47.830  10.228  1.00  0.00     0.119 A 
ENDROOT
BRANCH   1   8
HETATM    8  N   UNL     1     -43.183 -45.852  10.685  1.00  0.00    -0.308 N 
HETATM    9  C   UNL     1     -42.617 -44.666  11.103  1.00  0.00     0.320 C 
HETATM   10  N   UNL     1     -43.311 -43.565  10.638  1.00  0.00    -0.343 N 
HETATM   11  O   UNL     1     -41.603 -44.544  11.782  1.00  0.00    -0.247 OA
HETATM   12  H   UNL     1     -44.314 -43.678  10.633  1.00  0.00     0.164 HD
HETATM   13  H   UNL     1     -43.760 -45.788   9.861  1.00  0.00     0.170 HD
BRANCH  10  14
HETATM   14  C   UNL     1     -42.800 -42.259  11.019  1.00  0.00     0.120 C 
HETATM   15  C   UNL     1     -43.659 -41.569  12.055  1.00  0.00     0.026 C 
ENDBRANCH  10  14
ENDBRANCH   1   8
BRANCH   4  16
HETATM   16  N   UNL     1     -40.947 -50.798  12.072  1.00  0.00    -0.362 N 
HETATM   17  C   UNL     1     -41.580 -52.119  11.977  1.00  0.00     0.156 C 
HETATM   18  C   UNL     1     -41.730 -52.733  13.384  1.00  0.00     0.136 C 
HETATM   19  C   UNL     1     -42.300 -54.143  13.297  1.00  0.00     0.041 C 
HETATM   20  O   UNL     1     -40.450 -52.816  14.037  1.00  0.00    -0.378 OA
HETATM   21  C   UNL     1     -39.866 -51.505  14.180  1.00  0.00     0.136 C 
HETATM   22  C   UNL     1     -38.533 -51.690  14.893  1.00  0.00     0.041 C 
HETATM   23  C   UNL     1     -39.673 -50.813  12.807  1.00  0.00     0.156 C 
ENDBRANCH   4  16
TORSDOF 3
ENDMDL
MODEL 6
REMARK VINA RESULT:      -5.6      2.858      3.227
REMARK  3 active torsions:
REMARK  status: ('A' for Active; 'I' for Inactive)
REMARK    1  A    between atoms: C_2  and  N_3 
REMARK       I    between atoms: N_3  and  C_4 
REMARK       I    between atoms: C_4  and  N_6 
REMARK    2  A    between atoms: N_6  and  C_7 
REMARK    3  A    between atoms: C_10  and  N_14 
ROOT
HETATM    1  C   UNL     1     -40.966 -50.811  13.376  1.00  0.00     0.051 A 
HETATM    2  C   UNL     1     -40.099 -49.742  13.499  1.00  0.00     0.035 A 
HETATM    3  C   UNL     1     -40.174 -48.667  12.610  1.00  0.00     0.051 A 
HETATM    4  C   UNL     1     -41.111 -48.648  11.583  1.00  0.00     0.103 A 
HETATM    5  N   UNL     1     -41.923 -49.719  11.425  1.00  0.00    -0.350 N 
ATOM      6  HN  UNL     1     -42.597 -49.744  10.660  1.00  0.00     0.166 HD
HETATM    7  C   UNL     1     -41.833 -50.765  12.296  1.00  0.00     0.119 A 
ENDROOT
BRANCH   1   8
HETATM    8  N   UNL     1     -40.989 -51.890  14.291  1.00  0.00    -0.308 N 
HETATM    9  C   UNL     1     -40.125 -52.963  14.233  1.00  0.00     0.320 C 
HETATM   10  N   UNL     1     -40.388 -53.896  15.218  1.00  0.00    -0.343 N 
HETATM   11  O   UNL     1     -39.198 -53.108  13.443  1.00  0.00    -0.247 OA
HETATM   12  H   UNL     1     -41.370 -54.042  15.402  1.00  0.00     0.164 HD
HETATM   13  H   UNL     1     -41.430 -51.738  15.185  1.00  0.00     0.170 HD
BRANCH  10  14
HETATM   14  C   UNL     1     -39.534 -55.072  15.250  1.00  0.00     0.120 C 
HETATM   15  C   UNL     1     -38.468 -54.998  16.321  1.00  0.00     0.026 C 
ENDBRANCH  10  14
ENDBRANCH   1   8
BRANCH   4  16
HETATM   16  N   UNL     1     -41.223 -47.588  10.710  1.00  0.00    -0.362 N 
HETATM   17  C   UNL     1     -40.473 -46.329  10.804  1.00  0.00     0.156 C 
HETATM   18  C   UNL     1     -41.440 -45.159  11.078  1.00  0.00     0.136 C 
HETATM   19  C   UNL     1     -40.691 -43.833  11.086  1.00  0.00     0.041 C 
HETATM   20  O   UNL     1     -42.449 -45.088  10.054  1.00  0.00    -0.378 OA
HETATM   21  C   UNL     1     -43.219 -46.307  10.013  1.00  0.00     0.136 C 
HETATM   22  C   UNL     1     -44.266 -46.133   8.920  1.00  0.00     0.041 C 
HETATM   23  C   UNL     1     -42.323 -47.540   9.735  1.00  0.00     0.156 C 
ENDBRANCH   4  16
TORSDOF 3
ENDMDL
MODEL 7
REMARK VINA RESULT:      -5.5      4.181      6.947
REMARK  3 active torsions:
REMARK  status: ('A' for Active; 'I' for Inactive)
REMARK    1  A    between atoms: C_2  and  N_3 
REMARK       I    between atoms: N_3  and  C_4 
REMARK       I    between atoms: C_4  and  N_6 
REMARK    2  A    between atoms: N_6  and  C_7 
REMARK    3  A    between atoms: C_10  and  N_14 
ROOT
HETATM    1  C   UNL     1     -40.987 -48.495  10.968  1.00  0.00     0.051 A 
HETATM    2  C   UNL     1     -40.182 -47.542  11.563  1.00  0.00     0.035 A 
HETATM    3  C   UNL     1     -39.280 -47.907  12.565  1.00  0.00     0.051 A 
HETATM    4  C   UNL     1     -39.173 -49.226  12.992  1.00  0.00     0.103 A 
HETATM    5  N   UNL     1     -40.001 -50.151  12.452  1.00  0.00    -0.350 N 
ATOM      6  HN  UNL     1     -39.966 -51.119  12.770  1.00  0.00     0.166 HD
HETATM    7  C   UNL     1     -40.882 -49.779  11.480  1.00  0.00     0.119 A 
ENDROOT
BRANCH   1   8
HETATM    8  N   UNL     1     -41.863 -48.200   9.897  1.00  0.00    -0.308 N 
HETATM    9  C   UNL     1     -43.132 -47.688  10.064  1.00  0.00     0.320 C 
HETATM   10  N   UNL     1     -43.792 -47.531   8.860  1.00  0.00    -0.343 N 
HETATM   11  O   UNL     1     -43.652 -47.364  11.126  1.00  0.00    -0.247 OA
HETATM   12  H   UNL     1     -43.624 -48.272   8.194  1.00  0.00     0.164 HD
HETATM   13  H   UNL     1     -41.459 -48.064   8.984  1.00  0.00     0.170 HD
BRANCH  10  14
HETATM   14  C   UNL     1     -45.142 -46.996   8.918  1.00  0.00     0.120 C 
HETATM   15  C   UNL     1     -46.206 -48.061   8.770  1.00  0.00     0.026 C 
ENDBRANCH  10  14
ENDBRANCH   1   8
BRANCH   4  16
HETATM   16  N   UNL     1     -38.273 -49.615  13.959  1.00  0.00    -0.362 N 
HETATM   17  C   UNL     1     -38.217 -50.942  14.584  1.00  0.00     0.156 C 
HETATM   18  C   UNL     1     -38.552 -50.832  16.085  1.00  0.00     0.136 C 
HETATM   19  C   UNL     1     -38.408 -52.186  16.769  1.00  0.00     0.041 C 
HETATM   20  O   UNL     1     -37.654 -49.914  16.736  1.00  0.00    -0.378 OA
HETATM   21  C   UNL     1     -37.763 -48.598  16.154  1.00  0.00     0.136 C 
HETATM   22  C   UNL     1     -36.797 -47.698  16.914  1.00  0.00     0.041 C 
HETATM   23  C   UNL     1     -37.436 -48.614  14.640  1.00  0.00     0.156 C 
ENDBRANCH   4  16
TORSDOF 3
ENDMDL
MODEL 8
REMARK VINA RESULT:      -5.5      2.705      3.684
REMARK  3 active torsions:
REMARK  status: ('A' for Active; 'I' for Inactive)
REMARK    1  A    between atoms: C_2  and  N_3 
REMARK       I    between atoms: N_3  and  C_4 
REMARK       I    between atoms: C_4  and  N_6 
REMARK    2  A    between atoms: N_6  and  C_7 
REMARK    3  A    between atoms: C_10  and  N_14 
ROOT
HETATM    1  C   UNL     1     -40.551 -49.474  11.280  1.00  0.00     0.051 A 
HETATM    2  C   UNL     1     -39.485 -48.864  11.914  1.00  0.00     0.035 A 
HETATM    3  C   UNL     1     -39.474 -47.481  12.103  1.00  0.00     0.051 A 
HETATM    4  C   UNL     1     -40.523 -46.685  11.657  1.00  0.00     0.103 A 
HETATM    5  N   UNL     1     -41.541 -47.271  10.984  1.00  0.00    -0.350 N 
ATOM      6  HN  UNL     1     -42.307 -46.707  10.618  1.00  0.00     0.166 HD
HETATM    7  C   UNL     1     -41.534 -48.623  10.800  1.00  0.00     0.119 A 
ENDROOT
BRANCH   1   8
HETATM    8  N   UNL     1     -40.654 -50.876  11.128  1.00  0.00    -0.308 N 
HETATM    9  C   UNL     1     -40.802 -51.753  12.183  1.00  0.00     0.320 C 
HETATM   10  N   UNL     1     -40.836 -53.069  11.764  1.00  0.00    -0.343 N 
HETATM   11  O   UNL     1     -40.923 -51.453  13.365  1.00  0.00    -0.247 OA
HETATM   12  H   UNL     1     -40.200 -53.282  11.009  1.00  0.00     0.164 HD
HETATM   13  H   UNL     1     -40.937 -51.232  10.228  1.00  0.00     0.170 HD
BRANCH  10  14
HETATM   14  C   UNL     1     -40.990 -54.081  12.796  1.00  0.00     0.120 C 
HETATM   15  C   UNL     1     -42.421 -54.237  13.260  1.00  0.00     0.026 C 
ENDBRANCH  10  14
ENDBRANCH   1   8
BRANCH   4  16
HETATM   16  N   UNL     1     -40.548 -45.322  11.855  1.00  0.00    -0.362 N 
HETATM   17  C   UNL     1     -40.029 -44.627  13.040  1.00  0.00     0.156 C 
HETATM   18  C   UNL     1     -41.186 -43.946  13.799  1.00  0.00     0.136 C 
HETATM   19  C   UNL     1     -40.655 -43.142  14.979  1.00  0.00     0.041 C 
HETATM   20  O   UNL     1     -41.892 -43.039  12.933  1.00  0.00    -0.378 OA
HETATM   21  C   UNL     1     -42.450 -43.744  11.804  1.00  0.00     0.136 C 
HETATM   22  C   UNL     1     -43.188 -42.714  10.960  1.00  0.00     0.041 C 
HETATM   23  C   UNL     1     -41.351 -44.457  10.977  1.00  0.00     0.156 C 
ENDBRANCH   4  16
TORSDOF 3
ENDMDL
MODEL 9
REMARK VINA RESULT:      -5.4      4.818      7.029
REMARK  3 active torsions:
REMARK  status: ('A' for Active; 'I' for Inactive)
REMARK    1  A    between atoms: C_2  and  N_3 
REMARK       I    between atoms: N_3  and  C_4 
REMARK       I    between atoms: C_4  and  N_6 
REMARK    2  A    between atoms: N_6  and  C_7 
REMARK    3  A    between atoms: C_10  and  N_14 
ROOT
HETATM    1  C   UNL     1     -40.976 -45.751  10.910  1.00  0.00     0.051 A 
HETATM    2  C   UNL     1     -40.120 -44.681  10.736  1.00  0.00     0.035 A 
HETATM    3  C   UNL     1     -40.517 -43.392  11.100  1.00  0.00     0.051 A 
HETATM    4  C   UNL     1     -41.777 -43.154  11.638  1.00  0.00     0.103 A 
HETATM    5  N   UNL     1     -42.639 -44.190  11.756  1.00  0.00    -0.350 N 
ATOM      6  HN  UNL     1     -43.580 -44.037  12.116  1.00  0.00     0.166 HD
HETATM    7  C   UNL     1     -42.240 -45.442  11.388  1.00  0.00     0.119 A 
ENDROOT
BRANCH   1   8
HETATM    8  N   UNL     1     -40.603 -47.087  10.632  1.00  0.00    -0.308 N 
HETATM    9  C   UNL     1     -39.914 -47.890  11.516  1.00  0.00     0.320 C 
HETATM   10  N   UNL     1     -39.638 -49.135  10.982  1.00  0.00    -0.343 N 
HETATM   11  O   UNL     1     -39.588 -47.598  12.661  1.00  0.00    -0.247 OA
HETATM   12  H   UNL     1     -39.387 -49.121  10.004  1.00  0.00     0.164 HD
HETATM   13  H   UNL     1     -41.106 -47.574   9.907  1.00  0.00     0.170 HD
BRANCH  10  14
HETATM   14  C   UNL     1     -38.914 -50.066  11.831  1.00  0.00     0.120 C 
HETATM   15  C   UNL     1     -37.451 -50.184  11.464  1.00  0.00     0.026 C 
ENDBRANCH  10  14
ENDBRANCH   1   8
BRANCH   4  16
HETATM   16  N   UNL     1     -42.182 -41.897  12.030  1.00  0.00    -0.362 N 
HETATM   17  C   UNL     1     -43.539 -41.537  12.458  1.00  0.00     0.156 C 
HETATM   18  C   UNL     1     -44.162 -40.544  11.456  1.00  0.00     0.136 C 
HETATM   19  C   UNL     1     -45.535 -40.088  11.935  1.00  0.00     0.041 C 
HETATM   20  O   UNL     1     -43.333 -39.375  11.323  1.00  0.00    -0.378 OA
HETATM   21  C   UNL     1     -42.021 -39.734  10.842  1.00  0.00     0.136 C 
HETATM   22  C   UNL     1     -41.226 -38.441  10.716  1.00  0.00     0.041 C 
HETATM   23  C   UNL     1     -41.316 -40.730  11.797  1.00  0.00     0.156 C 
ENDBRANCH   4  16
TORSDOF 3
ENDMDL
