MODEL 1
REMARK VINA RESULT:      -6.9      0.000      0.000
REMARK  8 active torsions:
REMARK  status: ('A' for Active; 'I' for Inactive)
REMARK    1  A    between atoms: N_8  and  C_9 
REMARK    2  A    between atoms: C_9  and  C_10 
REMARK    3  A    between atoms: C_10  and  O_11 
REMARK    4  A    between atoms: C_10  and  C_12 
REMARK    5  A    between atoms: C_12  and  N_13 
REMARK    6  A    between atoms: N_13  and  C_14 
REMARK    7  A    between atoms: C_14  and  C_15 
REMARK    8  A    between atoms: C_15  and  N_16 
ROOT
HETATM    1  C   UNL     1     -40.406 -50.052  11.664  1.00  0.00     0.164 C 
ENDROOT
BRANCH   1   2
HETATM    2  C   UNL     1     -41.833 -50.195  12.214  1.00  0.00     0.163 C 
BRANCH   2   3
HETATM    3  N   UNL     1     -42.190 -51.580  12.455  1.00  0.00    -0.339 N 
HETATM    4  C   UNL     1     -41.389 -52.653  12.179  1.00  0.00     0.184 A 
HETATM    5  N   UNL     1     -41.957 -53.782  12.527  1.00  0.00    -0.350 N 
HETATM    6  C   UNL     1     -43.172 -53.422  13.054  1.00  0.00     0.060 A 
ATOM      7  HN  UNL     1     -41.578 -54.724  12.427  1.00  0.00     0.166 HD
HETATM    8  C   UNL     1     -44.177 -54.230  13.605  1.00  0.00     0.039 A 
HETATM    9  C   UNL     1     -43.358 -52.044  13.005  1.00  0.00     0.062 A 
HETATM   10  C   UNL     1     -45.358 -53.638  14.093  1.00  0.00    -0.054 A 
HETATM   11  C   UNL     1     -46.413 -54.528  14.693  1.00  0.00     0.049 C 
HETATM   12  C   UNL     1     -45.530 -52.239  14.019  1.00  0.00    -0.054 A 
HETATM   13  C   UNL     1     -44.524 -51.421  13.463  1.00  0.00     0.039 A 
HETATM   14  C   UNL     1     -46.785 -51.586  14.539  1.00  0.00     0.049 C 
ENDBRANCH   2   3
ENDBRANCH   1   2
BRANCH   1  15
HETATM   15  O   UNL     1     -40.408 -50.035  10.229  1.00  0.00    -0.392 OA
HETATM   16  H   UNL     1     -40.006 -50.856   9.900  1.00  0.00     0.210 HD
ENDBRANCH   1  15
BRANCH   1  17
HETATM   17  C   UNL     1     -39.740 -48.752  12.153  1.00  0.00     0.302 C 
BRANCH  17  18
HETATM   18  N   UNL     1     -39.425 -47.834  11.053  1.00  0.00     0.087 N 
HETATM   19  H   UNL     1     -39.699 -48.279  10.172  1.00  0.00     0.316 HD
BRANCH  18  20
HETATM   20  C   UNL     1     -40.169 -46.565  11.158  1.00  0.00     0.291 C 
BRANCH  20  21
HETATM   21  C   UNL     1     -41.663 -46.732  11.445  1.00  0.00     0.178 C 
BRANCH  21  22
HETATM   22  N   UNL     1     -42.433 -46.791  10.219  1.00  0.00    -0.302 N 
HETATM   23  C   UNL     1     -43.214 -45.803   9.692  1.00  0.00     0.111 A 
HETATM   24  C   UNL     1     -43.769 -46.330   8.550  1.00  0.00     0.037 A 
HETATM   25  C   UNL     1     -43.258 -47.639   8.476  1.00  0.00     0.108 A 
HETATM   26  N   UNL     1     -42.436 -47.921   9.490  1.00  0.00    -0.310 N 
ATOM     27  HN  UNL     1     -41.931 -48.789   9.669  1.00  0.00     0.186 HD
ENDBRANCH  21  22
ENDBRANCH  20  21
ENDBRANCH  18  20
ENDBRANCH  17  18
ENDBRANCH   1  17
TORSDOF 8
ENDMDL
MODEL 2
REMARK VINA RESULT:      -6.6      1.997      2.556
REMARK  8 active torsions:
REMARK  status: ('A' for Active; 'I' for Inactive)
REMARK    1  A    between atoms: N_8  and  C_9 
REMARK    2  A    between atoms: C_9  and  C_10 
REMARK    3  A    between atoms: C_10  and  O_11 
REMARK    4  A    between atoms: C_10  and  C_12 
REMARK    5  A    between atoms: C_12  and  N_13 
REMARK    6  A    between atoms: N_13  and  C_14 
REMARK    7  A    between atoms: C_14  and  C_15 
REMARK    8  A    between atoms: C_15  and  N_16 
ROOT
HETATM    1  C   UNL     1     -42.714 -48.239  11.597  1.00  0.00     0.164 C 
ENDROOT
BRANCH   1   2
HETATM    2  C   UNL     1     -41.842 -49.073  12.547  1.00  0.00     0.163 C 
BRANCH   2   3
HETATM    3  N   UNL     1     -42.044 -50.498  12.367  1.00  0.00    -0.339 N 
HETATM    4  C   UNL     1     -41.174 -51.335  11.726  1.00  0.00     0.184 A 
HETATM    5  N   UNL     1     -41.599 -52.575  11.738  1.00  0.00    -0.350 N 
HETATM    6  C   UNL     1     -42.789 -52.537  12.421  1.00  0.00     0.060 A 
ATOM      7  HN  UNL     1     -41.144 -53.391  11.329  1.00  0.00     0.166 HD
HETATM    8  C   UNL     1     -43.658 -53.586  12.751  1.00  0.00     0.039 A 
HETATM    9  C   UNL     1     -43.107 -51.241  12.813  1.00  0.00     0.062 A 
HETATM   10  C   UNL     1     -44.840 -53.313  13.467  1.00  0.00    -0.054 A 
HETATM   11  C   UNL     1     -45.747 -54.461  13.822  1.00  0.00     0.049 C 
HETATM   12  C   UNL     1     -45.149 -51.987  13.841  1.00  0.00    -0.054 A 
HETATM   13  C   UNL     1     -44.280 -50.927  13.509  1.00  0.00     0.039 A 
HETATM   14  C   UNL     1     -46.407 -51.674  14.610  1.00  0.00     0.049 C 
ENDBRANCH   2   3
ENDBRANCH   1   2
BRANCH   1  15
HETATM   15  O   UNL     1     -43.100 -47.000  12.208  1.00  0.00    -0.392 OA
HETATM   16  H   UNL     1     -42.712 -46.949  13.097  1.00  0.00     0.210 HD
ENDBRANCH   1  15
BRANCH   1  17
HETATM   17  C   UNL     1     -41.969 -47.912  10.289  1.00  0.00     0.302 C 
BRANCH  17  18
HETATM   18  N   UNL     1     -42.061 -46.493   9.930  1.00  0.00     0.087 N 
HETATM   19  H   UNL     1     -41.171 -46.206   9.513  1.00  0.00     0.316 HD
BRANCH  18  20
HETATM   20  C   UNL     1     -43.120 -46.239   8.935  1.00  0.00     0.291 C 
BRANCH  20  21
HETATM   21  C   UNL     1     -43.459 -47.444   8.055  1.00  0.00     0.178 C 
BRANCH  21  22
HETATM   22  N   UNL     1     -44.825 -47.880   8.258  1.00  0.00    -0.302 N 
HETATM   23  C   UNL     1     -45.643 -47.556   9.301  1.00  0.00     0.111 A 
HETATM   24  C   UNL     1     -46.822 -48.230   9.080  1.00  0.00     0.037 A 
HETATM   25  C   UNL     1     -46.613 -48.928   7.876  1.00  0.00     0.108 A 
HETATM   26  N   UNL     1     -45.397 -48.711   7.368  1.00  0.00    -0.310 N 
ATOM     27  HN  UNL     1     -44.997 -49.086   6.508  1.00  0.00     0.186 HD
ENDBRANCH  21  22
ENDBRANCH  20  21
ENDBRANCH  18  20
ENDBRANCH  17  18
ENDBRANCH   1  17
TORSDOF 8
ENDMDL
MODEL 3
REMARK VINA RESULT:      -6.2      2.725      3.727
REMARK  8 active torsions:
REMARK  status: ('A' for Active; 'I' for Inactive)
REMARK    1  A    between atoms: N_8  and  C_9 
REMARK    2  A    between atoms: C_9  and  C_10 
REMARK    3  A    between atoms: C_10  and  O_11 
REMARK    4  A    between atoms: C_10  and  C_12 
REMARK    5  A    between atoms: C_12  and  N_13 
REMARK    6  A    between atoms: N_13  and  C_14 
REMARK    7  A    between atoms: C_14  and  C_15 
REMARK    8  A    between atoms: C_15  and  N_16 
ROOT
HETATM    1  C   UNL     1     -39.857 -50.000  11.638  1.00  0.00     0.164 C 
ENDROOT
BRANCH   1   2
HETATM    2  C   UNL     1     -40.945 -50.604  12.538  1.00  0.00     0.163 C 
BRANCH   2   3
HETATM    3  N   UNL     1     -40.740 -52.022  12.767  1.00  0.00    -0.339 N 
HETATM    4  C   UNL     1     -41.134 -53.015  11.916  1.00  0.00     0.184 A 
HETATM    5  N   UNL     1     -40.793 -54.200  12.364  1.00  0.00    -0.350 N 
HETATM    6  C   UNL     1     -40.147 -53.958  13.550  1.00  0.00     0.060 A 
ATOM      7  HN  UNL     1     -40.970 -55.103  11.925  1.00  0.00     0.166 HD
HETATM    8  C   UNL     1     -39.551 -54.866  14.438  1.00  0.00     0.039 A 
HETATM    9  C   UNL     1     -40.114 -52.599  13.843  1.00  0.00     0.062 A 
HETATM   10  C   UNL     1     -38.936 -54.390  15.612  1.00  0.00    -0.054 A 
HETATM   11  C   UNL     1     -38.290 -55.384  16.539  1.00  0.00     0.049 C 
HETATM   12  C   UNL     1     -38.928 -53.006  15.895  1.00  0.00    -0.054 A 
HETATM   13  C   UNL     1     -39.529 -52.089  15.007  1.00  0.00     0.039 A 
HETATM   14  C   UNL     1     -38.272 -52.477  17.144  1.00  0.00     0.049 C 
ENDBRANCH   2   3
ENDBRANCH   1   2
BRANCH   1  15
HETATM   15  O   UNL     1     -40.307 -49.909  10.279  1.00  0.00    -0.392 OA
HETATM   16  H   UNL     1     -39.872 -49.154   9.849  1.00  0.00     0.210 HD
ENDBRANCH   1  15
BRANCH   1  17
HETATM   17  C   UNL     1     -39.462 -48.586  12.102  1.00  0.00     0.302 C 
BRANCH  17  18
HETATM   18  N   UNL     1     -39.442 -47.618  11.000  1.00  0.00     0.087 N 
HETATM   19  H   UNL     1     -39.772 -48.087  10.152  1.00  0.00     0.316 HD
BRANCH  18  20
HETATM   20  C   UNL     1     -40.338 -46.473  11.250  1.00  0.00     0.291 C 
BRANCH  20  21
HETATM   21  C   UNL     1     -41.802 -46.857  11.480  1.00  0.00     0.178 C 
BRANCH  21  22
HETATM   22  N   UNL     1     -42.538 -46.902  10.233  1.00  0.00    -0.302 N 
HETATM   23  C   UNL     1     -43.288 -45.901   9.686  1.00  0.00     0.111 A 
HETATM   24  C   UNL     1     -43.819 -46.418   8.527  1.00  0.00     0.037 A 
HETATM   25  C   UNL     1     -43.327 -47.735   8.466  1.00  0.00     0.108 A 
HETATM   26  N   UNL     1     -42.538 -48.031   9.502  1.00  0.00    -0.310 N 
ATOM     27  HN  UNL     1     -42.051 -48.907   9.694  1.00  0.00     0.186 HD
ENDBRANCH  21  22
ENDBRANCH  20  21
ENDBRANCH  18  20
ENDBRANCH  17  18
ENDBRANCH   1  17
TORSDOF 8
ENDMDL
MODEL 4
REMARK VINA RESULT:      -6.2      1.909      2.747
REMARK  8 active torsions:
REMARK  status: ('A' for Active; 'I' for Inactive)
REMARK    1  A    between atoms: N_8  and  C_9 
REMARK    2  A    between atoms: C_9  and  C_10 
REMARK    3  A    between atoms: C_10  and  O_11 
REMARK    4  A    between atoms: C_10  and  C_12 
REMARK    5  A    between atoms: C_12  and  N_13 
REMARK    6  A    between atoms: N_13  and  C_14 
REMARK    7  A    between atoms: C_14  and  C_15 
REMARK    8  A    between atoms: C_15  and  N_16 
ROOT
HETATM    1  C   UNL     1     -40.321 -50.063  11.494  1.00  0.00     0.164 C 
ENDROOT
BRANCH   1   2
HETATM    2  C   UNL     1     -41.718 -50.180  12.121  1.00  0.00     0.163 C 
BRANCH   2   3
HETATM    3  N   UNL     1     -42.080 -51.557  12.396  1.00  0.00    -0.339 N 
HETATM    4  C   UNL     1     -41.277 -52.638  12.162  1.00  0.00     0.184 A 
HETATM    5  N   UNL     1     -41.851 -53.757  12.534  1.00  0.00    -0.350 N 
HETATM    6  C   UNL     1     -43.073 -53.381  13.033  1.00  0.00     0.060 A 
ATOM      7  HN  UNL     1     -41.472 -54.701  12.466  1.00  0.00     0.166 HD
HETATM    8  C   UNL     1     -44.086 -54.173  13.592  1.00  0.00     0.039 A 
HETATM    9  C   UNL     1     -43.256 -52.005  12.942  1.00  0.00     0.062 A 
HETATM   10  C   UNL     1     -45.273 -53.566  14.047  1.00  0.00    -0.054 A 
HETATM   11  C   UNL     1     -46.337 -54.438  14.657  1.00  0.00     0.049 C 
HETATM   12  C   UNL     1     -45.443 -52.169  13.930  1.00  0.00    -0.054 A 
HETATM   13  C   UNL     1     -44.428 -51.368  13.366  1.00  0.00     0.039 A 
HETATM   14  C   UNL     1     -46.704 -51.501  14.414  1.00  0.00     0.049 C 
ENDBRANCH   2   3
ENDBRANCH   1   2
BRANCH   1  15
HETATM   15  O   UNL     1     -40.408 -49.899  10.071  1.00  0.00    -0.392 OA
HETATM   16  H   UNL     1     -41.332 -50.012   9.794  1.00  0.00     0.210 HD
ENDBRANCH   1  15
BRANCH   1  17
HETATM   17  C   UNL     1     -39.547 -48.860  12.064  1.00  0.00     0.302 C 
BRANCH  17  18
HETATM   18  N   UNL     1     -39.513 -47.723  11.137  1.00  0.00     0.087 N 
HETATM   19  H   UNL     1     -39.897 -48.028  10.237  1.00  0.00     0.316 HD
BRANCH  18  20
HETATM   20  C   UNL     1     -40.337 -46.595  11.611  1.00  0.00     0.291 C 
BRANCH  20  21
HETATM   21  C   UNL     1     -40.268 -45.349  10.725  1.00  0.00     0.178 C 
BRANCH  21  22
HETATM   22  N   UNL     1     -40.198 -44.139  11.518  1.00  0.00    -0.302 N 
HETATM   23  C   UNL     1     -39.852 -44.040  12.835  1.00  0.00     0.111 A 
HETATM   24  C   UNL     1     -39.964 -42.707  13.154  1.00  0.00     0.037 A 
HETATM   25  C   UNL     1     -40.380 -42.087  11.962  1.00  0.00     0.108 A 
HETATM   26  N   UNL     1     -40.517 -42.958  10.958  1.00  0.00    -0.310 N 
ATOM     27  HN  UNL     1     -40.798 -42.772   9.995  1.00  0.00     0.186 HD
ENDBRANCH  21  22
ENDBRANCH  20  21
ENDBRANCH  18  20
ENDBRANCH  17  18
ENDBRANCH   1  17
TORSDOF 8
ENDMDL
MODEL 5
REMARK VINA RESULT:      -6.1      2.174      3.024
REMARK  8 active torsions:
REMARK  status: ('A' for Active; 'I' for Inactive)
REMARK    1  A    between atoms: N_8  and  C_9 
REMARK    2  A    between atoms: C_9  and  C_10 
REMARK    3  A    between atoms: C_10  and  O_11 
REMARK    4  A    between atoms: C_10  and  C_12 
REMARK    5  A    between atoms: C_12  and  N_13 
REMARK    6  A    between atoms: N_13  and  C_14 
REMARK    7  A    between atoms: C_14  and  C_15 
REMARK    8  A    between atoms: C_15  and  N_16 
ROOT
HETATM    1  C   UNL     1     -40.197 -49.028  11.930  1.00  0.00     0.164 C 
ENDROOT
BRANCH   1   2
HETATM    2  C   UNL     1     -39.699 -50.418  11.507  1.00  0.00     0.163 C 
BRANCH   2   3
HETATM    3  N   UNL     1     -39.689 -51.356  12.612  1.00  0.00    -0.339 N 
HETATM    4  C   UNL     1     -38.668 -51.497  13.509  1.00  0.00     0.184 A 
HETATM    5  N   UNL     1     -38.944 -52.399  14.419  1.00  0.00    -0.350 N 
HETATM    6  C   UNL     1     -40.198 -52.854  14.100  1.00  0.00     0.060 A 
ATOM      7  HN  UNL     1     -38.354 -52.698  15.196  1.00  0.00     0.166 HD
HETATM    8  C   UNL     1     -40.991 -53.808  14.755  1.00  0.00     0.039 A 
HETATM    9  C   UNL     1     -40.688 -52.233  12.956  1.00  0.00     0.062 A 
HETATM   10  C   UNL     1     -42.265 -54.124  14.244  1.00  0.00    -0.054 A 
HETATM   11  C   UNL     1     -43.101 -55.138  14.977  1.00  0.00     0.049 C 
HETATM   12  C   UNL     1     -42.734 -53.490  13.073  1.00  0.00    -0.054 A 
HETATM   13  C   UNL     1     -41.940 -52.533  12.408  1.00  0.00     0.039 A 
HETATM   14  C   UNL     1     -44.096 -53.812  12.513  1.00  0.00     0.049 C 
ENDBRANCH   2   3
ENDBRANCH   1   2
BRANCH   1  15
HETATM   15  O   UNL     1     -39.473 -47.993  11.250  1.00  0.00    -0.392 OA
HETATM   16  H   UNL     1     -38.560 -48.290  11.099  1.00  0.00     0.210 HD
ENDBRANCH   1  15
BRANCH   1  17
HETATM   17  C   UNL     1     -41.693 -48.845  11.616  1.00  0.00     0.302 C 
BRANCH  17  18
HETATM   18  N   UNL     1     -41.950 -48.677  10.181  1.00  0.00     0.087 N 
HETATM   19  H   UNL     1     -42.548 -49.447   9.867  1.00  0.00     0.316 HD
BRANCH  18  20
HETATM   20  C   UNL     1     -42.656 -47.417   9.887  1.00  0.00     0.291 C 
BRANCH  20  21
HETATM   21  C   UNL     1     -43.364 -47.394   8.530  1.00  0.00     0.178 C 
BRANCH  21  22
HETATM   22  N   UNL     1     -44.805 -47.417   8.684  1.00  0.00    -0.302 N 
HETATM   23  C   UNL     1     -45.611 -46.365   9.014  1.00  0.00     0.111 A 
HETATM   24  C   UNL     1     -46.887 -46.874   9.076  1.00  0.00     0.037 A 
HETATM   25  C   UNL     1     -46.742 -48.239   8.765  1.00  0.00     0.108 A 
HETATM   26  N   UNL     1     -45.473 -48.572   8.518  1.00  0.00    -0.310 N 
ATOM     27  HN  UNL     1     -45.099 -49.486   8.264  1.00  0.00     0.186 HD
ENDBRANCH  21  22
ENDBRANCH  20  21
ENDBRANCH  18  20
ENDBRANCH  17  18
ENDBRANCH   1  17
TORSDOF 8
ENDMDL
MODEL 6
REMARK VINA RESULT:      -6.1      1.561      1.937
REMARK  8 active torsions:
REMARK  status: ('A' for Active; 'I' for Inactive)
REMARK    1  A    between atoms: N_8  and  C_9 
REMARK    2  A    between atoms: C_9  and  C_10 
REMARK    3  A    between atoms: C_10  and  O_11 
REMARK    4  A    between atoms: C_10  and  C_12 
REMARK    5  A    between atoms: C_12  and  N_13 
REMARK    6  A    between atoms: N_13  and  C_14 
REMARK    7  A    between atoms: C_14  and  C_15 
REMARK    8  A    between atoms: C_15  and  N_16 
ROOT
HETATM    1  C   UNL     1     -40.197 -51.673  12.583  1.00  0.00     0.164 C 
ENDROOT
BRANCH   1   2
HETATM    2  C   UNL     1     -40.862 -52.963  12.083  1.00  0.00     0.163 C 
BRANCH   2   3
HETATM    3  N   UNL     1     -41.681 -53.587  13.105  1.00  0.00    -0.339 N 
HETATM    4  C   UNL     1     -41.205 -54.383  14.110  1.00  0.00     0.184 A 
HETATM    5  N   UNL     1     -42.167 -54.785  14.905  1.00  0.00    -0.350 N 
HETATM    6  C   UNL     1     -43.309 -54.220  14.396  1.00  0.00     0.060 A 
ATOM      7  HN  UNL     1     -42.084 -55.387  15.724  1.00  0.00     0.166 HD
HETATM    8  C   UNL     1     -44.627 -54.297  14.870  1.00  0.00     0.039 A 
HETATM    9  C   UNL     1     -43.041 -53.476  13.252  1.00  0.00     0.062 A 
HETATM   10  C   UNL     1     -45.656 -53.628  14.180  1.00  0.00    -0.054 A 
HETATM   11  C   UNL     1     -47.058 -53.715  14.720  1.00  0.00     0.049 C 
HETATM   12  C   UNL     1     -45.361 -52.892  13.012  1.00  0.00    -0.054 A 
HETATM   13  C   UNL     1     -44.038 -52.813  12.528  1.00  0.00     0.039 A 
HETATM   14  C   UNL     1     -46.448 -52.166  12.261  1.00  0.00     0.049 C 
ENDBRANCH   2   3
ENDBRANCH   1   2
BRANCH   1  15
HETATM   15  O   UNL     1     -38.865 -51.547  12.065  1.00  0.00    -0.392 OA
HETATM   16  H   UNL     1     -38.774 -50.686  11.625  1.00  0.00     0.210 HD
ENDBRANCH   1  15
BRANCH   1  17
HETATM   17  C   UNL     1     -40.992 -50.426  12.153  1.00  0.00     0.302 C 
BRANCH  17  18
HETATM   18  N   UNL     1     -40.598 -49.937  10.827  1.00  0.00     0.087 N 
HETATM   19  H   UNL     1     -41.024 -50.542  10.119  1.00  0.00     0.316 HD
BRANCH  18  20
HETATM   20  C   UNL     1     -41.070 -48.562  10.578  1.00  0.00     0.291 C 
BRANCH  20  21
HETATM   21  C   UNL     1     -42.480 -48.277  11.101  1.00  0.00     0.178 C 
BRANCH  21  22
HETATM   22  N   UNL     1     -43.247 -47.493  10.153  1.00  0.00    -0.302 N 
HETATM   23  C   UNL     1     -44.600 -47.517   9.974  1.00  0.00     0.111 A 
HETATM   24  C   UNL     1     -44.860 -46.638   8.949  1.00  0.00     0.037 A 
HETATM   25  C   UNL     1     -43.598 -46.135   8.582  1.00  0.00     0.108 A 
HETATM   26  N   UNL     1     -42.612 -46.650   9.320  1.00  0.00    -0.310 N 
ATOM     27  HN  UNL     1     -41.613 -46.451   9.266  1.00  0.00     0.186 HD
ENDBRANCH  21  22
ENDBRANCH  20  21
ENDBRANCH  18  20
ENDBRANCH  17  18
ENDBRANCH   1  17
TORSDOF 8
ENDMDL
MODEL 7
REMARK VINA RESULT:      -6.0      2.942      4.586
REMARK  8 active torsions:
REMARK  status: ('A' for Active; 'I' for Inactive)
REMARK    1  A    between atoms: N_8  and  C_9 
REMARK    2  A    between atoms: C_9  and  C_10 
REMARK    3  A    between atoms: C_10  and  O_11 
REMARK    4  A    between atoms: C_10  and  C_12 
REMARK    5  A    between atoms: C_12  and  N_13 
REMARK    6  A    between atoms: N_13  and  C_14 
REMARK    7  A    between atoms: C_14  and  C_15 
REMARK    8  A    between atoms: C_15  and  N_16 
ROOT
HETATM    1  C   UNL     1     -42.267 -53.107  12.184  1.00  0.00     0.164 C 
ENDROOT
BRANCH   1   2
HETATM    2  C   UNL     1     -42.939 -51.909  12.869  1.00  0.00     0.163 C 
BRANCH   2   3
HETATM    3  N   UNL     1     -44.316 -52.186  13.230  1.00  0.00    -0.339 N 
HETATM    4  C   UNL     1     -45.160 -52.999  12.526  1.00  0.00     0.184 A 
HETATM    5  N   UNL     1     -46.335 -53.090  13.100  1.00  0.00    -0.350 N 
HETATM    6  C   UNL     1     -46.242 -52.309  14.225  1.00  0.00     0.060 A 
ATOM      7  HN  UNL     1     -47.142 -53.625  12.780  1.00  0.00     0.166 HD
HETATM    8  C   UNL     1     -47.201 -52.066  15.220  1.00  0.00     0.039 A 
HETATM    9  C   UNL     1     -44.991 -51.710  14.325  1.00  0.00     0.062 A 
HETATM   10  C   UNL     1     -46.885 -51.219  16.299  1.00  0.00    -0.054 A 
HETATM   11  C   UNL     1     -47.926 -50.990  17.361  1.00  0.00     0.049 C 
HETATM   12  C   UNL     1     -45.612 -50.611  16.372  1.00  0.00    -0.054 A 
HETATM   13  C   UNL     1     -44.646 -50.848  15.372  1.00  0.00     0.039 A 
HETATM   14  C   UNL     1     -45.254 -49.704  17.521  1.00  0.00     0.049 C 
ENDBRANCH   2   3
ENDBRANCH   1   2
BRANCH   1  15
HETATM   15  O   UNL     1     -41.320 -52.672  11.198  1.00  0.00    -0.392 OA
HETATM   16  H   UNL     1     -41.724 -51.975  10.654  1.00  0.00     0.210 HD
ENDBRANCH   1  15
BRANCH   1  17
HETATM   17  C   UNL     1     -41.520 -53.991  13.200  1.00  0.00     0.302 C 
BRANCH  17  18
HETATM   18  N   UNL     1     -40.064 -53.830  13.122  1.00  0.00     0.087 N 
HETATM   19  H   UNL     1     -39.834 -53.395  12.224  1.00  0.00     0.316 HD
BRANCH  18  20
HETATM   20  C   UNL     1     -39.544 -52.951  14.186  1.00  0.00     0.291 C 
BRANCH  20  21
HETATM   21  C   UNL     1     -38.560 -51.885  13.698  1.00  0.00     0.178 C 
BRANCH  21  22
HETATM   22  N   UNL     1     -39.251 -50.771  13.081  1.00  0.00    -0.302 N 
HETATM   23  C   UNL     1     -39.996 -49.816  13.712  1.00  0.00     0.111 A 
HETATM   24  C   UNL     1     -40.477 -48.996  12.718  1.00  0.00     0.037 A 
HETATM   25  C   UNL     1     -39.963 -49.540  11.527  1.00  0.00     0.108 A 
HETATM   26  N   UNL     1     -39.208 -50.619  11.745  1.00  0.00    -0.310 N 
ATOM     27  HN  UNL     1     -38.715 -51.194  11.061  1.00  0.00     0.186 HD
ENDBRANCH  21  22
ENDBRANCH  20  21
ENDBRANCH  18  20
ENDBRANCH  17  18
ENDBRANCH   1  17
TORSDOF 8
ENDMDL
MODEL 8
REMARK VINA RESULT:      -5.9      2.508      4.371
REMARK  8 active torsions:
REMARK  status: ('A' for Active; 'I' for Inactive)
REMARK    1  A    between atoms: N_8  and  C_9 
REMARK    2  A    between atoms: C_9  and  C_10 
REMARK    3  A    between atoms: C_10  and  O_11 
REMARK    4  A    between atoms: C_10  and  C_12 
REMARK    5  A    between atoms: C_12  and  N_13 
REMARK    6  A    between atoms: N_13  and  C_14 
REMARK    7  A    between atoms: C_14  and  C_15 
REMARK    8  A    between atoms: C_15  and  N_16 
ROOT
HETATM    1  C   UNL     1     -40.328 -49.921  11.477  1.00  0.00     0.164 C 
ENDROOT
BRANCH   1   2
HETATM    2  C   UNL     1     -41.715 -50.061  12.119  1.00  0.00     0.163 C 
BRANCH   2   3
HETATM    3  N   UNL     1     -42.071 -51.447  12.355  1.00  0.00    -0.339 N 
HETATM    4  C   UNL     1     -41.279 -52.520  12.055  1.00  0.00     0.184 A 
HETATM    5  N   UNL     1     -41.842 -53.651  12.404  1.00  0.00    -0.350 N 
HETATM    6  C   UNL     1     -43.045 -53.292  12.959  1.00  0.00     0.060 A 
ATOM      7  HN  UNL     1     -41.467 -54.592  12.288  1.00  0.00     0.166 HD
HETATM    8  C   UNL     1     -44.041 -54.103  13.522  1.00  0.00     0.039 A 
HETATM    9  C   UNL     1     -43.229 -51.914  12.925  1.00  0.00     0.062 A 
HETATM   10  C   UNL     1     -45.210 -53.513  14.039  1.00  0.00    -0.054 A 
HETATM   11  C   UNL     1     -46.254 -54.406  14.653  1.00  0.00     0.049 C 
HETATM   12  C   UNL     1     -45.380 -52.112  13.981  1.00  0.00    -0.054 A 
HETATM   13  C   UNL     1     -44.384 -51.292  13.412  1.00  0.00     0.039 A 
HETATM   14  C   UNL     1     -46.623 -51.462  14.532  1.00  0.00     0.049 C 
ENDBRANCH   2   3
ENDBRANCH   1   2
BRANCH   1  15
HETATM   15  O   UNL     1     -40.427 -49.870  10.046  1.00  0.00    -0.392 OA
HETATM   16  H   UNL     1     -39.833 -49.177   9.711  1.00  0.00     0.210 HD
ENDBRANCH   1  15
BRANCH   1  17
HETATM   17  C   UNL     1     -39.615 -48.640  11.949  1.00  0.00     0.302 C 
BRANCH  17  18
HETATM   18  N   UNL     1     -38.397 -48.924  12.715  1.00  0.00     0.087 N 
HETATM   19  H   UNL     1     -38.509 -48.535  13.656  1.00  0.00     0.316 HD
BRANCH  18  20
HETATM   20  C   UNL     1     -38.157 -50.373  12.861  1.00  0.00     0.291 C 
BRANCH  20  21
HETATM   21  C   UNL     1     -37.863 -50.821  14.294  1.00  0.00     0.178 C 
BRANCH  21  22
HETATM   22  N   UNL     1     -39.031 -51.416  14.913  1.00  0.00    -0.302 N 
HETATM   23  C   UNL     1     -39.249 -52.742  15.148  1.00  0.00     0.111 A 
HETATM   24  C   UNL     1     -40.499 -52.824  15.714  1.00  0.00     0.037 A 
HETATM   25  C   UNL     1     -40.949 -51.493  15.780  1.00  0.00     0.108 A 
HETATM   26  N   UNL     1     -40.052 -50.629  15.298  1.00  0.00    -0.310 N 
ATOM     27  HN  UNL     1     -40.124 -49.614  15.235  1.00  0.00     0.186 HD
ENDBRANCH  21  22
ENDBRANCH  20  21
ENDBRANCH  18  20
ENDBRANCH  17  18
ENDBRANCH   1  17
TORSDOF 8
ENDMDL
MODEL 9
REMARK VINA RESULT:      -5.7      1.816      2.521
REMARK  8 active torsions:
REMARK  status: ('A' for Active; 'I' for Inactive)
REMARK    1  A    between atoms: N_8  and  C_9 
REMARK    2  A    between atoms: C_9  and  C_10 
REMARK    3  A    between atoms: C_10  and  O_11 
REMARK    4  A    between atoms: C_10  and  C_12 
REMARK    5  A    between atoms: C_12  and  N_13 
REMARK    6  A    between atoms: N_13  and  C_14 
REMARK    7  A    between atoms: C_14  and  C_15 
REMARK    8  A    between atoms: C_15  and  N_16 
ROOT
HETATM    1  C   UNL     1     -40.374 -50.072  11.528  1.00  0.00     0.164 C 
ENDROOT
BRANCH   1   2
HETATM    2  C   UNL     1     -41.778 -50.178  12.142  1.00  0.00     0.163 C 
BRANCH   2   3
HETATM    3  N   UNL     1     -42.155 -51.552  12.411  1.00  0.00    -0.339 N 
HETATM    4  C   UNL     1     -41.367 -52.641  12.163  1.00  0.00     0.184 A 
HETATM    5  N   UNL     1     -41.952 -53.756  12.532  1.00  0.00    -0.350 N 
HETATM    6  C   UNL     1     -43.164 -53.367  13.045  1.00  0.00     0.060 A 
ATOM      7  HN  UNL     1     -41.585 -54.704  12.454  1.00  0.00     0.166 HD
HETATM    8  C   UNL     1     -44.183 -54.151  13.608  1.00  0.00     0.039 A 
HETATM    9  C   UNL     1     -43.331 -51.989  12.965  1.00  0.00     0.062 A 
HETATM   10  C   UNL     1     -45.358 -53.532  14.077  1.00  0.00    -0.054 A 
HETATM   11  C   UNL     1     -46.427 -54.395  14.692  1.00  0.00     0.049 C 
HETATM   12  C   UNL     1     -45.510 -52.133  13.972  1.00  0.00    -0.054 A 
HETATM   13  C   UNL     1     -44.491 -51.340  13.404  1.00  0.00     0.039 A 
HETATM   14  C   UNL     1     -46.759 -51.452  14.472  1.00  0.00     0.049 C 
ENDBRANCH   2   3
ENDBRANCH   1   2
BRANCH   1  15
HETATM   15  O   UNL     1     -40.445 -49.955  10.100  1.00  0.00    -0.392 OA
HETATM   16  H   UNL     1     -41.138 -50.549   9.766  1.00  0.00     0.210 HD
ENDBRANCH   1  15
BRANCH   1  17
HETATM   17  C   UNL     1     -39.614 -48.846  12.067  1.00  0.00     0.302 C 
BRANCH  17  18
HETATM   18  N   UNL     1     -39.438 -47.802  11.051  1.00  0.00     0.087 N 
HETATM   19  H   UNL     1     -39.768 -48.167  10.152  1.00  0.00     0.316 HD
BRANCH  18  20
HETATM   20  C   UNL     1     -40.226 -46.593  11.355  1.00  0.00     0.291 C 
BRANCH  20  21
HETATM   21  C   UNL     1     -39.993 -46.026  12.757  1.00  0.00     0.178 C 
BRANCH  21  22
HETATM   22  N   UNL     1     -41.240 -45.877  13.481  1.00  0.00    -0.302 N 
HETATM   23  C   UNL     1     -42.447 -46.426  13.157  1.00  0.00     0.111 A 
HETATM   24  C   UNL     1     -43.332 -45.979  14.109  1.00  0.00     0.037 A 
HETATM   25  C   UNL     1     -42.559 -45.170  14.963  1.00  0.00     0.108 A 
HETATM   26  N   UNL     1     -41.280 -45.112  14.586  1.00  0.00    -0.310 N 
ATOM     27  HN  UNL     1     -40.513 -44.606  15.031  1.00  0.00     0.186 HD
ENDBRANCH  21  22
ENDBRANCH  20  21
ENDBRANCH  18  20
ENDBRANCH  17  18
ENDBRANCH   1  17
TORSDOF 8
ENDMDL
