MODEL 1
REMARK VINA RESULT:      -6.4      0.000      0.000
REMARK  7 active torsions:
REMARK  status: ('A' for Active; 'I' for Inactive)
REMARK    1  A    between atoms: O_2  and  C_3 
REMARK    2  A    between atoms: N_8  and  C_9 
REMARK    3  A    between atoms: C_9  and  C_10 
REMARK    4  A    between atoms: C_10  and  O_11 
REMARK    5  A    between atoms: C_10  and  C_12 
REMARK    6  A    between atoms: C_12  and  C_13 
REMARK    7  A    between atoms: C_13  and  C_14 
ROOT
HETATM    1  C   UNL     1     -45.186 -53.880  13.041  1.00  0.00     0.184 C 
ENDROOT
BRANCH   1   2
HETATM    2  N   UNL     1     -43.797 -53.937  13.477  1.00  0.00    -0.253 N 
HETATM    3  C   UNL     1     -43.482 -54.559  14.679  1.00  0.00     0.262 A 
HETATM    4  C   UNL     1     -42.040 -54.689  14.986  1.00  0.00     0.080 A 
HETATM    5  O   UNL     1     -44.311 -55.006  15.469  1.00  0.00    -0.267 OA
HETATM    6  C   UNL     1     -41.117 -54.232  14.137  1.00  0.00     0.063 A 
HETATM    7  C   UNL     1     -41.624 -53.567  12.939  1.00  0.00     0.156 A 
HETATM    8  N   UNL     1     -42.861 -53.421  12.601  1.00  0.00    -0.275 N 
ATOM      9  HN  UNL     1     -43.132 -52.952  11.737  1.00  0.00     0.189 HD
BRANCH   7  10
HETATM   10  O   UNL     1     -40.584 -53.100  12.210  1.00  0.00    -0.340 OA
HETATM   11  C   UNL     1     -40.377 -51.683  12.239  1.00  0.00     0.211 C 
ENDBRANCH   7  10
ENDBRANCH   1   2
BRANCH   1  12
HETATM   12  C   UNL     1     -45.556 -52.497  12.472  1.00  0.00     0.138 C 
BRANCH  12  13
HETATM   13  O   UNL     1     -46.621 -52.585  11.515  1.00  0.00    -0.394 OA
HETATM   14  H   UNL     1     -47.016 -51.699  11.405  1.00  0.00     0.210 HD
ENDBRANCH  12  13
BRANCH  12  15
HETATM   15  C   UNL     1     -46.014 -51.522  13.563  1.00  0.00     0.038 C 
BRANCH  15  16
HETATM   16  C   UNL     1     -46.793 -52.201  14.690  1.00  0.00     0.041 C 
BRANCH  16  17
HETATM   17  C   UNL     1     -46.805 -51.355  15.935  1.00  0.00    -0.058 A 
HETATM   18  C   UNL     1     -45.634 -50.716  16.365  1.00  0.00     0.007 A 
HETATM   19  C   UNL     1     -45.636 -49.950  17.530  1.00  0.00     0.001 A 
HETATM   20  C   UNL     1     -46.805 -49.822  18.277  1.00  0.00     0.000 A 
HETATM   21  C   UNL     1     -47.973 -50.456  17.857  1.00  0.00     0.001 A 
HETATM   22  C   UNL     1     -47.975 -51.222  16.691  1.00  0.00     0.007 A 
ENDBRANCH  16  17
ENDBRANCH  15  16
ENDBRANCH  12  15
ENDBRANCH   1  12
TORSDOF 7
ENDMDL
MODEL 2
REMARK VINA RESULT:      -6.4      1.741      3.918
REMARK  7 active torsions:
REMARK  status: ('A' for Active; 'I' for Inactive)
REMARK    1  A    between atoms: O_2  and  C_3 
REMARK    2  A    between atoms: N_8  and  C_9 
REMARK    3  A    between atoms: C_9  and  C_10 
REMARK    4  A    between atoms: C_10  and  O_11 
REMARK    5  A    between atoms: C_10  and  C_12 
REMARK    6  A    between atoms: C_12  and  C_13 
REMARK    7  A    between atoms: C_13  and  C_14 
ROOT
HETATM    1  C   UNL     1     -40.972 -52.781  12.112  1.00  0.00     0.184 C 
ENDROOT
BRANCH   1   2
HETATM    2  N   UNL     1     -41.883 -53.445  13.035  1.00  0.00    -0.253 N 
HETATM    3  C   UNL     1     -41.522 -53.586  14.369  1.00  0.00     0.262 A 
HETATM    4  C   UNL     1     -42.554 -54.152  15.265  1.00  0.00     0.080 A 
HETATM    5  O   UNL     1     -40.431 -53.260  14.832  1.00  0.00    -0.267 OA
HETATM    6  C   UNL     1     -43.755 -54.495  14.794  1.00  0.00     0.063 A 
HETATM    7  C   UNL     1     -43.951 -54.321  13.357  1.00  0.00     0.156 A 
HETATM    8  N   UNL     1     -43.105 -53.829  12.516  1.00  0.00    -0.275 N 
ATOM      9  HN  UNL     1     -43.325 -53.729  11.526  1.00  0.00     0.189 HD
BRANCH   7  10
HETATM   10  O   UNL     1     -45.181 -54.768  13.014  1.00  0.00    -0.340 OA
HETATM   11  C   UNL     1     -46.054 -55.111  14.096  1.00  0.00     0.211 C 
ENDBRANCH   7  10
ENDBRANCH   1   2
BRANCH   1  12
HETATM   12  C   UNL     1     -41.059 -51.246  12.219  1.00  0.00     0.138 C 
BRANCH  12  13
HETATM   13  O   UNL     1     -40.484 -50.602  11.073  1.00  0.00    -0.394 OA
HETATM   14  H   UNL     1     -40.776 -49.670  11.062  1.00  0.00     0.210 HD
ENDBRANCH  12  13
BRANCH  12  15
HETATM   15  C   UNL     1     -42.504 -50.750  12.334  1.00  0.00     0.038 C 
BRANCH  15  16
HETATM   16  C   UNL     1     -42.852 -50.223  13.727  1.00  0.00     0.041 C 
BRANCH  16  17
HETATM   17  C   UNL     1     -44.218 -50.682  14.162  1.00  0.00    -0.058 A 
HETATM   18  C   UNL     1     -45.177 -51.046  13.207  1.00  0.00     0.007 A 
HETATM   19  C   UNL     1     -46.451 -51.449  13.605  1.00  0.00     0.001 A 
HETATM   20  C   UNL     1     -46.777 -51.488  14.959  1.00  0.00     0.000 A 
HETATM   21  C   UNL     1     -45.829 -51.127  15.915  1.00  0.00     0.001 A 
HETATM   22  C   UNL     1     -44.554 -50.723  15.519  1.00  0.00     0.007 A 
ENDBRANCH  16  17
ENDBRANCH  15  16
ENDBRANCH  12  15
ENDBRANCH   1  12
TORSDOF 7
ENDMDL
MODEL 3
REMARK VINA RESULT:      -6.1      1.496      2.258
REMARK  7 active torsions:
REMARK  status: ('A' for Active; 'I' for Inactive)
REMARK    1  A    between atoms: O_2  and  C_3 
REMARK    2  A    between atoms: N_8  and  C_9 
REMARK    3  A    between atoms: C_9  and  C_10 
REMARK    4  A    between atoms: C_10  and  O_11 
REMARK    5  A    between atoms: C_10  and  C_12 
REMARK    6  A    between atoms: C_12  and  C_13 
REMARK    7  A    between atoms: C_13  and  C_14 
ROOT
HETATM    1  C   UNL     1     -44.966 -54.161  12.777  1.00  0.00     0.184 C 
ENDROOT
BRANCH   1   2
HETATM    2  N   UNL     1     -43.615 -54.061  13.312  1.00  0.00    -0.253 N 
HETATM    3  C   UNL     1     -43.325 -54.628  14.547  1.00  0.00     0.262 A 
HETATM    4  C   UNL     1     -41.903 -54.597  14.958  1.00  0.00     0.080 A 
HETATM    5  O   UNL     1     -44.157 -55.150  15.285  1.00  0.00    -0.267 OA
HETATM    6  C   UNL     1     -40.975 -54.056  14.167  1.00  0.00     0.063 A 
HETATM    7  C   UNL     1     -41.461 -53.466  12.922  1.00  0.00     0.156 A 
HETATM    8  N   UNL     1     -42.678 -53.460  12.494  1.00  0.00    -0.275 N 
ATOM      9  HN  UNL     1     -42.934 -53.035  11.603  1.00  0.00     0.189 HD
BRANCH   7  10
HETATM   10  O   UNL     1     -40.426 -52.900  12.259  1.00  0.00    -0.340 OA
HETATM   11  C   UNL     1     -40.357 -51.470  12.296  1.00  0.00     0.211 C 
ENDBRANCH   7  10
ENDBRANCH   1   2
BRANCH   1  12
HETATM   12  C   UNL     1     -45.672 -52.791  12.732  1.00  0.00     0.138 C 
BRANCH  12  13
HETATM   13  O   UNL     1     -46.505 -52.663  11.571  1.00  0.00    -0.394 OA
HETATM   14  H   UNL     1     -46.317 -51.804  11.146  1.00  0.00     0.210 HD
ENDBRANCH  12  13
BRANCH  12  15
HETATM   15  C   UNL     1     -46.567 -52.556  13.953  1.00  0.00     0.038 C 
BRANCH  15  16
HETATM   16  C   UNL     1     -46.268 -51.242  14.676  1.00  0.00     0.041 C 
BRANCH  16  17
HETATM   17  C   UNL     1     -44.892 -51.254  15.289  1.00  0.00    -0.058 A 
HETATM   18  C   UNL     1     -44.679 -51.864  16.532  1.00  0.00     0.007 A 
HETATM   19  C   UNL     1     -43.411 -51.857  17.112  1.00  0.00     0.001 A 
HETATM   20  C   UNL     1     -42.350 -51.235  16.458  1.00  0.00     0.000 A 
HETATM   21  C   UNL     1     -42.554 -50.625  15.222  1.00  0.00     0.001 A 
HETATM   22  C   UNL     1     -43.821 -50.632  14.638  1.00  0.00     0.007 A 
ENDBRANCH  16  17
ENDBRANCH  15  16
ENDBRANCH  12  15
ENDBRANCH   1  12
TORSDOF 7
ENDMDL
MODEL 4
REMARK VINA RESULT:      -6.1      3.088      5.385
REMARK  7 active torsions:
REMARK  status: ('A' for Active; 'I' for Inactive)
REMARK    1  A    between atoms: O_2  and  C_3 
REMARK    2  A    between atoms: N_8  and  C_9 
REMARK    3  A    between atoms: C_9  and  C_10 
REMARK    4  A    between atoms: C_10  and  O_11 
REMARK    5  A    between atoms: C_10  and  C_12 
REMARK    6  A    between atoms: C_12  and  C_13 
REMARK    7  A    between atoms: C_13  and  C_14 
ROOT
HETATM    1  C   UNL     1     -40.808 -51.279  12.920  1.00  0.00     0.184 C 
ENDROOT
BRANCH   1   2
HETATM    2  N   UNL     1     -40.809 -49.934  12.361  1.00  0.00    -0.253 N 
HETATM    3  C   UNL     1     -39.816 -49.036  12.736  1.00  0.00     0.262 A 
HETATM    4  C   UNL     1     -39.813 -47.738  12.026  1.00  0.00     0.080 A 
HETATM    5  O   UNL     1     -38.960 -49.263  13.588  1.00  0.00    -0.267 OA
HETATM    6  C   UNL     1     -40.718 -47.473  11.082  1.00  0.00     0.063 A 
HETATM    7  C   UNL     1     -41.717 -48.512  10.844  1.00  0.00     0.156 A 
HETATM    8  N   UNL     1     -41.780 -49.667  11.415  1.00  0.00    -0.275 N 
ATOM      9  HN  UNL     1     -42.506 -50.344  11.183  1.00  0.00     0.189 HD
BRANCH   7  10
HETATM   10  O   UNL     1     -42.602 -48.080   9.916  1.00  0.00    -0.340 OA
HETATM   11  C   UNL     1     -43.784 -47.446  10.416  1.00  0.00     0.211 C 
ENDBRANCH   7  10
ENDBRANCH   1   2
BRANCH   1  12
HETATM   12  C   UNL     1     -41.576 -52.275  12.030  1.00  0.00     0.138 C 
BRANCH  12  13
HETATM   13  O   UNL     1     -40.688 -53.186  11.365  1.00  0.00    -0.394 OA
HETATM   14  H   UNL     1     -40.663 -52.957  10.416  1.00  0.00     0.210 HD
ENDBRANCH  12  13
BRANCH  12  15
HETATM   15  C   UNL     1     -42.571 -53.123  12.829  1.00  0.00     0.038 C 
BRANCH  15  16
HETATM   16  C   UNL     1     -43.958 -53.189  12.189  1.00  0.00     0.041 C 
BRANCH  16  17
HETATM   17  C   UNL     1     -45.042 -52.928  13.201  1.00  0.00    -0.058 A 
HETATM   18  C   UNL     1     -45.561 -53.981  13.966  1.00  0.00     0.007 A 
HETATM   19  C   UNL     1     -46.581 -53.746  14.887  1.00  0.00     0.001 A 
HETATM   20  C   UNL     1     -47.093 -52.460  15.046  1.00  0.00     0.000 A 
HETATM   21  C   UNL     1     -46.583 -51.408  14.287  1.00  0.00     0.001 A 
HETATM   22  C   UNL     1     -45.563 -51.640  13.365  1.00  0.00     0.007 A 
ENDBRANCH  16  17
ENDBRANCH  15  16
ENDBRANCH  12  15
ENDBRANCH   1  12
TORSDOF 7
ENDMDL
MODEL 5
REMARK VINA RESULT:      -6.0      2.834      4.859
REMARK  7 active torsions:
REMARK  status: ('A' for Active; 'I' for Inactive)
REMARK    1  A    between atoms: O_2  and  C_3 
REMARK    2  A    between atoms: N_8  and  C_9 
REMARK    3  A    between atoms: C_9  and  C_10 
REMARK    4  A    between atoms: C_10  and  O_11 
REMARK    5  A    between atoms: C_10  and  C_12 
REMARK    6  A    between atoms: C_12  and  C_13 
REMARK    7  A    between atoms: C_13  and  C_14 
ROOT
HETATM    1  C   UNL     1     -40.944 -51.962  13.529  1.00  0.00     0.184 C 
ENDROOT
BRANCH   1   2
HETATM    2  N   UNL     1     -40.074 -50.955  12.937  1.00  0.00    -0.253 N 
HETATM    3  C   UNL     1     -38.699 -51.158  12.931  1.00  0.00     0.262 A 
HETATM    4  C   UNL     1     -37.897 -50.154  12.197  1.00  0.00     0.080 A 
HETATM    5  O   UNL     1     -38.133 -52.106  13.472  1.00  0.00    -0.267 OA
HETATM    6  C   UNL     1     -38.486 -49.127  11.581  1.00  0.00     0.063 A 
HETATM    7  C   UNL     1     -39.937 -49.042  11.726  1.00  0.00     0.156 A 
HETATM    8  N   UNL     1     -40.702 -49.879  12.341  1.00  0.00    -0.275 N 
ATOM      9  HN  UNL     1     -41.713 -49.753  12.386  1.00  0.00     0.189 HD
BRANCH   7  10
HETATM   10  O   UNL     1     -40.386 -47.922  11.111  1.00  0.00    -0.340 OA
HETATM   11  C   UNL     1     -41.714 -47.982  10.580  1.00  0.00     0.211 C 
ENDBRANCH   7  10
ENDBRANCH   1   2
BRANCH   1  12
HETATM   12  C   UNL     1     -41.991 -52.483  12.524  1.00  0.00     0.138 C 
BRANCH  12  13
HETATM   13  O   UNL     1     -41.420 -52.687  11.223  1.00  0.00    -0.394 OA
HETATM   14  H   UNL     1     -40.449 -52.737  11.313  1.00  0.00     0.210 HD
ENDBRANCH  12  13
BRANCH  12  15
HETATM   15  C   UNL     1     -42.602 -53.819  12.959  1.00  0.00     0.038 C 
BRANCH  15  16
HETATM   16  C   UNL     1     -44.062 -53.981  12.536  1.00  0.00     0.041 C 
BRANCH  16  17
HETATM   17  C   UNL     1     -44.972 -53.111  13.363  1.00  0.00    -0.058 A 
HETATM   18  C   UNL     1     -45.899 -52.266  12.738  1.00  0.00     0.007 A 
HETATM   19  C   UNL     1     -46.727 -51.442  13.500  1.00  0.00     0.001 A 
HETATM   20  C   UNL     1     -46.630 -51.453  14.890  1.00  0.00     0.000 A 
HETATM   21  C   UNL     1     -45.709 -52.289  15.518  1.00  0.00     0.001 A 
HETATM   22  C   UNL     1     -44.881 -53.115  14.759  1.00  0.00     0.007 A 
ENDBRANCH  16  17
ENDBRANCH  15  16
ENDBRANCH  12  15
ENDBRANCH   1  12
TORSDOF 7
ENDMDL
MODEL 6
REMARK VINA RESULT:      -6.0      2.387      4.545
REMARK  7 active torsions:
REMARK  status: ('A' for Active; 'I' for Inactive)
REMARK    1  A    between atoms: O_2  and  C_3 
REMARK    2  A    between atoms: N_8  and  C_9 
REMARK    3  A    between atoms: C_9  and  C_10 
REMARK    4  A    between atoms: C_10  and  O_11 
REMARK    5  A    between atoms: C_10  and  C_12 
REMARK    6  A    between atoms: C_12  and  C_13 
REMARK    7  A    between atoms: C_13  and  C_14 
ROOT
HETATM    1  C   UNL     1     -46.322 -51.432  13.935  1.00  0.00     0.184 C 
ENDROOT
BRANCH   1   2
HETATM    2  N   UNL     1     -44.925 -51.050  14.095  1.00  0.00    -0.253 N 
HETATM    3  C   UNL     1     -44.318 -51.183  15.338  1.00  0.00     0.262 A 
HETATM    4  C   UNL     1     -42.867 -50.898  15.386  1.00  0.00     0.080 A 
HETATM    5  O   UNL     1     -44.901 -51.528  16.363  1.00  0.00    -0.267 OA
HETATM    6  C   UNL     1     -42.204 -50.541  14.284  1.00  0.00     0.063 A 
HETATM    7  C   UNL     1     -43.006 -50.407  13.070  1.00  0.00     0.156 A 
HETATM    8  N   UNL     1     -44.269 -50.644  12.949  1.00  0.00    -0.275 N 
ATOM      9  HN  UNL     1     -44.754 -50.537  12.059  1.00  0.00     0.189 HD
BRANCH   7  10
HETATM   10  O   UNL     1     -42.219 -49.979  12.056  1.00  0.00    -0.340 OA
HETATM   11  C   UNL     1     -40.959 -50.644  11.909  1.00  0.00     0.211 C 
ENDBRANCH   7  10
ENDBRANCH   1   2
BRANCH   1  12
HETATM   12  C   UNL     1     -46.473 -52.762  13.171  1.00  0.00     0.138 C 
BRANCH  12  13
HETATM   13  O   UNL     1     -46.102 -52.626  11.791  1.00  0.00    -0.394 OA
HETATM   14  H   UNL     1     -45.170 -52.337  11.747  1.00  0.00     0.210 HD
ENDBRANCH  12  13
BRANCH  12  15
HETATM   15  C   UNL     1     -45.602 -53.875  13.761  1.00  0.00     0.038 C 
BRANCH  15  16
HETATM   16  C   UNL     1     -44.405 -54.236  12.880  1.00  0.00     0.041 C 
BRANCH  16  17
HETATM   17  C   UNL     1     -43.134 -54.308  13.685  1.00  0.00    -0.058 A 
HETATM   18  C   UNL     1     -41.902 -54.013  13.085  1.00  0.00     0.007 A 
HETATM   19  C   UNL     1     -40.721 -54.101  13.821  1.00  0.00     0.001 A 
HETATM   20  C   UNL     1     -40.762 -54.490  15.158  1.00  0.00     0.000 A 
HETATM   21  C   UNL     1     -41.983 -54.787  15.761  1.00  0.00     0.001 A 
HETATM   22  C   UNL     1     -43.166 -54.699  15.028  1.00  0.00     0.007 A 
ENDBRANCH  16  17
ENDBRANCH  15  16
ENDBRANCH  12  15
ENDBRANCH   1  12
TORSDOF 7
ENDMDL
MODEL 7
REMARK VINA RESULT:      -5.9      2.924      5.019
REMARK  7 active torsions:
REMARK  status: ('A' for Active; 'I' for Inactive)
REMARK    1  A    between atoms: O_2  and  C_3 
REMARK    2  A    between atoms: N_8  and  C_9 
REMARK    3  A    between atoms: C_9  and  C_10 
REMARK    4  A    between atoms: C_10  and  O_11 
REMARK    5  A    between atoms: C_10  and  C_12 
REMARK    6  A    between atoms: C_12  and  C_13 
REMARK    7  A    between atoms: C_13  and  C_14 
ROOT
HETATM    1  C   UNL     1     -41.787 -51.189  12.535  1.00  0.00     0.184 C 
ENDROOT
BRANCH   1   2
HETATM    2  N   UNL     1     -40.416 -50.696  12.577  1.00  0.00    -0.253 N 
HETATM    3  C   UNL     1     -39.983 -49.797  11.610  1.00  0.00     0.262 A 
HETATM    4  C   UNL     1     -38.622 -49.246  11.798  1.00  0.00     0.080 A 
HETATM    5  O   UNL     1     -40.654 -49.436  10.646  1.00  0.00    -0.267 OA
HETATM    6  C   UNL     1     -37.879 -49.605  12.847  1.00  0.00     0.063 A 
HETATM    7  C   UNL     1     -38.473 -50.594  13.744  1.00  0.00     0.156 A 
HETATM    8  N   UNL     1     -39.651 -51.113  13.649  1.00  0.00    -0.275 N 
ATOM      9  HN  UNL     1     -39.997 -51.791  14.327  1.00  0.00     0.189 HD
BRANCH   7  10
HETATM   10  O   UNL     1     -37.587 -50.909  14.716  1.00  0.00    -0.340 OA
HETATM   11  C   UNL     1     -36.940 -49.807  15.364  1.00  0.00     0.211 C 
ENDBRANCH   7  10
ENDBRANCH   1   2
BRANCH   1  12
HETATM   12  C   UNL     1     -41.862 -52.646  12.038  1.00  0.00     0.138 C 
BRANCH  12  13
HETATM   13  O   UNL     1     -40.586 -53.115  11.578  1.00  0.00    -0.394 OA
HETATM   14  H   UNL     1     -40.214 -53.716  12.252  1.00  0.00     0.210 HD
ENDBRANCH  12  13
BRANCH  12  15
HETATM   15  C   UNL     1     -42.326 -53.612  13.132  1.00  0.00     0.038 C 
BRANCH  15  16
HETATM   16  C   UNL     1     -43.751 -54.125  12.919  1.00  0.00     0.041 C 
BRANCH  16  17
HETATM   17  C   UNL     1     -44.770 -53.135  13.417  1.00  0.00    -0.058 A 
HETATM   18  C   UNL     1     -44.824 -52.802  14.777  1.00  0.00     0.007 A 
HETATM   19  C   UNL     1     -45.782 -51.903  15.245  1.00  0.00     0.001 A 
HETATM   20  C   UNL     1     -46.695 -51.335  14.359  1.00  0.00     0.000 A 
HETATM   21  C   UNL     1     -46.649 -51.662  13.006  1.00  0.00     0.001 A 
HETATM   22  C   UNL     1     -45.691 -52.561  12.534  1.00  0.00     0.007 A 
ENDBRANCH  16  17
ENDBRANCH  15  16
ENDBRANCH  12  15
ENDBRANCH   1  12
TORSDOF 7
ENDMDL
MODEL 8
REMARK VINA RESULT:      -5.8      2.225      5.296
REMARK  7 active torsions:
REMARK  status: ('A' for Active; 'I' for Inactive)
REMARK    1  A    between atoms: O_2  and  C_3 
REMARK    2  A    between atoms: N_8  and  C_9 
REMARK    3  A    between atoms: C_9  and  C_10 
REMARK    4  A    between atoms: C_10  and  O_11 
REMARK    5  A    between atoms: C_10  and  C_12 
REMARK    6  A    between atoms: C_12  and  C_13 
REMARK    7  A    between atoms: C_13  and  C_14 
ROOT
HETATM    1  C   UNL     1     -42.664 -50.511  13.398  1.00  0.00     0.184 C 
ENDROOT
BRANCH   1   2
HETATM    2  N   UNL     1     -44.012 -51.011  13.634  1.00  0.00    -0.253 N 
HETATM    3  C   UNL     1     -44.600 -50.830  14.880  1.00  0.00     0.262 A 
HETATM    4  C   UNL     1     -46.014 -51.250  14.998  1.00  0.00     0.080 A 
HETATM    5  O   UNL     1     -44.030 -50.342  15.853  1.00  0.00    -0.267 OA
HETATM    6  C   UNL     1     -46.664 -51.764  13.952  1.00  0.00     0.063 A 
HETATM    7  C   UNL     1     -45.881 -51.924  12.729  1.00  0.00     0.156 A 
HETATM    8  N   UNL     1     -44.652 -51.577  12.548  1.00  0.00    -0.275 N 
ATOM      9  HN  UNL     1     -44.179 -51.713  11.655  1.00  0.00     0.189 HD
BRANCH   7  10
HETATM   10  O   UNL     1     -46.645 -52.514  11.780  1.00  0.00    -0.340 OA
HETATM   11  C   UNL     1     -47.490 -51.644  11.018  1.00  0.00     0.211 C 
ENDBRANCH   7  10
ENDBRANCH   1   2
BRANCH   1  12
HETATM   12  C   UNL     1     -41.899 -51.372  12.375  1.00  0.00     0.138 C 
BRANCH  12  13
HETATM   13  O   UNL     1     -41.278 -50.567  11.362  1.00  0.00    -0.394 OA
HETATM   14  H   UNL     1     -40.322 -50.515  11.549  1.00  0.00     0.210 HD
ENDBRANCH  12  13
BRANCH  12  15
HETATM   15  C   UNL     1     -40.789 -52.204  13.027  1.00  0.00     0.038 C 
BRANCH  15  16
HETATM   16  C   UNL     1     -41.123 -53.694  13.112  1.00  0.00     0.041 C 
BRANCH  16  17
HETATM   17  C   UNL     1     -42.199 -53.957  14.132  1.00  0.00    -0.058 A 
HETATM   18  C   UNL     1     -43.404 -54.560  13.747  1.00  0.00     0.007 A 
HETATM   19  C   UNL     1     -44.411 -54.784  14.684  1.00  0.00     0.001 A 
HETATM   20  C   UNL     1     -44.225 -54.403  16.011  1.00  0.00     0.000 A 
HETATM   21  C   UNL     1     -43.030 -53.802  16.402  1.00  0.00     0.001 A 
HETATM   22  C   UNL     1     -42.020 -53.577  15.466  1.00  0.00     0.007 A 
ENDBRANCH  16  17
ENDBRANCH  15  16
ENDBRANCH  12  15
ENDBRANCH   1  12
TORSDOF 7
ENDMDL
MODEL 9
REMARK VINA RESULT:      -5.8      3.059      4.761
REMARK  7 active torsions:
REMARK  status: ('A' for Active; 'I' for Inactive)
REMARK    1  A    between atoms: O_2  and  C_3 
REMARK    2  A    between atoms: N_8  and  C_9 
REMARK    3  A    between atoms: C_9  and  C_10 
REMARK    4  A    between atoms: C_10  and  O_11 
REMARK    5  A    between atoms: C_10  and  C_12 
REMARK    6  A    between atoms: C_12  and  C_13 
REMARK    7  A    between atoms: C_13  and  C_14 
ROOT
HETATM    1  C   UNL     1     -40.156 -53.259  13.956  1.00  0.00     0.184 C 
ENDROOT
BRANCH   1   2
HETATM    2  N   UNL     1     -39.321 -52.084  14.167  1.00  0.00    -0.253 N 
HETATM    3  C   UNL     1     -38.752 -51.866  15.416  1.00  0.00     0.262 A 
HETATM    4  C   UNL     1     -37.814 -50.725  15.512  1.00  0.00     0.080 A 
HETATM    5  O   UNL     1     -38.967 -52.557  16.409  1.00  0.00    -0.267 OA
HETATM    6  C   UNL     1     -37.545 -49.969  14.445  1.00  0.00     0.063 A 
HETATM    7  C   UNL     1     -38.265 -50.313  13.221  1.00  0.00     0.156 A 
HETATM    8  N   UNL     1     -39.088 -51.293  13.059  1.00  0.00    -0.275 N 
ATOM      9  HN  UNL     1     -39.542 -51.473  12.163  1.00  0.00     0.189 HD
BRANCH   7  10
HETATM   10  O   UNL     1     -37.945 -49.429  12.248  1.00  0.00    -0.340 OA
HETATM   11  C   UNL     1     -37.321 -49.973  11.079  1.00  0.00     0.211 C 
ENDBRANCH   7  10
ENDBRANCH   1   2
BRANCH   1  12
HETATM   12  C   UNL     1     -41.158 -53.055  12.802  1.00  0.00     0.138 C 
BRANCH  12  13
HETATM   13  O   UNL     1     -40.635 -53.536  11.555  1.00  0.00    -0.394 OA
HETATM   14  H   UNL     1     -40.425 -52.769  10.990  1.00  0.00     0.210 HD
ENDBRANCH  12  13
BRANCH  12  15
HETATM   15  C   UNL     1     -42.482 -53.787  13.045  1.00  0.00     0.038 C 
BRANCH  15  16
HETATM   16  C   UNL     1     -43.664 -53.155  12.309  1.00  0.00     0.041 C 
BRANCH  16  17
HETATM   17  C   UNL     1     -44.831 -52.933  13.235  1.00  0.00    -0.058 A 
HETATM   18  C   UNL     1     -45.372 -54.006  13.956  1.00  0.00     0.007 A 
HETATM   19  C   UNL     1     -46.467 -53.809  14.797  1.00  0.00     0.001 A 
HETATM   20  C   UNL     1     -47.033 -52.541  14.918  1.00  0.00     0.000 A 
HETATM   21  C   UNL     1     -46.501 -51.470  14.203  1.00  0.00     0.001 A 
HETATM   22  C   UNL     1     -45.405 -51.664  13.362  1.00  0.00     0.007 A 
ENDBRANCH  16  17
ENDBRANCH  15  16
ENDBRANCH  12  15
ENDBRANCH   1  12
TORSDOF 7
ENDMDL
