MODEL 1
REMARK VINA RESULT:      -6.5      0.000      0.000
REMARK  4 active torsions:
REMARK  status: ('A' for Active; 'I' for Inactive)
REMARK    1  A    between atoms: C_4  and  N_5 
REMARK       I    between atoms: N_5  and  C_6 
REMARK       I    between atoms: C_6  and  N_8 
REMARK    2  A    between atoms: N_8  and  C_9 
REMARK    3  A    between atoms: C_9  and  C_10 
REMARK    4  A    between atoms: C_10  and  N_11 
ROOT
HETATM    1  N   UNL     1     -41.527 -47.740  10.184  1.00  0.00    -0.293 N 
HETATM    2  C   UNL     1     -41.058 -48.667  11.072  1.00  0.00     0.321 C 
HETATM    3  O   UNL     1     -39.913 -48.563  11.512  1.00  0.00    -0.247 OA
HETATM    4  N   UNL     1     -41.885 -49.700  11.379  1.00  0.00    -0.341 N 
HETATM    5  H   UNL     1     -40.860 -47.023   9.945  1.00  0.00     0.172 HD
HETATM    6  H   UNL     1     -42.873 -49.541  11.204  1.00  0.00     0.164 HD
ENDROOT
BRANCH   1   7
HETATM    7  C   UNL     1     -42.755 -47.718   9.550  1.00  0.00     0.132 A 
HETATM    8  C   UNL     1     -43.978 -47.355  10.166  1.00  0.00     0.084 A 
HETATM    9  C   UNL     1     -44.913 -47.454   9.163  1.00  0.00     0.076 A 
HETATM   10  C   UNL     1     -46.361 -47.223   9.056  1.00  0.00     0.079 C 
HETATM   11  O   UNL     1     -44.298 -47.862   8.024  1.00  0.00    -0.241 OA
HETATM   12  N   UNL     1     -42.956 -48.031   8.264  1.00  0.00    -0.245 N 
ATOM     13  HN  UNL     1     -42.251 -48.336   7.594  1.00  0.00     0.196 HD
ENDBRANCH   1   7
BRANCH   4  14
HETATM   14  C   UNL     1     -41.546 -50.775  12.285  1.00  0.00     0.154 C 
BRANCH  14  15
HETATM   15  C   UNL     1     -42.404 -50.781  13.563  1.00  0.00     0.292 C 
BRANCH  15  16
HETATM   16  N   UNL     1     -43.484 -51.789  13.574  1.00  0.00     0.094 N 
HETATM   17  C   UNL     1     -44.815 -51.222  13.269  1.00  0.00     0.298 C 
HETATM   18  C   UNL     1     -45.894 -52.324  13.267  1.00  0.00     0.198 C 
HETATM   19  O   UNL     1     -45.581 -53.372  12.338  1.00  0.00    -0.388 OA
HETATM   20  C   UNL     1     -44.295 -53.931  12.641  1.00  0.00     0.198 C 
HETATM   21  C   UNL     1     -43.206 -52.852  12.583  1.00  0.00     0.298 C 
ENDBRANCH  15  16
ENDBRANCH  14  15
ENDBRANCH   4  14
TORSDOF 4
ENDMDL
MODEL 2
REMARK VINA RESULT:      -6.2      2.619      2.957
REMARK  4 active torsions:
REMARK  status: ('A' for Active; 'I' for Inactive)
REMARK    1  A    between atoms: C_4  and  N_5 
REMARK       I    between atoms: N_5  and  C_6 
REMARK       I    between atoms: C_6  and  N_8 
REMARK    2  A    between atoms: N_8  and  C_9 
REMARK    3  A    between atoms: C_9  and  C_10 
REMARK    4  A    between atoms: C_10  and  N_11 
ROOT
HETATM    1  N   UNL     1     -41.989 -46.810   9.976  1.00  0.00    -0.293 N 
HETATM    2  C   UNL     1     -41.037 -47.545  10.624  1.00  0.00     0.321 C 
HETATM    3  O   UNL     1     -40.062 -46.979  11.116  1.00  0.00    -0.247 OA
HETATM    4  N   UNL     1     -41.204 -48.893  10.638  1.00  0.00    -0.341 N 
HETATM    5  H   UNL     1     -41.796 -45.820   9.945  1.00  0.00     0.172 HD
HETATM    6  H   UNL     1     -42.151 -49.222  10.473  1.00  0.00     0.164 HD
ENDROOT
BRANCH   1   7
HETATM    7  C   UNL     1     -43.117 -47.269   9.324  1.00  0.00     0.132 A 
HETATM    8  C   UNL     1     -44.404 -47.376   9.909  1.00  0.00     0.084 A 
HETATM    9  C   UNL     1     -45.205 -47.847   8.897  1.00  0.00     0.076 A 
HETATM   10  C   UNL     1     -46.631 -48.182   8.760  1.00  0.00     0.079 C 
HETATM   11  O   UNL     1     -44.452 -48.024   7.782  1.00  0.00    -0.241 OA
HETATM   12  N   UNL     1     -43.152 -47.669   8.047  1.00  0.00    -0.245 N 
ATOM     13  HN  UNL     1     -42.366 -47.705   7.398  1.00  0.00     0.196 HD
ENDBRANCH   1   7
BRANCH   4  14
HETATM   14  C   UNL     1     -40.288 -49.822  11.263  1.00  0.00     0.154 C 
BRANCH  14  15
HETATM   15  C   UNL     1     -40.507 -49.958  12.781  1.00  0.00     0.292 C 
BRANCH  15  16
HETATM   16  N   UNL     1     -40.521 -51.349  13.278  1.00  0.00     0.094 N 
HETATM   17  C   UNL     1     -40.910 -52.335  12.247  1.00  0.00     0.298 C 
HETATM   18  C   UNL     1     -40.879 -53.767  12.817  1.00  0.00     0.198 C 
HETATM   19  O   UNL     1     -39.590 -54.098  13.352  1.00  0.00    -0.388 OA
HETATM   20  C   UNL     1     -39.218 -53.149  14.362  1.00  0.00     0.198 C 
HETATM   21  C   UNL     1     -39.184 -51.728  13.786  1.00  0.00     0.298 C 
ENDBRANCH  15  16
ENDBRANCH  14  15
ENDBRANCH   4  14
TORSDOF 4
ENDMDL
MODEL 3
REMARK VINA RESULT:      -5.8      2.082      5.934
REMARK  4 active torsions:
REMARK  status: ('A' for Active; 'I' for Inactive)
REMARK    1  A    between atoms: C_4  and  N_5 
REMARK       I    between atoms: N_5  and  C_6 
REMARK       I    between atoms: C_6  and  N_8 
REMARK    2  A    between atoms: N_8  and  C_9 
REMARK    3  A    between atoms: C_9  and  C_10 
REMARK    4  A    between atoms: C_10  and  N_11 
ROOT
HETATM    1  N   UNL     1     -41.760 -52.863  12.845  1.00  0.00    -0.293 N 
HETATM    2  C   UNL     1     -40.828 -52.015  12.315  1.00  0.00     0.321 C 
HETATM    3  O   UNL     1     -39.632 -52.221  12.518  1.00  0.00    -0.247 OA
HETATM    4  N   UNL     1     -41.295 -50.941  11.626  1.00  0.00    -0.341 N 
HETATM    5  H   UNL     1     -41.369 -53.614  13.393  1.00  0.00     0.172 HD
HETATM    6  H   UNL     1     -42.245 -51.021  11.275  1.00  0.00     0.164 HD
ENDROOT
BRANCH   1   7
HETATM    7  C   UNL     1     -43.135 -52.767  12.767  1.00  0.00     0.132 A 
HETATM    8  C   UNL     1     -43.937 -51.926  13.578  1.00  0.00     0.084 A 
HETATM    9  C   UNL     1     -45.221 -52.141  13.137  1.00  0.00     0.076 A 
HETATM   10  C   UNL     1     -46.549 -51.618  13.489  1.00  0.00     0.079 C 
HETATM   11  O   UNL     1     -45.197 -53.058  12.137  1.00  0.00    -0.241 OA
HETATM   12  N   UNL     1     -43.901 -53.452  11.908  1.00  0.00    -0.245 N 
ATOM     13  HN  UNL     1     -43.584 -54.134  11.220  1.00  0.00     0.196 HD
ENDBRANCH   1   7
BRANCH   4  14
HETATM   14  C   UNL     1     -40.454 -49.936  11.013  1.00  0.00     0.154 C 
BRANCH  14  15
HETATM   15  C   UNL     1     -40.334 -48.653  11.855  1.00  0.00     0.292 C 
BRANCH  15  16
HETATM   16  N   UNL     1     -41.223 -47.553  11.430  1.00  0.00     0.094 N 
HETATM   17  C   UNL     1     -40.498 -46.305  11.108  1.00  0.00     0.298 C 
HETATM   18  C   UNL     1     -41.475 -45.206  10.644  1.00  0.00     0.198 C 
HETATM   19  O   UNL     1     -42.252 -45.628   9.515  1.00  0.00    -0.388 OA
HETATM   20  C   UNL     1     -42.966 -46.832   9.830  1.00  0.00     0.198 C 
HETATM   21  C   UNL     1     -41.996 -47.950  10.232  1.00  0.00     0.298 C 
ENDBRANCH  15  16
ENDBRANCH  14  15
ENDBRANCH   4  14
TORSDOF 4
ENDMDL
MODEL 4
REMARK VINA RESULT:      -5.7      3.089      4.277
REMARK  4 active torsions:
REMARK  status: ('A' for Active; 'I' for Inactive)
REMARK    1  A    between atoms: C_4  and  N_5 
REMARK       I    between atoms: N_5  and  C_6 
REMARK       I    between atoms: C_6  and  N_8 
REMARK    2  A    between atoms: N_8  and  C_9 
REMARK    3  A    between atoms: C_9  and  C_10 
REMARK    4  A    between atoms: C_10  and  N_11 
ROOT
HETATM    1  N   UNL     1     -42.049 -46.809   9.942  1.00  0.00    -0.293 N 
HETATM    2  C   UNL     1     -41.083 -47.522  10.596  1.00  0.00     0.321 C 
HETATM    3  O   UNL     1     -40.133 -46.932  11.108  1.00  0.00    -0.247 OA
HETATM    4  N   UNL     1     -41.209 -48.875  10.592  1.00  0.00    -0.341 N 
HETATM    5  H   UNL     1     -41.885 -45.814   9.925  1.00  0.00     0.172 HD
HETATM    6  H   UNL     1     -42.143 -49.231  10.410  1.00  0.00     0.164 HD
ENDROOT
BRANCH   1   7
HETATM    7  C   UNL     1     -43.153 -47.294   9.269  1.00  0.00     0.132 A 
HETATM    8  C   UNL     1     -44.454 -47.404   9.820  1.00  0.00     0.084 A 
HETATM    9  C   UNL     1     -45.222 -47.906   8.796  1.00  0.00     0.076 A 
HETATM   10  C   UNL     1     -46.638 -48.259   8.627  1.00  0.00     0.079 C 
HETATM   11  O   UNL     1     -44.435 -48.098   7.707  1.00  0.00    -0.241 OA
HETATM   12  N   UNL     1     -43.147 -47.722   8.001  1.00  0.00    -0.245 N 
ATOM     13  HN  UNL     1     -42.343 -47.762   7.375  1.00  0.00     0.196 HD
ENDBRANCH   1   7
BRANCH   4  14
HETATM   14  C   UNL     1     -40.274 -49.783  11.220  1.00  0.00     0.154 C 
BRANCH  14  15
HETATM   15  C   UNL     1     -40.728 -50.248  12.615  1.00  0.00     0.292 C 
BRANCH  15  16
HETATM   16  N   UNL     1     -39.745 -50.012  13.693  1.00  0.00     0.094 N 
HETATM   17  C   UNL     1     -39.223 -51.258  14.292  1.00  0.00     0.298 C 
HETATM   18  C   UNL     1     -38.183 -50.947  15.388  1.00  0.00     0.198 C 
HETATM   19  O   UNL     1     -37.101 -50.153  14.882  1.00  0.00    -0.388 OA
HETATM   20  C   UNL     1     -37.606 -48.938  14.312  1.00  0.00     0.198 C 
HETATM   21  C   UNL     1     -38.594 -49.239  13.177  1.00  0.00     0.298 C 
ENDBRANCH  15  16
ENDBRANCH  14  15
ENDBRANCH   4  14
TORSDOF 4
ENDMDL
MODEL 5
REMARK VINA RESULT:      -5.5      1.467      1.824
REMARK  4 active torsions:
REMARK  status: ('A' for Active; 'I' for Inactive)
REMARK    1  A    between atoms: C_4  and  N_5 
REMARK       I    between atoms: N_5  and  C_6 
REMARK       I    between atoms: C_6  and  N_8 
REMARK    2  A    between atoms: N_8  and  C_9 
REMARK    3  A    between atoms: C_9  and  C_10 
REMARK    4  A    between atoms: C_10  and  N_11 
ROOT
HETATM    1  N   UNL     1     -41.471 -48.494  11.798  1.00  0.00    -0.293 N 
HETATM    2  C   UNL     1     -41.385 -49.698  12.439  1.00  0.00     0.321 C 
HETATM    3  O   UNL     1     -40.545 -49.857  13.324  1.00  0.00    -0.247 OA
HETATM    4  N   UNL     1     -42.217 -50.684  12.012  1.00  0.00    -0.341 N 
HETATM    5  H   UNL     1     -40.798 -47.811  12.112  1.00  0.00     0.172 HD
HETATM    6  H   UNL     1     -43.041 -50.376  11.504  1.00  0.00     0.164 HD
ENDROOT
BRANCH   1   7
HETATM    7  C   UNL     1     -42.308 -48.146  10.756  1.00  0.00     0.132 A 
HETATM    8  C   UNL     1     -43.609 -47.605  10.908  1.00  0.00     0.084 A 
HETATM    9  C   UNL     1     -44.049 -47.395   9.624  1.00  0.00     0.076 A 
HETATM   10  C   UNL     1     -45.272 -46.856   9.011  1.00  0.00     0.079 C 
HETATM   11  O   UNL     1     -43.085 -47.792   8.756  1.00  0.00    -0.241 OA
HETATM   12  N   UNL     1     -42.003 -48.264   9.458  1.00  0.00    -0.245 N 
ATOM     13  HN  UNL     1     -41.136 -48.633   9.067  1.00  0.00     0.196 HD
ENDBRANCH   1   7
BRANCH   4  14
HETATM   14  C   UNL     1     -42.250 -52.020  12.566  1.00  0.00     0.154 C 
BRANCH  14  15
HETATM   15  C   UNL     1     -43.597 -52.731  12.346  1.00  0.00     0.292 C 
BRANCH  15  16
HETATM   16  N   UNL     1     -44.521 -52.670  13.497  1.00  0.00     0.094 N 
HETATM   17  C   UNL     1     -45.485 -51.552  13.414  1.00  0.00     0.298 C 
HETATM   18  C   UNL     1     -46.437 -51.558  14.627  1.00  0.00     0.198 C 
HETATM   19  O   UNL     1     -47.139 -52.804  14.745  1.00  0.00    -0.388 OA
HETATM   20  C   UNL     1     -46.204 -53.888  14.838  1.00  0.00     0.198 C 
HETATM   21  C   UNL     1     -45.293 -53.928  13.604  1.00  0.00     0.298 C 
ENDBRANCH  15  16
ENDBRANCH  14  15
ENDBRANCH   4  14
TORSDOF 4
ENDMDL
MODEL 6
REMARK VINA RESULT:      -5.4      3.820      5.640
REMARK  4 active torsions:
REMARK  status: ('A' for Active; 'I' for Inactive)
REMARK    1  A    between atoms: C_4  and  N_5 
REMARK       I    between atoms: N_5  and  C_6 
REMARK       I    between atoms: C_6  and  N_8 
REMARK    2  A    between atoms: N_8  and  C_9 
REMARK    3  A    between atoms: C_9  and  C_10 
REMARK    4  A    between atoms: C_10  and  N_11 
ROOT
HETATM    1  N   UNL     1     -42.870 -53.744  12.537  1.00  0.00    -0.293 N 
HETATM    2  C   UNL     1     -44.231 -53.626  12.583  1.00  0.00     0.321 C 
HETATM    3  O   UNL     1     -44.929 -54.638  12.612  1.00  0.00    -0.247 OA
HETATM    4  N   UNL     1     -44.742 -52.367  12.539  1.00  0.00    -0.341 N 
HETATM    5  H   UNL     1     -42.540 -54.696  12.518  1.00  0.00     0.172 HD
HETATM    6  H   UNL     1     -44.104 -51.623  12.807  1.00  0.00     0.164 HD
ENDROOT
BRANCH   1   7
HETATM    7  C   UNL     1     -41.934 -52.732  12.451  1.00  0.00     0.132 A 
HETATM    8  C   UNL     1     -41.418 -52.009  13.555  1.00  0.00     0.084 A 
HETATM    9  C   UNL     1     -40.512 -51.135  13.004  1.00  0.00     0.076 A 
HETATM   10  C   UNL     1     -39.600 -50.106  13.524  1.00  0.00     0.079 C 
HETATM   11  O   UNL     1     -40.490 -51.312  11.658  1.00  0.00    -0.241 OA
HETATM   12  N   UNL     1     -41.378 -52.301  11.312  1.00  0.00    -0.245 N 
ATOM     13  HN  UNL     1     -41.575 -52.641  10.371  1.00  0.00     0.196 HD
ENDBRANCH   1   7
BRANCH   4  14
HETATM   14  C   UNL     1     -46.155 -52.059  12.562  1.00  0.00     0.154 C 
BRANCH  14  15
HETATM   15  C   UNL     1     -46.610 -51.411  13.882  1.00  0.00     0.292 C 
BRANCH  15  16
HETATM   16  N   UNL     1     -45.942 -51.940  15.089  1.00  0.00     0.094 N 
HETATM   17  C   UNL     1     -46.030 -51.031  16.252  1.00  0.00     0.298 C 
HETATM   18  C   UNL     1     -45.341 -51.649  17.485  1.00  0.00     0.198 C 
HETATM   19  O   UNL     1     -45.897 -52.929  17.819  1.00  0.00    -0.388 OA
HETATM   20  C   UNL     1     -45.801 -53.815  16.695  1.00  0.00     0.198 C 
HETATM   21  C   UNL     1     -46.539 -53.236  15.481  1.00  0.00     0.298 C 
ENDBRANCH  15  16
ENDBRANCH  14  15
ENDBRANCH   4  14
TORSDOF 4
ENDMDL
MODEL 7
REMARK VINA RESULT:      -5.3      2.482      3.305
REMARK  4 active torsions:
REMARK  status: ('A' for Active; 'I' for Inactive)
REMARK    1  A    between atoms: C_4  and  N_5 
REMARK       I    between atoms: N_5  and  C_6 
REMARK       I    between atoms: C_6  and  N_8 
REMARK    2  A    between atoms: N_8  and  C_9 
REMARK    3  A    between atoms: C_9  and  C_10 
REMARK    4  A    between atoms: C_10  and  N_11 
ROOT
HETATM    1  N   UNL     1     -41.272 -50.161  11.351  1.00  0.00    -0.293 N 
HETATM    2  C   UNL     1     -42.054 -50.830  12.249  1.00  0.00     0.321 C 
HETATM    3  O   UNL     1     -41.857 -52.027  12.455  1.00  0.00    -0.247 OA
HETATM    4  N   UNL     1     -43.059 -50.127  12.835  1.00  0.00    -0.341 N 
HETATM    5  H   UNL     1     -40.575 -50.735  10.903  1.00  0.00     0.172 HD
HETATM    6  H   UNL     1     -42.954 -49.117  12.826  1.00  0.00     0.164 HD
ENDROOT
BRANCH   1   7
HETATM    7  C   UNL     1     -41.373 -48.841  10.956  1.00  0.00     0.132 A 
HETATM    8  C   UNL     1     -40.541 -47.791  11.418  1.00  0.00     0.084 A 
HETATM    9  C   UNL     1     -40.985 -46.677  10.747  1.00  0.00     0.076 A 
HETATM   10  C   UNL     1     -40.600 -45.258  10.704  1.00  0.00     0.079 C 
HETATM   11  O   UNL     1     -42.021 -47.028   9.944  1.00  0.00    -0.241 OA
HETATM   12  N   UNL     1     -42.267 -48.373  10.077  1.00  0.00    -0.245 N 
ATOM     13  HN  UNL     1     -42.991 -48.910   9.599  1.00  0.00     0.196 HD
ENDBRANCH   1   7
BRANCH   4  14
HETATM   14  C   UNL     1     -43.989 -50.680  13.795  1.00  0.00     0.154 C 
BRANCH  14  15
HETATM   15  C   UNL     1     -45.252 -51.271  13.142  1.00  0.00     0.292 C 
BRANCH  15  16
HETATM   16  N   UNL     1     -45.672 -52.578  13.689  1.00  0.00     0.094 N 
HETATM   17  C   UNL     1     -44.931 -53.719  13.112  1.00  0.00     0.298 C 
HETATM   18  C   UNL     1     -45.393 -55.049  13.741  1.00  0.00     0.198 C 
HETATM   19  O   UNL     1     -45.248 -55.040  15.168  1.00  0.00    -0.388 OA
HETATM   20  C   UNL     1     -45.978 -53.940  15.730  1.00  0.00     0.198 C 
HETATM   21  C   UNL     1     -45.480 -52.607  15.156  1.00  0.00     0.298 C 
ENDBRANCH  15  16
ENDBRANCH  14  15
ENDBRANCH   4  14
TORSDOF 4
ENDMDL
MODEL 8
REMARK VINA RESULT:      -5.0      4.086      6.345
REMARK  4 active torsions:
REMARK  status: ('A' for Active; 'I' for Inactive)
REMARK    1  A    between atoms: C_4  and  N_5 
REMARK       I    between atoms: N_5  and  C_6 
REMARK       I    between atoms: C_6  and  N_8 
REMARK    2  A    between atoms: N_8  and  C_9 
REMARK    3  A    between atoms: C_9  and  C_10 
REMARK    4  A    between atoms: C_10  and  N_11 
ROOT
HETATM    1  N   UNL     1     -43.438 -53.104  11.938  1.00  0.00    -0.293 N 
HETATM    2  C   UNL     1     -43.965 -53.898  12.917  1.00  0.00     0.321 C 
HETATM    3  O   UNL     1     -44.979 -54.556  12.687  1.00  0.00    -0.247 OA
HETATM    4  N   UNL     1     -43.352 -53.870  14.129  1.00  0.00    -0.341 N 
HETATM    5  H   UNL     1     -43.957 -53.117  11.073  1.00  0.00     0.172 HD
HETATM    6  H   UNL     1     -42.390 -53.541  14.130  1.00  0.00     0.164 HD
ENDROOT
BRANCH   1   7
HETATM    7  C   UNL     1     -42.345 -52.264  12.024  1.00  0.00     0.132 A 
HETATM    8  C   UNL     1     -42.296 -51.074  12.791  1.00  0.00     0.084 A 
HETATM    9  C   UNL     1     -41.024 -50.589  12.597  1.00  0.00     0.076 A 
HETATM   10  C   UNL     1     -40.263 -49.426  13.076  1.00  0.00     0.079 C 
HETATM   11  O   UNL     1     -40.357 -51.423  11.760  1.00  0.00    -0.241 OA
HETATM   12  N   UNL     1     -41.178 -52.463  11.398  1.00  0.00    -0.245 N 
ATOM     13  HN  UNL     1     -40.944 -53.235  10.775  1.00  0.00     0.196 HD
ENDBRANCH   1   7
BRANCH   4  14
HETATM   14  C   UNL     1     -43.783 -54.633  15.280  1.00  0.00     0.154 C 
BRANCH  14  15
HETATM   15  C   UNL     1     -42.758 -54.627  16.428  1.00  0.00     0.292 C 
BRANCH  15  16
HETATM   16  N   UNL     1     -41.564 -55.464  16.190  1.00  0.00     0.094 N 
HETATM   17  C   UNL     1     -40.324 -54.678  16.014  1.00  0.00     0.298 C 
HETATM   18  C   UNL     1     -39.111 -55.606  15.798  1.00  0.00     0.198 C 
HETATM   19  O   UNL     1     -38.955 -56.534  16.880  1.00  0.00    -0.388 OA
HETATM   20  C   UNL     1     -40.152 -57.307  17.044  1.00  0.00     0.198 C 
HETATM   21  C   UNL     1     -41.354 -56.394  17.322  1.00  0.00     0.298 C 
ENDBRANCH  15  16
ENDBRANCH  14  15
ENDBRANCH   4  14
TORSDOF 4
ENDMDL
MODEL 9
REMARK VINA RESULT:      -5.0      2.344      3.037
REMARK  4 active torsions:
REMARK  status: ('A' for Active; 'I' for Inactive)
REMARK    1  A    between atoms: C_4  and  N_5 
REMARK       I    between atoms: N_5  and  C_6 
REMARK       I    between atoms: C_6  and  N_8 
REMARK    2  A    between atoms: N_8  and  C_9 
REMARK    3  A    between atoms: C_9  and  C_10 
REMARK    4  A    between atoms: C_10  and  N_11 
ROOT
HETATM    1  N   UNL     1     -39.616 -49.984  11.738  1.00  0.00    -0.293 N 
HETATM    2  C   UNL     1     -39.966 -51.030  12.545  1.00  0.00     0.321 C 
HETATM    3  O   UNL     1     -39.121 -51.867  12.857  1.00  0.00    -0.247 OA
HETATM    4  N   UNL     1     -41.271 -51.110  12.918  1.00  0.00    -0.341 N 
HETATM    5  H   UNL     1     -38.651 -49.996  11.444  1.00  0.00     0.172 HD
HETATM    6  H   UNL     1     -41.800 -50.245  12.858  1.00  0.00     0.164 HD
ENDROOT
BRANCH   1   7
HETATM    7  C   UNL     1     -40.430 -48.983  11.245  1.00  0.00     0.132 A 
HETATM    8  C   UNL     1     -40.486 -47.661  11.752  1.00  0.00     0.084 A 
HETATM    9  C   UNL     1     -41.400 -47.021  10.951  1.00  0.00     0.076 A 
HETATM   10  C   UNL     1     -41.949 -45.660  10.870  1.00  0.00     0.079 C 
HETATM   11  O   UNL     1     -41.873 -47.900  10.031  1.00  0.00    -0.241 OA
HETATM   12  N   UNL     1     -41.274 -49.122  10.216  1.00  0.00    -0.245 N 
ATOM     13  HN  UNL     1     -41.440 -49.970   9.674  1.00  0.00     0.196 HD
ENDBRANCH   1   7
BRANCH   4  14
HETATM   14  C   UNL     1     -41.818 -52.156  13.754  1.00  0.00     0.154 C 
BRANCH  14  15
HETATM   15  C   UNL     1     -42.213 -53.416  12.965  1.00  0.00     0.292 C 
BRANCH  15  16
HETATM   16  N   UNL     1     -43.661 -53.710  12.959  1.00  0.00     0.094 N 
HETATM   17  C   UNL     1     -44.088 -54.572  14.082  1.00  0.00     0.298 C 
HETATM   18  C   UNL     1     -45.609 -54.818  14.037  1.00  0.00     0.198 C 
HETATM   19  O   UNL     1     -46.347 -53.588  14.055  1.00  0.00    -0.388 OA
HETATM   20  C   UNL     1     -45.943 -52.756  12.959  1.00  0.00     0.198 C 
HETATM   21  C   UNL     1     -44.440 -52.453  13.031  1.00  0.00     0.298 C 
ENDBRANCH  15  16
ENDBRANCH  14  15
ENDBRANCH   4  14
TORSDOF 4
ENDMDL
