MODEL 1
REMARK VINA RESULT:      -6.3      0.000      0.000
REMARK  3 active torsions:
REMARK  status: ('A' for Active; 'I' for Inactive)
REMARK    1  A    between atoms: C_5  and  N_8 
REMARK    2  A    between atoms: C_11  and  N_14 
REMARK       I    between atoms: N_14  and  C_15 
REMARK       I    between atoms: C_15  and  N_17 
REMARK    3  A    between atoms: N_17  and  C_18 
ROOT
HETATM    1  N   UNL     1     -42.202 -51.497  12.735  1.00  0.00    -0.338 N 
HETATM    2  C   UNL     1     -42.509 -50.188  12.438  1.00  0.00     0.322 C 
HETATM    3  O   UNL     1     -43.400 -49.568  13.005  1.00  0.00    -0.247 OA
HETATM    4  N   UNL     1     -41.733 -49.721  11.406  1.00  0.00    -0.295 N 
HETATM    5  H   UNL     1     -41.219 -51.719  12.655  1.00  0.00     0.164 HD
HETATM    6  H   UNL     1     -41.538 -50.402  10.687  1.00  0.00     0.172 HD
ENDROOT
BRANCH   1   7
HETATM    7  C   UNL     1     -42.996 -52.241  13.710  1.00  0.00     0.089 C 
HETATM    8  C   UNL     1     -42.671 -51.831  15.151  1.00  0.00     0.055 C 
HETATM    9  C   UNL     1     -41.350 -52.440  15.623  1.00  0.00     0.275 C 
HETATM   10  N   UNL     1     -41.300 -53.908  15.490  1.00  0.00     0.093 N 
HETATM   11  C   UNL     1     -41.497 -54.252  14.069  1.00  0.00     0.275 C 
HETATM   12  C   UNL     1     -42.824 -53.748  13.501  1.00  0.00     0.055 C 
BRANCH  10  13
HETATM   13  C   UNL     1     -42.200 -54.635  16.429  1.00  0.00     0.226 C 
HETATM   14  C   UNL     1     -42.012 -54.204  17.903  1.00  0.00     0.066 C 
HETATM   15  C   UNL     1     -40.661 -54.660  18.464  1.00  0.00     0.274 C 
HETATM   16  N   UNL     1     -40.440 -56.111  18.369  1.00  0.00     0.084 N 
HETATM   17  C   UNL     1     -41.244 -56.858  19.334  1.00  0.00     0.309 C 
HETATM   18  C   UNL     1     -40.650 -56.576  16.990  1.00  0.00     0.274 C 
HETATM   19  C   UNL     1     -42.006 -56.169  16.406  1.00  0.00     0.066 C 
ENDBRANCH  10  13
ENDBRANCH   1   7
BRANCH   4  20
HETATM   20  C   UNL     1     -41.903 -48.438  10.881  1.00  0.00     0.109 A 
HETATM   21  C   UNL     1     -40.958 -47.441  11.075  1.00  0.00     0.055 A 
HETATM   22  C   UNL     1     -41.188 -46.177  10.537  1.00  0.00    -0.057 A 
HETATM   23  C   UNL     1     -40.173 -45.083  10.665  1.00  0.00     0.048 C 
HETATM   24  C   UNL     1     -42.391 -45.953   9.867  1.00  0.00     0.031 A 
HETATM   25  C   UNL     1     -43.285 -47.010   9.708  1.00  0.00     0.007 A 
HETATM   26  C   UNL     1     -44.620 -46.793   9.062  1.00  0.00     0.068 C 
HETATM   27  N   UNL     1     -43.031 -48.257  10.169  1.00  0.00    -0.346 N 
ATOM     28  HN  UNL     1     -43.670 -49.030   9.983  1.00  0.00     0.167 HD
ENDBRANCH   4  20
TORSDOF 3
ENDMDL
MODEL 2
REMARK VINA RESULT:      -6.2      3.073      9.502
REMARK  3 active torsions:
REMARK  status: ('A' for Active; 'I' for Inactive)
REMARK    1  A    between atoms: C_5  and  N_8 
REMARK    2  A    between atoms: C_11  and  N_14 
REMARK       I    between atoms: N_14  and  C_15 
REMARK       I    between atoms: C_15  and  N_17 
REMARK    3  A    between atoms: N_17  and  C_18 
ROOT
HETATM    1  N   UNL     1     -42.296 -48.271  11.240  1.00  0.00    -0.338 N 
HETATM    2  C   UNL     1     -42.571 -49.428  11.934  1.00  0.00     0.322 C 
HETATM    3  O   UNL     1     -43.475 -49.512  12.757  1.00  0.00    -0.247 OA
HETATM    4  N   UNL     1     -41.674 -50.418  11.619  1.00  0.00    -0.295 N 
HETATM    5  H   UNL     1     -41.970 -48.424  10.296  1.00  0.00     0.164 HD
HETATM    6  H   UNL     1     -40.729 -50.095  11.469  1.00  0.00     0.172 HD
ENDROOT
BRANCH   1   7
HETATM    7  C   UNL     1     -43.041 -47.046  11.518  1.00  0.00     0.089 C 
HETATM    8  C   UNL     1     -42.704 -45.928  10.526  1.00  0.00     0.055 C 
HETATM    9  C   UNL     1     -41.351 -45.287  10.841  1.00  0.00     0.275 C 
HETATM   10  N   UNL     1     -41.247 -44.786  12.224  1.00  0.00     0.093 N 
HETATM   11  C   UNL     1     -41.459 -45.919  13.145  1.00  0.00     0.275 C 
HETATM   12  C   UNL     1     -42.816 -46.601  12.966  1.00  0.00     0.055 C 
BRANCH  10  13
HETATM   13  C   UNL     1     -42.100 -43.596  12.505  1.00  0.00     0.226 C 
HETATM   14  C   UNL     1     -41.718 -42.362  11.654  1.00  0.00     0.066 C 
HETATM   15  C   UNL     1     -40.358 -41.785  12.063  1.00  0.00     0.274 C 
HETATM   16  N   UNL     1     -40.275 -41.417  13.484  1.00  0.00     0.084 N 
HETATM   17  C   UNL     1     -41.031 -40.205  13.787  1.00  0.00     0.309 C 
HETATM   18  C   UNL     1     -40.672 -42.548  14.335  1.00  0.00     0.274 C 
HETATM   19  C   UNL     1     -42.043 -43.132  13.979  1.00  0.00     0.066 C 
ENDBRANCH  10  13
ENDBRANCH   1   7
BRANCH   4  20
HETATM   20  C   UNL     1     -41.707 -51.668  12.243  1.00  0.00     0.109 A 
HETATM   21  C   UNL     1     -40.558 -52.263  12.742  1.00  0.00     0.055 A 
HETATM   22  C   UNL     1     -40.652 -53.516  13.344  1.00  0.00    -0.057 A 
HETATM   23  C   UNL     1     -39.453 -54.175  13.953  1.00  0.00     0.048 C 
HETATM   24  C   UNL     1     -41.897 -54.144  13.371  1.00  0.00     0.031 A 
HETATM   25  C   UNL     1     -43.005 -53.475  12.855  1.00  0.00     0.007 A 
HETATM   26  C   UNL     1     -44.345 -54.145  12.795  1.00  0.00     0.068 C 
HETATM   27  N   UNL     1     -42.928 -52.228  12.334  1.00  0.00    -0.346 N 
ATOM     28  HN  UNL     1     -43.763 -51.732  12.022  1.00  0.00     0.167 HD
ENDBRANCH   4  20
TORSDOF 3
ENDMDL
MODEL 3
REMARK VINA RESULT:      -6.2      3.083      9.858
REMARK  3 active torsions:
REMARK  status: ('A' for Active; 'I' for Inactive)
REMARK    1  A    between atoms: C_5  and  N_8 
REMARK    2  A    between atoms: C_11  and  N_14 
REMARK       I    between atoms: N_14  and  C_15 
REMARK       I    between atoms: C_15  and  N_17 
REMARK    3  A    between atoms: N_17  and  C_18 
ROOT
HETATM    1  N   UNL     1     -41.113 -48.541  11.667  1.00  0.00    -0.338 N 
HETATM    2  C   UNL     1     -41.204 -49.665  12.457  1.00  0.00     0.322 C 
HETATM    3  O   UNL     1     -40.742 -49.721  13.590  1.00  0.00    -0.247 OA
HETATM    4  N   UNL     1     -41.815 -50.694  11.784  1.00  0.00    -0.295 N 
HETATM    5  H   UNL     1     -41.912 -48.394  11.066  1.00  0.00     0.164 HD
HETATM    6  H   UNL     1     -41.586 -50.747  10.802  1.00  0.00     0.172 HD
ENDROOT
BRANCH   1   7
HETATM    7  C   UNL     1     -40.379 -47.367  12.131  1.00  0.00     0.089 C 
HETATM    8  C   UNL     1     -41.065 -46.692  13.324  1.00  0.00     0.055 C 
HETATM    9  C   UNL     1     -42.280 -45.873  12.883  1.00  0.00     0.275 C 
HETATM   10  N   UNL     1     -41.968 -44.873  11.845  1.00  0.00     0.093 N 
HETATM   11  C   UNL     1     -41.422 -45.578  10.670  1.00  0.00     0.275 C 
HETATM   12  C   UNL     1     -40.159 -46.384  10.978  1.00  0.00     0.055 C 
BRANCH  10  13
HETATM   13  C   UNL     1     -41.129 -43.739  12.327  1.00  0.00     0.226 C 
HETATM   14  C   UNL     1     -41.725 -43.027  13.563  1.00  0.00     0.066 C 
HETATM   15  C   UNL     1     -43.001 -42.251  13.216  1.00  0.00     0.274 C 
HETATM   16  N   UNL     1     -42.817 -41.258  12.147  1.00  0.00     0.084 N 
HETATM   17  C   UNL     1     -42.070 -40.088  12.602  1.00  0.00     0.309 C 
HETATM   18  C   UNL     1     -42.210 -41.881  10.962  1.00  0.00     0.274 C 
HETATM   19  C   UNL     1     -40.913 -42.638  11.263  1.00  0.00     0.066 C 
ENDBRANCH  10  13
ENDBRANCH   1   7
BRANCH   4  20
HETATM   20  C   UNL     1     -41.965 -51.960  12.356  1.00  0.00     0.109 A 
HETATM   21  C   UNL     1     -43.217 -52.527  12.549  1.00  0.00     0.055 A 
HETATM   22  C   UNL     1     -43.305 -53.788  13.134  1.00  0.00    -0.057 A 
HETATM   23  C   UNL     1     -44.626 -54.471  13.309  1.00  0.00     0.048 C 
HETATM   24  C   UNL     1     -42.126 -54.405  13.553  1.00  0.00     0.031 A 
HETATM   25  C   UNL     1     -40.908 -53.772  13.316  1.00  0.00     0.007 A 
HETATM   26  C   UNL     1     -39.626 -54.366  13.817  1.00  0.00     0.068 C 
HETATM   27  N   UNL     1     -40.816 -52.579  12.682  1.00  0.00    -0.346 N 
ATOM     28  HN  UNL     1     -39.910 -52.166  12.461  1.00  0.00     0.167 HD
ENDBRANCH   4  20
TORSDOF 3
ENDMDL
MODEL 4
REMARK VINA RESULT:      -6.2      1.555      1.697
REMARK  3 active torsions:
REMARK  status: ('A' for Active; 'I' for Inactive)
REMARK    1  A    between atoms: C_5  and  N_8 
REMARK    2  A    between atoms: C_11  and  N_14 
REMARK       I    between atoms: N_14  and  C_15 
REMARK       I    between atoms: C_15  and  N_17 
REMARK    3  A    between atoms: N_17  and  C_18 
ROOT
HETATM    1  N   UNL     1     -41.220 -51.441  12.406  1.00  0.00    -0.338 N 
HETATM    2  C   UNL     1     -41.702 -50.161  12.250  1.00  0.00     0.322 C 
HETATM    3  O   UNL     1     -42.476 -49.640  13.045  1.00  0.00    -0.247 OA
HETATM    4  N   UNL     1     -41.250 -49.600  11.081  1.00  0.00    -0.295 N 
HETATM    5  H   UNL     1     -40.272 -51.567  12.078  1.00  0.00     0.164 HD
HETATM    6  H   UNL     1     -41.182 -50.245  10.307  1.00  0.00     0.172 HD
ENDROOT
BRANCH   1   7
HETATM    7  C   UNL     1     -41.680 -52.276  13.512  1.00  0.00     0.089 C 
HETATM    8  C   UNL     1     -41.255 -51.715  14.873  1.00  0.00     0.055 C 
HETATM    9  C   UNL     1     -39.778 -51.992  15.157  1.00  0.00     0.275 C 
HETATM   10  N   UNL     1     -39.418 -53.419  15.062  1.00  0.00     0.093 N 
HETATM   11  C   UNL     1     -39.733 -53.887  13.699  1.00  0.00     0.275 C 
HETATM   12  C   UNL     1     -41.206 -53.720  13.324  1.00  0.00     0.055 C 
BRANCH  10  13
HETATM   13  C   UNL     1     -39.990 -54.263  16.149  1.00  0.00     0.226 C 
HETATM   14  C   UNL     1     -39.672 -53.726  17.564  1.00  0.00     0.066 C 
HETATM   15  C   UNL     1     -38.185 -53.866  17.908  1.00  0.00     0.274 C 
HETATM   16  N   UNL     1     -37.682 -55.243  17.807  1.00  0.00     0.084 N 
HETATM   17  C   UNL     1     -38.152 -56.086  18.904  1.00  0.00     0.309 C 
HETATM   18  C   UNL     1     -37.999 -55.815  16.490  1.00  0.00     0.274 C 
HETATM   19  C   UNL     1     -39.484 -55.724  16.125  1.00  0.00     0.066 C 
ENDBRANCH  10  13
ENDBRANCH   1   7
BRANCH   4  20
HETATM   20  C   UNL     1     -41.655 -48.328  10.670  1.00  0.00     0.109 A 
HETATM   21  C   UNL     1     -40.890 -47.201  10.932  1.00  0.00     0.055 A 
HETATM   22  C   UNL     1     -41.350 -45.957  10.507  1.00  0.00    -0.057 A 
HETATM   23  C   UNL     1     -40.535 -44.718  10.710  1.00  0.00     0.048 C 
HETATM   24  C   UNL     1     -42.595 -45.893   9.880  1.00  0.00     0.031 A 
HETATM   25  C   UNL     1     -43.299 -47.073   9.648  1.00  0.00     0.007 A 
HETATM   26  C   UNL     1     -44.671 -47.040   9.047  1.00  0.00     0.068 C 
HETATM   27  N   UNL     1     -42.820 -48.290   9.996  1.00  0.00    -0.346 N 
ATOM     28  HN  UNL     1     -43.322 -49.145   9.756  1.00  0.00     0.167 HD
ENDBRANCH   4  20
TORSDOF 3
ENDMDL
MODEL 5
REMARK VINA RESULT:      -6.1      3.843      9.405
REMARK  3 active torsions:
REMARK  status: ('A' for Active; 'I' for Inactive)
REMARK    1  A    between atoms: C_5  and  N_8 
REMARK    2  A    between atoms: C_11  and  N_14 
REMARK       I    between atoms: N_14  and  C_15 
REMARK       I    between atoms: C_15  and  N_17 
REMARK    3  A    between atoms: N_17  and  C_18 
ROOT
HETATM    1  N   UNL     1     -42.961 -49.293  12.042  1.00  0.00    -0.338 N 
HETATM    2  C   UNL     1     -43.509 -50.036  13.064  1.00  0.00     0.322 C 
HETATM    3  O   UNL     1     -43.015 -50.094  14.183  1.00  0.00    -0.247 OA
HETATM    4  N   UNL     1     -44.617 -50.723  12.635  1.00  0.00    -0.295 N 
HETATM    5  H   UNL     1     -43.643 -48.884  11.418  1.00  0.00     0.164 HD
HETATM    6  H   UNL     1     -44.552 -51.076  11.691  1.00  0.00     0.172 HD
ENDROOT
BRANCH   1   7
HETATM    7  C   UNL     1     -41.697 -48.587  12.235  1.00  0.00     0.089 C 
HETATM    8  C   UNL     1     -41.732 -47.668  13.461  1.00  0.00     0.055 C 
HETATM    9  C   UNL     1     -42.512 -46.383  13.177  1.00  0.00     0.275 C 
HETATM   10  N   UNL     1     -42.016 -45.643  12.001  1.00  0.00     0.093 N 
HETATM   11  C   UNL     1     -42.113 -46.525  10.823  1.00  0.00     0.275 C 
HETATM   12  C   UNL     1     -41.313 -47.821  10.967  1.00  0.00     0.055 C 
BRANCH  10  13
HETATM   13  C   UNL     1     -40.676 -45.021  12.196  1.00  0.00     0.226 C 
HETATM   14  C   UNL     1     -40.535 -44.299  13.557  1.00  0.00     0.066 C 
HETATM   15  C   UNL     1     -41.398 -43.035  13.625  1.00  0.00     0.274 C 
HETATM   16  N   UNL     1     -41.120 -42.069  12.552  1.00  0.00     0.084 N 
HETATM   17  C   UNL     1     -39.850 -41.374  12.749  1.00  0.00     0.309 C 
HETATM   18  C   UNL     1     -41.199 -42.721  11.236  1.00  0.00     0.274 C 
HETATM   19  C   UNL     1     -40.322 -43.971  11.117  1.00  0.00     0.066 C 
ENDBRANCH  10  13
ENDBRANCH   1   7
BRANCH   4  20
HETATM   20  C   UNL     1     -45.311 -51.598  13.475  1.00  0.00     0.109 A 
HETATM   21  C   UNL     1     -46.094 -51.134  14.521  1.00  0.00     0.055 A 
HETATM   22  C   UNL     1     -46.754 -52.054  15.333  1.00  0.00    -0.057 A 
HETATM   23  C   UNL     1     -47.660 -51.605  16.437  1.00  0.00     0.048 C 
HETATM   24  C   UNL     1     -46.552 -53.413  15.089  1.00  0.00     0.031 A 
HETATM   25  C   UNL     1     -45.755 -53.797  14.013  1.00  0.00     0.007 A 
HETATM   26  C   UNL     1     -45.452 -55.244  13.763  1.00  0.00     0.068 C 
HETATM   27  N   UNL     1     -45.171 -52.904  13.180  1.00  0.00    -0.346 N 
ATOM     28  HN  UNL     1     -44.647 -53.209  12.360  1.00  0.00     0.167 HD
ENDBRANCH   4  20
TORSDOF 3
ENDMDL
MODEL 6
REMARK VINA RESULT:      -6.1      1.693      2.170
REMARK  3 active torsions:
REMARK  status: ('A' for Active; 'I' for Inactive)
REMARK    1  A    between atoms: C_5  and  N_8 
REMARK    2  A    between atoms: C_11  and  N_14 
REMARK       I    between atoms: N_14  and  C_15 
REMARK       I    between atoms: C_15  and  N_17 
REMARK    3  A    between atoms: N_17  and  C_18 
ROOT
HETATM    1  N   UNL     1     -41.514 -51.749  13.670  1.00  0.00    -0.338 N 
HETATM    2  C   UNL     1     -41.533 -50.925  12.567  1.00  0.00     0.322 C 
HETATM    3  O   UNL     1     -41.171 -51.292  11.456  1.00  0.00    -0.247 OA
HETATM    4  N   UNL     1     -41.946 -49.659  12.902  1.00  0.00    -0.295 N 
HETATM    5  H   UNL     1     -42.268 -51.581  14.322  1.00  0.00     0.164 HD
HETATM    6  H   UNL     1     -41.625 -49.339  13.805  1.00  0.00     0.172 HD
ENDROOT
BRANCH   1   7
HETATM    7  C   UNL     1     -40.979 -53.104  13.573  1.00  0.00     0.089 C 
HETATM    8  C   UNL     1     -41.828 -54.116  14.350  1.00  0.00     0.055 C 
HETATM    9  C   UNL     1     -41.573 -54.024  15.855  1.00  0.00     0.275 C 
HETATM   10  N   UNL     1     -40.151 -54.169  16.220  1.00  0.00     0.093 N 
HETATM   11  C   UNL     1     -39.388 -53.101  15.545  1.00  0.00     0.275 C 
HETATM   12  C   UNL     1     -39.516 -53.134  14.021  1.00  0.00     0.055 C 
BRANCH  10  13
HETATM   13  C   UNL     1     -39.606 -55.540  16.010  1.00  0.00     0.226 C 
HETATM   14  C   UNL     1     -40.359 -56.621  16.821  1.00  0.00     0.066 C 
HETATM   15  C   UNL     1     -40.102 -56.488  18.327  1.00  0.00     0.274 C 
HETATM   16  N   UNL     1     -38.678 -56.536  18.690  1.00  0.00     0.084 N 
HETATM   17  C   UNL     1     -38.124 -57.883  18.580  1.00  0.00     0.309 C 
HETATM   18  C   UNL     1     -37.911 -55.553  17.911  1.00  0.00     0.274 C 
HETATM   19  C   UNL     1     -38.115 -55.677  16.398  1.00  0.00     0.066 C 
ENDBRANCH  10  13
ENDBRANCH   1   7
BRANCH   4  20
HETATM   20  C   UNL     1     -41.986 -48.625  11.964  1.00  0.00     0.109 A 
HETATM   21  C   UNL     1     -40.933 -47.734  11.818  1.00  0.00     0.055 A 
HETATM   22  C   UNL     1     -41.034 -46.716  10.872  1.00  0.00    -0.057 A 
HETATM   23  C   UNL     1     -39.903 -45.765  10.632  1.00  0.00     0.048 C 
HETATM   24  C   UNL     1     -42.221 -46.605  10.147  1.00  0.00     0.031 A 
HETATM   25  C   UNL     1     -43.229 -47.545  10.348  1.00  0.00     0.007 A 
HETATM   26  C   UNL     1     -44.547 -47.417   9.645  1.00  0.00     0.068 C 
HETATM   27  N   UNL     1     -43.104 -48.577  11.215  1.00  0.00    -0.346 N 
ATOM     28  HN  UNL     1     -43.827 -49.290  11.297  1.00  0.00     0.167 HD
ENDBRANCH   4  20
TORSDOF 3
ENDMDL
MODEL 7
REMARK VINA RESULT:      -5.6      2.412      9.432
REMARK  3 active torsions:
REMARK  status: ('A' for Active; 'I' for Inactive)
REMARK    1  A    between atoms: C_5  and  N_8 
REMARK    2  A    between atoms: C_11  and  N_14 
REMARK       I    between atoms: N_14  and  C_15 
REMARK       I    between atoms: C_15  and  N_17 
REMARK    3  A    between atoms: N_17  and  C_18 
ROOT
HETATM    1  N   UNL     1     -40.638 -50.101  13.256  1.00  0.00    -0.338 N 
HETATM    2  C   UNL     1     -41.289 -51.314  13.251  1.00  0.00     0.322 C 
HETATM    3  O   UNL     1     -41.859 -51.760  12.262  1.00  0.00    -0.247 OA
HETATM    4  N   UNL     1     -41.255 -51.898  14.493  1.00  0.00    -0.295 N 
HETATM    5  H   UNL     1     -39.815 -50.077  13.841  1.00  0.00     0.164 HD
HETATM    6  H   UNL     1     -41.336 -51.250  15.263  1.00  0.00     0.172 HD
ENDROOT
BRANCH   1   7
HETATM    7  C   UNL     1     -40.665 -49.241  12.075  1.00  0.00     0.089 C 
HETATM    8  C   UNL     1     -39.481 -48.269  12.042  1.00  0.00     0.055 C 
HETATM    9  C   UNL     1     -39.687 -47.102  13.010  1.00  0.00     0.275 C 
HETATM   10  N   UNL     1     -40.949 -46.372  12.790  1.00  0.00     0.093 N 
HETATM   11  C   UNL     1     -42.068 -47.321  12.949  1.00  0.00     0.275 C 
HETATM   12  C   UNL     1     -42.003 -48.503  11.982  1.00  0.00     0.055 C 
BRANCH  10  13
HETATM   13  C   UNL     1     -40.984 -45.587  11.523  1.00  0.00     0.226 C 
HETATM   14  C   UNL     1     -39.885 -44.501  11.454  1.00  0.00     0.066 C 
HETATM   15  C   UNL     1     -40.142 -43.363  12.449  1.00  0.00     0.274 C 
HETATM   16  N   UNL     1     -41.451 -42.716  12.282  1.00  0.00     0.084 N 
HETATM   17  C   UNL     1     -41.501 -41.867  11.094  1.00  0.00     0.309 C 
HETATM   18  C   UNL     1     -42.528 -43.716  12.298  1.00  0.00     0.274 C 
HETATM   19  C   UNL     1     -42.325 -44.852  11.291  1.00  0.00     0.066 C 
ENDBRANCH  10  13
ENDBRANCH   1   7
BRANCH   4  20
HETATM   20  C   UNL     1     -41.904 -53.107  14.756  1.00  0.00     0.109 A 
HETATM   21  C   UNL     1     -41.334 -54.077  15.566  1.00  0.00     0.055 A 
HETATM   22  C   UNL     1     -42.023 -55.268  15.783  1.00  0.00    -0.057 A 
HETATM   23  C   UNL     1     -41.481 -56.323  16.698  1.00  0.00     0.048 C 
HETATM   24  C   UNL     1     -43.240 -55.455  15.127  1.00  0.00     0.031 A 
HETATM   25  C   UNL     1     -43.748 -54.428  14.335  1.00  0.00     0.007 A 
HETATM   26  C   UNL     1     -45.013 -54.618  13.554  1.00  0.00     0.068 C 
HETATM   27  N   UNL     1     -43.114 -53.242  14.181  1.00  0.00    -0.346 N 
ATOM     28  HN  UNL     1     -43.536 -52.481  13.650  1.00  0.00     0.167 HD
ENDBRANCH   4  20
TORSDOF 3
ENDMDL
MODEL 8
REMARK VINA RESULT:      -5.6     15.633     17.976
REMARK  3 active torsions:
REMARK  status: ('A' for Active; 'I' for Inactive)
REMARK    1  A    between atoms: C_5  and  N_8 
REMARK    2  A    between atoms: C_11  and  N_14 
REMARK       I    between atoms: N_14  and  C_15 
REMARK       I    between atoms: C_15  and  N_17 
REMARK    3  A    between atoms: N_17  and  C_18 
ROOT
HETATM    1  N   UNL     1     -49.458 -50.890  -0.810  1.00  0.00    -0.338 N 
HETATM    2  C   UNL     1     -49.867 -50.053   0.205  1.00  0.00     0.322 C 
HETATM    3  O   UNL     1     -50.219 -50.463   1.304  1.00  0.00    -0.247 OA
HETATM    4  N   UNL     1     -49.878 -48.744  -0.208  1.00  0.00    -0.295 N 
HETATM    5  H   UNL     1     -48.732 -50.502  -1.396  1.00  0.00     0.164 HD
HETATM    6  H   UNL     1     -50.171 -48.609  -1.165  1.00  0.00     0.172 HD
ENDROOT
BRANCH   1   7
HETATM    7  C   UNL     1     -49.500 -52.339  -0.636  1.00  0.00     0.089 C 
HETATM    8  C   UNL     1     -48.375 -53.044  -1.402  1.00  0.00     0.055 C 
HETATM    9  C   UNL     1     -48.679 -53.122  -2.899  1.00  0.00     0.275 C 
HETATM   10  N   UNL     1     -49.976 -53.757  -3.203  1.00  0.00     0.093 N 
HETATM   11  C   UNL     1     -51.040 -52.976  -2.544  1.00  0.00     0.275 C 
HETATM   12  C   UNL     1     -50.876 -52.885  -1.026  1.00  0.00     0.055 C 
BRANCH  10  13
HETATM   13  C   UNL     1     -50.018 -55.219  -2.916  1.00  0.00     0.226 C 
HETATM   14  C   UNL     1     -48.874 -56.003  -3.601  1.00  0.00     0.066 C 
HETATM   15  C   UNL     1     -49.046 -56.052  -5.123  1.00  0.00     0.274 C 
HETATM   16  N   UNL     1     -50.330 -56.623  -5.556  1.00  0.00     0.084 N 
HETATM   17  C   UNL     1     -50.382 -58.072  -5.370  1.00  0.00     0.309 C 
HETATM   18  C   UNL     1     -51.450 -55.937  -4.896  1.00  0.00     0.274 C 
HETATM   19  C   UNL     1     -51.331 -55.898  -3.369  1.00  0.00     0.066 C 
ENDBRANCH  10  13
ENDBRANCH   1   7
BRANCH   4  20
HETATM   20  C   UNL     1     -50.318 -47.713   0.625  1.00  0.00     0.109 A 
HETATM   21  C   UNL     1     -49.427 -46.875   1.279  1.00  0.00     0.055 A 
HETATM   22  C   UNL     1     -49.924 -45.871   2.107  1.00  0.00    -0.057 A 
HETATM   23  C   UNL     1     -49.008 -44.902   2.788  1.00  0.00     0.048 C 
HETATM   24  C   UNL     1     -51.306 -45.787   2.285  1.00  0.00     0.031 A 
HETATM   25  C   UNL     1     -52.134 -46.662   1.586  1.00  0.00     0.007 A 
HETATM   26  C   UNL     1     -53.616 -46.654   1.807  1.00  0.00     0.068 C 
HETATM   27  N   UNL     1     -51.655 -47.591   0.726  1.00  0.00    -0.346 N 
ATOM     28  HN  UNL     1     -52.283 -48.177   0.175  1.00  0.00     0.167 HD
ENDBRANCH   4  20
TORSDOF 3
ENDMDL
MODEL 9
REMARK VINA RESULT:      -5.6     15.609     18.017
REMARK  3 active torsions:
REMARK  status: ('A' for Active; 'I' for Inactive)
REMARK    1  A    between atoms: C_5  and  N_8 
REMARK    2  A    between atoms: C_11  and  N_14 
REMARK       I    between atoms: N_14  and  C_15 
REMARK       I    between atoms: C_15  and  N_17 
REMARK    3  A    between atoms: N_17  and  C_18 
ROOT
HETATM    1  N   UNL     1     -49.961 -48.151  -0.450  1.00  0.00    -0.338 N 
HETATM    2  C   UNL     1     -49.902 -49.525  -0.404  1.00  0.00     0.322 C 
HETATM    3  O   UNL     1     -49.069 -50.134   0.258  1.00  0.00    -0.247 OA
HETATM    4  N   UNL     1     -50.843 -50.089  -1.228  1.00  0.00    -0.295 N 
HETATM    5  H   UNL     1     -50.898 -47.781  -0.532  1.00  0.00     0.164 HD
HETATM    6  H   UNL     1     -50.997 -49.589  -2.092  1.00  0.00     0.172 HD
ENDROOT
BRANCH   1   7
HETATM    7  C   UNL     1     -48.962 -47.342   0.245  1.00  0.00     0.089 C 
HETATM    8  C   UNL     1     -49.303 -47.155   1.727  1.00  0.00     0.055 C 
HETATM    9  C   UNL     1     -50.412 -46.120   1.922  1.00  0.00     0.275 C 
HETATM   10  N   UNL     1     -50.112 -44.815   1.301  1.00  0.00     0.093 N 
HETATM   11  C   UNL     1     -49.910 -45.025  -0.145  1.00  0.00     0.275 C 
HETATM   12  C   UNL     1     -48.775 -45.999  -0.464  1.00  0.00     0.055 C 
BRANCH  10  13
HETATM   13  C   UNL     1     -49.016 -44.061   1.973  1.00  0.00     0.226 C 
HETATM   14  C   UNL     1     -49.218 -43.931   3.501  1.00  0.00     0.066 C 
HETATM   15  C   UNL     1     -50.392 -43.009   3.847  1.00  0.00     0.274 C 
HETATM   16  N   UNL     1     -50.273 -41.660   3.275  1.00  0.00     0.084 N 
HETATM   17  C   UNL     1     -49.265 -40.855   3.961  1.00  0.00     0.309 C 
HETATM   18  C   UNL     1     -50.036 -41.731   1.825  1.00  0.00     0.274 C 
HETATM   19  C   UNL     1     -48.847 -42.618   1.442  1.00  0.00     0.066 C 
ENDBRANCH  10  13
ENDBRANCH   1   7
BRANCH   4  20
HETATM   20  C   UNL     1     -50.937 -51.472  -1.400  1.00  0.00     0.109 A 
HETATM   21  C   UNL     1     -51.983 -52.204  -0.856  1.00  0.00     0.055 A 
HETATM   22  C   UNL     1     -52.018 -53.583  -1.051  1.00  0.00    -0.057 A 
HETATM   23  C   UNL     1     -53.155 -54.410  -0.537  1.00  0.00     0.048 C 
HETATM   24  C   UNL     1     -50.964 -54.178  -1.745  1.00  0.00     0.031 A 
HETATM   25  C   UNL     1     -49.954 -53.372  -2.267  1.00  0.00     0.007 A 
HETATM   26  C   UNL     1     -48.767 -53.978  -2.951  1.00  0.00     0.068 C 
HETATM   27  N   UNL     1     -49.956 -52.024  -2.139  1.00  0.00    -0.346 N 
ATOM     28  HN  UNL     1     -49.243 -51.449  -2.586  1.00  0.00     0.167 HD
ENDBRANCH   4  20
TORSDOF 3
ENDMDL
