MODEL 1
REMARK VINA RESULT:      -6.3      0.000      0.000
REMARK  4 active torsions:
REMARK  status: ('A' for Active; 'I' for Inactive)
REMARK    1  A    between atoms: C_2  and  C_3 
REMARK    2  A    between atoms: C_2  and  S_21 
REMARK       I    between atoms: C_3  and  N_5 
REMARK    3  A    between atoms: N_5  and  C_6 
REMARK    4  A    between atoms: C_9  and  N_13 
ROOT
HETATM    1  C   UNL     1     -41.414 -48.992  11.728  1.00  0.00     0.050 A 
HETATM    2  C   UNL     1     -42.452 -49.310  12.588  1.00  0.00     0.035 A 
HETATM    3  C   UNL     1     -42.716 -50.646  12.892  1.00  0.00     0.051 A 
HETATM    4  C   UNL     1     -41.940 -51.673  12.353  1.00  0.00     0.103 A 
HETATM    5  N   UNL     1     -40.924 -51.374  11.515  1.00  0.00    -0.350 N 
ATOM      6  HN  UNL     1     -40.351 -52.113  11.105  1.00  0.00     0.166 HD
HETATM    7  C   UNL     1     -40.681 -50.065  11.230  1.00  0.00     0.119 A 
ENDROOT
BRANCH   1   8
HETATM    8  N   UNL     1     -41.080 -47.671  11.351  1.00  0.00    -0.325 N 
HETATM    9  C   UNL     1     -41.719 -46.916  10.379  1.00  0.00     0.240 C 
HETATM   10  O   UNL     1     -42.652 -47.319   9.686  1.00  0.00    -0.272 OA
HETATM   11  H   UNL     1     -40.182 -47.326  11.698  1.00  0.00     0.169 HD
BRANCH   9  12
HETATM   12  C   UNL     1     -41.210 -45.494  10.219  1.00  0.00     0.196 C 
HETATM   13  C   UNL     1     -39.712 -45.401  10.513  1.00  0.00     0.036 C 
BRANCH  12  14
HETATM   14  S   UNL     1     -42.149 -44.393  11.261  1.00  0.00     0.153 S 
HETATM   15  O   UNL     1     -43.121 -43.709  10.431  1.00  0.00    -0.227 OA
HETATM   16  O   UNL     1     -42.603 -45.168  12.406  1.00  0.00    -0.227 OA
HETATM   17  C   UNL     1     -40.988 -43.178  11.846  1.00  0.00     0.162 C 
ENDBRANCH  12  14
ENDBRANCH   9  12
ENDBRANCH   1   8
BRANCH   4  18
HETATM   18  N   UNL     1     -42.244 -52.993  12.620  1.00  0.00    -0.362 N 
HETATM   19  C   UNL     1     -43.624 -53.492  12.519  1.00  0.00     0.156 C 
HETATM   20  C   UNL     1     -44.197 -53.828  13.914  1.00  0.00     0.136 C 
HETATM   21  C   UNL     1     -45.546 -54.523  13.778  1.00  0.00     0.041 C 
HETATM   22  O   UNL     1     -43.326 -54.712  14.640  1.00  0.00    -0.378 OA
HETATM   23  C   UNL     1     -42.034 -54.101  14.835  1.00  0.00     0.136 C 
HETATM   24  C   UNL     1     -41.196 -55.082  15.642  1.00  0.00     0.041 C 
HETATM   25  C   UNL     1     -41.362 -53.791  13.483  1.00  0.00     0.156 C 
ENDBRANCH   4  18
TORSDOF 4
ENDMDL
MODEL 2
REMARK VINA RESULT:      -6.1      3.091      8.308
REMARK  4 active torsions:
REMARK  status: ('A' for Active; 'I' for Inactive)
REMARK    1  A    between atoms: C_2  and  C_3 
REMARK    2  A    between atoms: C_2  and  S_21 
REMARK       I    between atoms: C_3  and  N_5 
REMARK    3  A    between atoms: N_5  and  C_6 
REMARK    4  A    between atoms: C_9  and  N_13 
ROOT
HETATM    1  C   UNL     1     -41.197 -50.960  12.995  1.00  0.00     0.050 A 
HETATM    2  C   UNL     1     -42.177 -50.003  13.199  1.00  0.00     0.035 A 
HETATM    3  C   UNL     1     -42.308 -48.943  12.302  1.00  0.00     0.051 A 
HETATM    4  C   UNL     1     -41.475 -48.836  11.189  1.00  0.00     0.103 A 
HETATM    5  N   UNL     1     -40.516 -49.764  10.978  1.00  0.00    -0.350 N 
ATOM      6  HN  UNL     1     -39.893 -49.697  10.173  1.00  0.00     0.166 HD
HETATM    7  C   UNL     1     -40.403 -50.792  11.864  1.00  0.00     0.119 A 
ENDROOT
BRANCH   1   8
HETATM    8  N   UNL     1     -40.979 -52.061  13.854  1.00  0.00    -0.325 N 
HETATM    9  C   UNL     1     -41.461 -53.347  13.668  1.00  0.00     0.240 C 
HETATM   10  O   UNL     1     -42.180 -53.693  12.730  1.00  0.00    -0.272 OA
HETATM   11  H   UNL     1     -40.593 -51.834  14.774  1.00  0.00     0.169 HD
BRANCH   9  12
HETATM   12  C   UNL     1     -41.019 -54.366  14.704  1.00  0.00     0.196 C 
HETATM   13  C   UNL     1     -41.685 -54.111  16.056  1.00  0.00     0.036 C 
BRANCH  12  14
HETATM   14  S   UNL     1     -39.241 -54.360  14.841  1.00  0.00     0.153 S 
HETATM   15  O   UNL     1     -38.811 -55.707  15.160  1.00  0.00    -0.227 OA
HETATM   16  O   UNL     1     -38.720 -53.705  13.650  1.00  0.00    -0.227 OA
HETATM   17  C   UNL     1     -38.870 -53.329  16.242  1.00  0.00     0.162 C 
ENDBRANCH  12  14
ENDBRANCH   9  12
ENDBRANCH   1   8
BRANCH   4  18
HETATM   18  N   UNL     1     -41.581 -47.754  10.337  1.00  0.00    -0.362 N 
HETATM   19  C   UNL     1     -40.879 -46.492  10.617  1.00  0.00     0.156 C 
HETATM   20  C   UNL     1     -41.876 -45.375  10.998  1.00  0.00     0.136 C 
HETATM   21  C   UNL     1     -41.156 -44.035  11.094  1.00  0.00     0.041 C 
HETATM   22  O   UNL     1     -42.913 -45.239  10.012  1.00  0.00    -0.378 OA
HETATM   23  C   UNL     1     -43.660 -46.468   9.893  1.00  0.00     0.136 C 
HETATM   24  C   UNL     1     -44.757 -46.222   8.865  1.00  0.00     0.041 C 
HETATM   25  C   UNL     1     -42.746 -47.626   9.450  1.00  0.00     0.156 C 
ENDBRANCH   4  18
TORSDOF 4
ENDMDL
MODEL 3
REMARK VINA RESULT:      -6.1      2.954      8.515
REMARK  4 active torsions:
REMARK  status: ('A' for Active; 'I' for Inactive)
REMARK    1  A    between atoms: C_2  and  C_3 
REMARK    2  A    between atoms: C_2  and  S_21 
REMARK       I    between atoms: C_3  and  N_5 
REMARK    3  A    between atoms: N_5  and  C_6 
REMARK    4  A    between atoms: C_9  and  N_13 
ROOT
HETATM    1  C   UNL     1     -42.676 -50.949  13.380  1.00  0.00     0.050 A 
HETATM    2  C   UNL     1     -41.443 -50.963  12.750  1.00  0.00     0.035 A 
HETATM    3  C   UNL     1     -41.123 -49.964  11.831  1.00  0.00     0.051 A 
HETATM    4  C   UNL     1     -42.021 -48.936  11.544  1.00  0.00     0.103 A 
HETATM    5  N   UNL     1     -43.226 -48.911  12.155  1.00  0.00    -0.350 N 
ATOM      6  HN  UNL     1     -43.899 -48.171  11.951  1.00  0.00     0.166 HD
HETATM    7  C   UNL     1     -43.521 -49.895  13.049  1.00  0.00     0.119 A 
ENDROOT
BRANCH   1   8
HETATM    8  N   UNL     1     -43.095 -51.925  14.313  1.00  0.00    -0.325 N 
HETATM    9  C   UNL     1     -43.652 -53.157  14.008  1.00  0.00     0.240 C 
HETATM   10  O   UNL     1     -43.887 -53.551  12.865  1.00  0.00    -0.272 OA
HETATM   11  H   UNL     1     -43.159 -51.610  15.284  1.00  0.00     0.169 HD
BRANCH   9  12
HETATM   12  C   UNL     1     -43.947 -54.053  15.198  1.00  0.00     0.196 C 
HETATM   13  C   UNL     1     -43.199 -55.382  15.095  1.00  0.00     0.036 C 
BRANCH  12  14
HETATM   14  S   UNL     1     -45.707 -54.305  15.345  1.00  0.00     0.153 S 
HETATM   15  O   UNL     1     -46.110 -55.260  14.331  1.00  0.00    -0.227 OA
HETATM   16  O   UNL     1     -45.985 -54.587  16.745  1.00  0.00    -0.227 OA
HETATM   17  C   UNL     1     -46.452 -52.741  14.939  1.00  0.00     0.162 C 
ENDBRANCH  12  14
ENDBRANCH   9  12
ENDBRANCH   1   8
BRANCH   4  18
HETATM   18  N   UNL     1     -41.713 -47.982  10.595  1.00  0.00    -0.362 N 
HETATM   19  C   UNL     1     -40.617 -47.024  10.806  1.00  0.00     0.156 C 
HETATM   20  C   UNL     1     -41.161 -45.595  11.022  1.00  0.00     0.136 C 
HETATM   21  C   UNL     1     -40.016 -44.590  11.045  1.00  0.00     0.041 C 
HETATM   22  O   UNL     1     -42.055 -45.208   9.964  1.00  0.00    -0.378 OA
HETATM   23  C   UNL     1     -43.186 -46.103   9.907  1.00  0.00     0.136 C 
HETATM   24  C   UNL     1     -44.095 -45.598   8.794  1.00  0.00     0.041 C 
HETATM   25  C   UNL     1     -42.731 -47.548   9.628  1.00  0.00     0.156 C 
ENDBRANCH   4  18
TORSDOF 4
ENDMDL
MODEL 4
REMARK VINA RESULT:      -6.0      1.553      2.021
REMARK  4 active torsions:
REMARK  status: ('A' for Active; 'I' for Inactive)
REMARK    1  A    between atoms: C_2  and  C_3 
REMARK    2  A    between atoms: C_2  and  S_21 
REMARK       I    between atoms: C_3  and  N_5 
REMARK    3  A    between atoms: N_5  and  C_6 
REMARK    4  A    between atoms: C_9  and  N_13 
ROOT
HETATM    1  C   UNL     1     -40.391 -48.794  11.624  1.00  0.00     0.050 A 
HETATM    2  C   UNL     1     -39.384 -49.684  11.961  1.00  0.00     0.035 A 
HETATM    3  C   UNL     1     -39.699 -51.015  12.235  1.00  0.00     0.051 A 
HETATM    4  C   UNL     1     -41.015 -51.472  12.161  1.00  0.00     0.103 A 
HETATM    5  N   UNL     1     -42.005 -50.614  11.831  1.00  0.00    -0.350 N 
ATOM      6  HN  UNL     1     -42.974 -50.929  11.780  1.00  0.00     0.166 HD
HETATM    7  C   UNL     1     -41.678 -49.318  11.567  1.00  0.00     0.119 A 
ENDROOT
BRANCH   1   8
HETATM    8  N   UNL     1     -40.171 -47.426  11.344  1.00  0.00    -0.325 N 
HETATM    9  C   UNL     1     -39.984 -46.423  12.283  1.00  0.00     0.240 C 
HETATM   10  O   UNL     1     -40.019 -46.594  13.501  1.00  0.00    -0.272 OA
HETATM   11  H   UNL     1     -40.352 -47.137  10.380  1.00  0.00     0.169 HD
BRANCH   9  12
HETATM   12  C   UNL     1     -39.693 -45.044  11.716  1.00  0.00     0.196 C 
HETATM   13  C   UNL     1     -39.075 -44.127  12.771  1.00  0.00     0.036 C 
BRANCH  12  14
HETATM   14  S   UNL     1     -41.183 -44.342  11.033  1.00  0.00     0.153 S 
HETATM   15  O   UNL     1     -40.902 -42.970  10.658  1.00  0.00    -0.227 OA
HETATM   16  O   UNL     1     -41.677 -45.273  10.030  1.00  0.00    -0.227 OA
HETATM   17  C   UNL     1     -42.355 -44.306  12.372  1.00  0.00     0.162 C 
ENDBRANCH  12  14
ENDBRANCH   9  12
ENDBRANCH   1   8
BRANCH   4  18
HETATM   18  N   UNL     1     -41.320 -52.780  12.484  1.00  0.00    -0.362 N 
HETATM   19  C   UNL     1     -42.715 -53.229  12.604  1.00  0.00     0.156 C 
HETATM   20  C   UNL     1     -43.075 -53.540  14.073  1.00  0.00     0.136 C 
HETATM   21  C   UNL     1     -44.453 -54.185  14.155  1.00  0.00     0.041 C 
HETATM   22  O   UNL     1     -42.134 -54.452  14.663  1.00  0.00    -0.378 OA
HETATM   23  C   UNL     1     -40.806 -53.887  14.649  1.00  0.00     0.136 C 
HETATM   24  C   UNL     1     -39.888 -54.896  15.325  1.00  0.00     0.041 C 
HETATM   25  C   UNL     1     -40.343 -53.607  13.206  1.00  0.00     0.156 C 
ENDBRANCH   4  18
TORSDOF 4
ENDMDL
MODEL 5
REMARK VINA RESULT:      -6.0      3.070      8.405
REMARK  4 active torsions:
REMARK  status: ('A' for Active; 'I' for Inactive)
REMARK    1  A    between atoms: C_2  and  C_3 
REMARK    2  A    between atoms: C_2  and  S_21 
REMARK       I    between atoms: C_3  and  N_5 
REMARK    3  A    between atoms: N_5  and  C_6 
REMARK    4  A    between atoms: C_9  and  N_13 
ROOT
HETATM    1  C   UNL     1     -40.868 -50.764  13.314  1.00  0.00     0.050 A 
HETATM    2  C   UNL     1     -39.942 -49.735  13.297  1.00  0.00     0.035 A 
HETATM    3  C   UNL     1     -40.087 -48.687  12.388  1.00  0.00     0.051 A 
HETATM    4  C   UNL     1     -41.162 -48.650  11.499  1.00  0.00     0.103 A 
HETATM    5  N   UNL     1     -42.073 -49.648  11.508  1.00  0.00    -0.350 N 
ATOM      6  HN  UNL     1     -42.860 -49.641  10.860  1.00  0.00     0.166 HD
HETATM    7  C   UNL     1     -41.914 -50.662  12.403  1.00  0.00     0.119 A 
ENDROOT
BRANCH   1   8
HETATM    8  N   UNL     1     -40.797 -51.873  14.188  1.00  0.00    -0.325 N 
HETATM    9  C   UNL     1     -39.754 -52.784  14.264  1.00  0.00     0.240 C 
HETATM   10  O   UNL     1     -38.755 -52.761  13.545  1.00  0.00    -0.272 OA
HETATM   11  H   UNL     1     -41.668 -52.119  14.663  1.00  0.00     0.169 HD
BRANCH   9  12
HETATM   12  C   UNL     1     -39.891 -53.844  15.343  1.00  0.00     0.196 C 
HETATM   13  C   UNL     1     -39.032 -55.070  15.032  1.00  0.00     0.036 C 
BRANCH  12  14
HETATM   14  S   UNL     1     -41.607 -54.284  15.547  1.00  0.00     0.153 S 
HETATM   15  O   UNL     1     -42.245 -53.249  16.336  1.00  0.00    -0.227 OA
HETATM   16  O   UNL     1     -42.128 -54.602  14.226  1.00  0.00    -0.227 OA
HETATM   17  C   UNL     1     -41.609 -55.778  16.513  1.00  0.00     0.162 C 
ENDBRANCH  12  14
ENDBRANCH   9  12
ENDBRANCH   1   8
BRANCH   4  18
HETATM   18  N   UNL     1     -41.266 -47.634  10.570  1.00  0.00    -0.362 N 
HETATM   19  C   UNL     1     -40.562 -46.357  10.756  1.00  0.00     0.156 C 
HETATM   20  C   UNL     1     -41.555 -45.212  11.052  1.00  0.00     0.136 C 
HETATM   21  C   UNL     1     -40.833 -43.870  11.049  1.00  0.00     0.041 C 
HETATM   22  O   UNL     1     -42.593 -45.147  10.059  1.00  0.00    -0.378 OA
HETATM   23  C   UNL     1     -43.343 -46.380  10.031  1.00  0.00     0.136 C 
HETATM   24  C   UNL     1     -44.439 -46.209   8.987  1.00  0.00     0.041 C 
HETATM   25  C   UNL     1     -42.431 -47.570   9.676  1.00  0.00     0.156 C 
ENDBRANCH   4  18
TORSDOF 4
ENDMDL
MODEL 6
REMARK VINA RESULT:      -5.7      2.835      8.329
REMARK  4 active torsions:
REMARK  status: ('A' for Active; 'I' for Inactive)
REMARK    1  A    between atoms: C_2  and  C_3 
REMARK    2  A    between atoms: C_2  and  S_21 
REMARK       I    between atoms: C_3  and  N_5 
REMARK    3  A    between atoms: N_5  and  C_6 
REMARK    4  A    between atoms: C_9  and  N_13 
ROOT
HETATM    1  C   UNL     1     -42.364 -50.159  13.042  1.00  0.00     0.050 A 
HETATM    2  C   UNL     1     -43.200 -49.211  12.478  1.00  0.00     0.035 A 
HETATM    3  C   UNL     1     -42.734 -47.912  12.269  1.00  0.00     0.051 A 
HETATM    4  C   UNL     1     -41.429 -47.554  12.606  1.00  0.00     0.103 A 
HETATM    5  N   UNL     1     -40.603 -48.472  13.155  1.00  0.00    -0.350 N 
ATOM      6  HN  UNL     1     -39.648 -48.225  13.415  1.00  0.00     0.166 HD
HETATM    7  C   UNL     1     -41.076 -49.734  13.352  1.00  0.00     0.119 A 
ENDROOT
BRANCH   1   8
HETATM    8  N   UNL     1     -42.750 -51.493  13.305  1.00  0.00    -0.325 N 
HETATM    9  C   UNL     1     -43.528 -51.921  14.370  1.00  0.00     0.240 C 
HETATM   10  O   UNL     1     -43.961 -51.184  15.256  1.00  0.00    -0.272 OA
HETATM   11  H   UNL     1     -42.258 -52.211  12.767  1.00  0.00     0.169 HD
BRANCH   9  12
HETATM   12  C   UNL     1     -43.862 -53.402  14.382  1.00  0.00     0.196 C 
HETATM   13  C   UNL     1     -42.688 -54.242  13.879  1.00  0.00     0.036 C 
BRANCH  12  14
HETATM   14  S   UNL     1     -45.335 -53.700  13.421  1.00  0.00     0.153 S 
HETATM   15  O   UNL     1     -45.228 -52.942  12.190  1.00  0.00    -0.227 OA
HETATM   16  O   UNL     1     -45.525 -55.141  13.361  1.00  0.00    -0.227 OA
HETATM   17  C   UNL     1     -46.674 -53.007  14.366  1.00  0.00     0.162 C 
ENDBRANCH  12  14
ENDBRANCH   9  12
ENDBRANCH   1   8
BRANCH   4  18
HETATM   18  N   UNL     1     -40.996 -46.253  12.442  1.00  0.00    -0.362 N 
HETATM   19  C   UNL     1     -41.908 -45.117  12.640  1.00  0.00     0.156 C 
HETATM   20  C   UNL     1     -42.227 -44.419  11.300  1.00  0.00     0.136 C 
HETATM   21  C   UNL     1     -43.010 -43.135  11.545  1.00  0.00     0.041 C 
HETATM   22  O   UNL     1     -41.026 -44.064  10.594  1.00  0.00    -0.378 OA
HETATM   23  C   UNL     1     -40.247 -45.243  10.298  1.00  0.00     0.136 C 
HETATM   24  C   UNL     1     -39.023 -44.782   9.519  1.00  0.00     0.041 C 
HETATM   25  C   UNL     1     -39.831 -45.966  11.594  1.00  0.00     0.156 C 
ENDBRANCH   4  18
TORSDOF 4
ENDMDL
MODEL 7
REMARK VINA RESULT:      -5.4      2.483      3.327
REMARK  4 active torsions:
REMARK  status: ('A' for Active; 'I' for Inactive)
REMARK    1  A    between atoms: C_2  and  C_3 
REMARK    2  A    between atoms: C_2  and  S_21 
REMARK       I    between atoms: C_3  and  N_5 
REMARK    3  A    between atoms: N_5  and  C_6 
REMARK    4  A    between atoms: C_9  and  N_13 
ROOT
HETATM    1  C   UNL     1     -42.763 -46.768  12.526  1.00  0.00     0.050 A 
HETATM    2  C   UNL     1     -42.968 -47.885  11.734  1.00  0.00     0.035 A 
HETATM    3  C   UNL     1     -43.252 -49.114  12.330  1.00  0.00     0.051 A 
HETATM    4  C   UNL     1     -43.349 -49.236  13.716  1.00  0.00     0.103 A 
HETATM    5  N   UNL     1     -43.154 -48.152  14.499  1.00  0.00    -0.350 N 
ATOM      6  HN  UNL     1     -43.213 -48.225  15.514  1.00  0.00     0.166 HD
HETATM    7  C   UNL     1     -42.877 -46.961  13.899  1.00  0.00     0.119 A 
ENDROOT
BRANCH   1   8
HETATM    8  N   UNL     1     -42.457 -45.486  12.016  1.00  0.00    -0.325 N 
HETATM    9  C   UNL     1     -41.243 -44.828  12.143  1.00  0.00     0.240 C 
HETATM   10  O   UNL     1     -40.272 -45.270  12.757  1.00  0.00    -0.272 OA
HETATM   11  H   UNL     1     -43.256 -44.936  11.691  1.00  0.00     0.169 HD
BRANCH   9  12
HETATM   12  C   UNL     1     -41.150 -43.487  11.436  1.00  0.00     0.196 C 
HETATM   13  C   UNL     1     -40.098 -42.586  12.085  1.00  0.00     0.036 C 
BRANCH  12  14
HETATM   14  S   UNL     1     -42.752 -42.703  11.409  1.00  0.00     0.153 S 
HETATM   15  O   UNL     1     -43.471 -43.191  10.248  1.00  0.00    -0.227 OA
HETATM   16  O   UNL     1     -43.333 -42.867  12.733  1.00  0.00    -0.227 OA
HETATM   17  C   UNL     1     -42.435 -40.970  11.159  1.00  0.00     0.162 C 
ENDBRANCH  12  14
ENDBRANCH   9  12
ENDBRANCH   1   8
BRANCH   4  18
HETATM   18  N   UNL     1     -43.580 -50.468  14.295  1.00  0.00    -0.362 N 
HETATM   19  C   UNL     1     -43.172 -51.713  13.626  1.00  0.00     0.156 C 
HETATM   20  C   UNL     1     -44.402 -52.513  13.143  1.00  0.00     0.136 C 
HETATM   21  C   UNL     1     -43.974 -53.882  12.630  1.00  0.00     0.041 C 
HETATM   22  O   UNL     1     -45.342 -52.726  14.210  1.00  0.00    -0.378 OA
HETATM   23  C   UNL     1     -45.817 -51.463  14.723  1.00  0.00     0.136 C 
HETATM   24  C   UNL     1     -46.832 -51.781  15.813  1.00  0.00     0.041 C 
HETATM   25  C   UNL     1     -44.653 -50.626  15.287  1.00  0.00     0.156 C 
ENDBRANCH   4  18
TORSDOF 4
ENDMDL
MODEL 8
REMARK VINA RESULT:      -5.4      3.109      8.444
REMARK  4 active torsions:
REMARK  status: ('A' for Active; 'I' for Inactive)
REMARK    1  A    between atoms: C_2  and  C_3 
REMARK    2  A    between atoms: C_2  and  S_21 
REMARK       I    between atoms: C_3  and  N_5 
REMARK    3  A    between atoms: N_5  and  C_6 
REMARK    4  A    between atoms: C_9  and  N_13 
ROOT
HETATM    1  C   UNL     1     -41.390 -51.160  13.464  1.00  0.00     0.050 A 
HETATM    2  C   UNL     1     -40.957 -50.052  14.173  1.00  0.00     0.035 A 
HETATM    3  C   UNL     1     -41.243 -48.771  13.700  1.00  0.00     0.051 A 
HETATM    4  C   UNL     1     -41.973 -48.584  12.526  1.00  0.00     0.103 A 
HETATM    5  N   UNL     1     -42.403 -49.658  11.827  1.00  0.00    -0.350 N 
ATOM      6  HN  UNL     1     -42.931 -49.540  10.962  1.00  0.00     0.166 HD
HETATM    7  C   UNL     1     -42.114 -50.900  12.304  1.00  0.00     0.119 A 
ENDROOT
BRANCH   1   8
HETATM    8  N   UNL     1     -41.137 -52.494  13.856  1.00  0.00    -0.325 N 
HETATM    9  C   UNL     1     -41.910 -53.247  14.726  1.00  0.00     0.240 C 
HETATM   10  O   UNL     1     -42.913 -52.830  15.304  1.00  0.00    -0.272 OA
HETATM   11  H   UNL     1     -40.210 -52.857  13.618  1.00  0.00     0.169 HD
BRANCH   9  12
HETATM   12  C   UNL     1     -41.459 -54.684  14.923  1.00  0.00     0.196 C 
HETATM   13  C   UNL     1     -42.467 -55.475  15.757  1.00  0.00     0.036 C 
BRANCH  12  14
HETATM   14  S   UNL     1     -39.836 -54.714  15.662  1.00  0.00     0.153 S 
HETATM   15  O   UNL     1     -38.928 -55.345  14.724  1.00  0.00    -0.227 OA
HETATM   16  O   UNL     1     -39.554 -53.367  16.136  1.00  0.00    -0.227 OA
HETATM   17  C   UNL     1     -39.973 -55.779  17.081  1.00  0.00     0.162 C 
ENDBRANCH  12  14
ENDBRANCH   9  12
ENDBRANCH   1   8
BRANCH   4  18
HETATM   18  N   UNL     1     -42.205 -47.312  12.042  1.00  0.00    -0.362 N 
HETATM   19  C   UNL     1     -43.302 -47.045  11.099  1.00  0.00     0.156 C 
HETATM   20  C   UNL     1     -42.756 -46.701   9.695  1.00  0.00     0.136 C 
HETATM   21  C   UNL     1     -43.888 -46.239   8.786  1.00  0.00     0.041 C 
HETATM   22  O   UNL     1     -41.788 -45.640   9.753  1.00  0.00    -0.378 OA
HETATM   23  C   UNL     1     -40.666 -46.025  10.575  1.00  0.00     0.136 C 
HETATM   24  C   UNL     1     -39.678 -44.867  10.548  1.00  0.00     0.041 C 
HETATM   25  C   UNL     1     -41.118 -46.324  12.018  1.00  0.00     0.156 C 
ENDBRANCH   4  18
TORSDOF 4
ENDMDL
MODEL 9
REMARK VINA RESULT:      -5.4      2.941      8.540
REMARK  4 active torsions:
REMARK  status: ('A' for Active; 'I' for Inactive)
REMARK    1  A    between atoms: C_2  and  C_3 
REMARK    2  A    between atoms: C_2  and  S_21 
REMARK       I    between atoms: C_3  and  N_5 
REMARK    3  A    between atoms: N_5  and  C_6 
REMARK    4  A    between atoms: C_9  and  N_13 
ROOT
HETATM    1  C   UNL     1     -43.033 -49.678  12.878  1.00  0.00     0.050 A 
HETATM    2  C   UNL     1     -43.762 -48.924  11.974  1.00  0.00     0.035 A 
HETATM    3  C   UNL     1     -43.208 -47.763  11.433  1.00  0.00     0.051 A 
HETATM    4  C   UNL     1     -41.919 -47.355  11.777  1.00  0.00     0.103 A 
HETATM    5  N   UNL     1     -41.198 -48.084  12.656  1.00  0.00    -0.350 N 
ATOM      6  HN  UNL     1     -40.257 -47.795  12.926  1.00  0.00     0.166 HD
HETATM    7  C   UNL     1     -41.755 -49.213  13.174  1.00  0.00     0.119 A 
ENDROOT
BRANCH   1   8
HETATM    8  N   UNL     1     -43.515 -50.858  13.488  1.00  0.00    -0.325 N 
HETATM    9  C   UNL     1     -43.178 -52.155  13.132  1.00  0.00     0.240 C 
HETATM   10  O   UNL     1     -42.428 -52.449  12.201  1.00  0.00    -0.272 OA
HETATM   11  H   UNL     1     -44.314 -50.738  14.115  1.00  0.00     0.169 HD
BRANCH   9  12
HETATM   12  C   UNL     1     -43.779 -53.248  13.999  1.00  0.00     0.196 C 
HETATM   13  C   UNL     1     -42.858 -54.465  14.080  1.00  0.00     0.036 C 
BRANCH  12  14
HETATM   14  S   UNL     1     -45.393 -53.690  13.383  1.00  0.00     0.153 S 
HETATM   15  O   UNL     1     -45.622 -52.955  12.154  1.00  0.00    -0.227 OA
HETATM   16  O   UNL     1     -45.465 -55.144  13.372  1.00  0.00    -0.227 OA
HETATM   17  C   UNL     1     -46.551 -53.091  14.594  1.00  0.00     0.162 C 
ENDBRANCH  12  14
ENDBRANCH   9  12
ENDBRANCH   1   8
BRANCH   4  18
HETATM   18  N   UNL     1     -41.401 -46.177  11.274  1.00  0.00    -0.362 N 
HETATM   19  C   UNL     1     -40.096 -45.667  11.721  1.00  0.00     0.156 C 
HETATM   20  C   UNL     1     -40.261 -44.389  12.573  1.00  0.00     0.136 C 
HETATM   21  C   UNL     1     -38.901 -43.768  12.863  1.00  0.00     0.041 C 
HETATM   22  O   UNL     1     -41.052 -43.401  11.890  1.00  0.00    -0.378 OA
HETATM   23  C   UNL     1     -42.372 -43.915  11.613  1.00  0.00     0.136 C 
HETATM   24  C   UNL     1     -43.148 -42.797  10.931  1.00  0.00     0.041 C 
HETATM   25  C   UNL     1     -42.299 -45.160  10.709  1.00  0.00     0.156 C 
ENDBRANCH   4  18
TORSDOF 4
ENDMDL
