MODEL 1
REMARK VINA RESULT:      -5.1      0.000      0.000
REMARK  4 active torsions:
REMARK  status: ('A' for Active; 'I' for Inactive)
REMARK    1  A    between atoms: O_3  and  C_4 
REMARK    2  A    between atoms: C_4  and  C_5 
REMARK    3  A    between atoms: C_4  and  C_8 
REMARK    4  A    between atoms: C_5  and  O_7 
ROOT
HETATM    1  C   UNL     2     -44.695 -47.164   9.522  1.00  0.00    -0.004 A 
HETATM    2  C   UNL     2     -44.183 -47.777  10.677  1.00  0.00     0.013 A 
HETATM    3  C   UNL     2     -42.831 -47.663  11.002  1.00  0.00     0.018 A 
HETATM    4  C   UNL     2     -41.990 -46.929  10.169  1.00  0.00     0.087 A 
HETATM    5  N   UNL     2     -42.487 -46.336   9.053  1.00  0.00    -0.375 N 
ATOM      6  HN  UNL     2     -41.858 -45.801   8.454  1.00  0.00     0.164 HD
HETATM    7  C   UNL     2     -43.800 -46.435   8.711  1.00  0.00     0.097 A 
ENDROOT
BRANCH   1   8
HETATM    8  C   UNL     2     -46.173 -47.338   9.209  1.00  0.00     0.250 C 
BRANCH   8   9
HETATM    9  O   UNL     2     -46.571 -46.333   8.311  1.00  0.00    -0.380 OA
HETATM   10  H   UNL     2     -45.747 -45.982   7.883  1.00  0.00     0.211 HD
ENDBRANCH   8   9
BRANCH   8  11
HETATM   11  C   UNL     2     -46.549 -48.691   8.642  1.00  0.00     0.174 C 
HETATM   12  O   UNL     2     -46.547 -48.876   7.435  1.00  0.00    -0.648 OA
BRANCH  11  13
HETATM   13  O   UNL     2     -46.914 -49.702   9.459  1.00  0.00    -0.774 OA
HETATM   14  H   UNL     2     -46.284 -50.374   9.755  1.00  0.00     0.167 HD
ENDBRANCH  11  13
ENDBRANCH   8  11
ENDBRANCH   1   8
TORSDOF 4
ENDMDL
MODEL 2
REMARK VINA RESULT:      -4.7     22.294     23.416
REMARK  4 active torsions:
REMARK  status: ('A' for Active; 'I' for Inactive)
REMARK    1  A    between atoms: O_3  and  C_4 
REMARK    2  A    between atoms: C_4  and  C_5 
REMARK    3  A    between atoms: C_4  and  C_8 
REMARK    4  A    between atoms: C_5  and  O_7 
ROOT
HETATM    1  C   UNL     2     -28.329 -62.836  15.499  1.00  0.00    -0.004 A 
HETATM    2  C   UNL     2     -27.322 -63.804  15.344  1.00  0.00     0.013 A 
HETATM    3  C   UNL     2     -25.978 -63.431  15.309  1.00  0.00     0.018 A 
HETATM    4  C   UNL     2     -25.640 -62.086  15.434  1.00  0.00     0.087 A 
HETATM    5  N   UNL     2     -26.614 -61.152  15.586  1.00  0.00    -0.375 N 
ATOM      6  HN  UNL     2     -26.350 -60.171  15.678  1.00  0.00     0.164 HD
HETATM    7  C   UNL     2     -27.932 -61.487  15.619  1.00  0.00     0.097 A 
ENDROOT
BRANCH   1   8
HETATM    8  C   UNL     2     -29.777 -63.298  15.511  1.00  0.00     0.250 C 
BRANCH   8   9
HETATM    9  O   UNL     2     -29.826 -64.660  15.171  1.00  0.00    -0.380 OA
HETATM   10  H   UNL     2     -29.443 -64.746  14.259  1.00  0.00     0.211 HD
ENDBRANCH   8   9
BRANCH   8  11
HETATM   11  C   UNL     2     -30.502 -63.085  16.824  1.00  0.00     0.174 C 
HETATM   12  O   UNL     2     -29.887 -63.108  17.878  1.00  0.00    -0.648 OA
BRANCH  11  13
HETATM   13  O   UNL     2     -31.838 -62.892  16.849  1.00  0.00    -0.774 OA
HETATM   14  H   UNL     2     -32.391 -63.035  16.068  1.00  0.00     0.167 HD
ENDBRANCH  11  13
ENDBRANCH   8  11
ENDBRANCH   1   8
TORSDOF 4
ENDMDL
MODEL 3
REMARK VINA RESULT:      -4.6      6.943      8.138
REMARK  4 active torsions:
REMARK  status: ('A' for Active; 'I' for Inactive)
REMARK    1  A    between atoms: O_3  and  C_4 
REMARK    2  A    between atoms: C_4  and  C_5 
REMARK    3  A    between atoms: C_4  and  C_8 
REMARK    4  A    between atoms: C_5  and  O_7 
ROOT
HETATM    1  C   UNL     2     -42.330 -53.542  13.061  1.00  0.00    -0.004 A 
HETATM    2  C   UNL     2     -42.298 -54.392  14.180  1.00  0.00     0.013 A 
HETATM    3  C   UNL     2     -43.472 -54.966  14.668  1.00  0.00     0.018 A 
HETATM    4  C   UNL     2     -44.681 -54.691  14.033  1.00  0.00     0.087 A 
HETATM    5  N   UNL     2     -44.709 -53.872  12.951  1.00  0.00    -0.375 N 
ATOM      6  HN  UNL     2     -45.603 -53.682  12.496  1.00  0.00     0.164 HD
HETATM    7  C   UNL     2     -43.581 -53.295  12.456  1.00  0.00     0.097 A 
ENDROOT
BRANCH   1   8
HETATM    8  C   UNL     2     -41.022 -52.931  12.584  1.00  0.00     0.250 C 
BRANCH   8   9
HETATM    9  O   UNL     2     -40.596 -53.607  11.429  1.00  0.00    -0.380 OA
HETATM   10  H   UNL     2     -39.855 -53.074  11.037  1.00  0.00     0.211 HD
ENDBRANCH   8   9
BRANCH   8  11
HETATM   11  C   UNL     2     -41.082 -51.444  12.298  1.00  0.00     0.174 C 
HETATM   12  O   UNL     2     -41.359 -50.656  13.189  1.00  0.00    -0.648 OA
BRANCH  11  13
HETATM   13  O   UNL     2     -40.854 -50.973  11.053  1.00  0.00    -0.774 OA
HETATM   14  H   UNL     2     -40.702 -50.033  10.881  1.00  0.00     0.167 HD
ENDBRANCH  11  13
ENDBRANCH   8  11
ENDBRANCH   1   8
TORSDOF 4
ENDMDL
MODEL 4
REMARK VINA RESULT:      -4.5      6.989      8.251
REMARK  4 active torsions:
REMARK  status: ('A' for Active; 'I' for Inactive)
REMARK    1  A    between atoms: O_3  and  C_4 
REMARK    2  A    between atoms: C_4  and  C_5 
REMARK    3  A    between atoms: C_4  and  C_8 
REMARK    4  A    between atoms: C_5  and  O_7 
ROOT
HETATM    1  C   UNL     2     -42.183 -53.556  13.098  1.00  0.00    -0.004 A 
HETATM    2  C   UNL     2     -43.401 -53.284  12.451  1.00  0.00     0.013 A 
HETATM    3  C   UNL     2     -44.592 -53.837  12.919  1.00  0.00     0.018 A 
HETATM    4  C   UNL     2     -44.567 -54.663  14.041  1.00  0.00     0.087 A 
HETATM    5  N   UNL     2     -43.390 -54.924  14.665  1.00  0.00    -0.375 N 
ATOM      6  HN  UNL     2     -43.388 -55.529  15.487  1.00  0.00     0.164 HD
HETATM    7  C   UNL     2     -42.213 -54.401  14.228  1.00  0.00     0.097 A 
ENDROOT
BRANCH   1   8
HETATM    8  C   UNL     2     -40.914 -52.940  12.533  1.00  0.00     0.250 C 
BRANCH   8   9
HETATM    9  O   UNL     2     -40.591 -53.583  11.327  1.00  0.00    -0.380 OA
HETATM   10  H   UNL     2     -41.146 -53.167  10.617  1.00  0.00     0.211 HD
ENDBRANCH   8   9
BRANCH   8  11
HETATM   11  C   UNL     2     -40.981 -51.445  12.298  1.00  0.00     0.174 C 
HETATM   12  O   UNL     2     -41.176 -50.683  13.232  1.00  0.00    -0.648 OA
BRANCH  11  13
HETATM   13  O   UNL     2     -40.851 -50.937  11.054  1.00  0.00    -0.774 OA
HETATM   14  H   UNL     2     -40.434 -51.436  10.338  1.00  0.00     0.167 HD
ENDBRANCH  11  13
ENDBRANCH   8  11
ENDBRANCH   1   8
TORSDOF 4
ENDMDL
MODEL 5
REMARK VINA RESULT:      -4.4      6.880      7.818
REMARK  4 active torsions:
REMARK  status: ('A' for Active; 'I' for Inactive)
REMARK    1  A    between atoms: O_3  and  C_4 
REMARK    2  A    between atoms: C_4  and  C_5 
REMARK    3  A    between atoms: C_4  and  C_8 
REMARK    4  A    between atoms: C_5  and  O_7 
ROOT
HETATM    1  C   UNL     2     -43.678 -53.515  13.280  1.00  0.00    -0.004 A 
HETATM    2  C   UNL     2     -42.827 -54.290  14.086  1.00  0.00     0.013 A 
HETATM    3  C   UNL     2     -41.455 -54.326  13.840  1.00  0.00     0.018 A 
HETATM    4  C   UNL     2     -40.931 -53.580  12.787  1.00  0.00     0.087 A 
HETATM    5  N   UNL     2     -41.754 -52.830  12.010  1.00  0.00    -0.375 N 
ATOM      6  HN  UNL     2     -41.354 -52.288  11.243  1.00  0.00     0.164 HD
HETATM    7  C   UNL     2     -43.096 -52.780  12.224  1.00  0.00     0.097 A 
ENDROOT
BRANCH   1   8
HETATM    8  C   UNL     2     -45.167 -53.528  13.582  1.00  0.00     0.250 C 
BRANCH   8   9
HETATM    9  O   UNL     2     -45.880 -53.464  12.374  1.00  0.00    -0.380 OA
HETATM   10  H   UNL     2     -46.346 -54.334  12.265  1.00  0.00     0.211 HD
ENDBRANCH   8   9
BRANCH   8  11
HETATM   11  C   UNL     2     -45.644 -54.724  14.381  1.00  0.00     0.174 C 
HETATM   12  O   UNL     2     -45.832 -55.797  13.830  1.00  0.00    -0.648 OA
BRANCH  11  13
HETATM   13  O   UNL     2     -45.891 -54.614  15.704  1.00  0.00    -0.774 OA
HETATM   14  H   UNL     2     -45.190 -54.704  16.365  1.00  0.00     0.167 HD
ENDBRANCH  11  13
ENDBRANCH   8  11
ENDBRANCH   1   8
TORSDOF 4
ENDMDL
MODEL 6
REMARK VINA RESULT:      -4.3      7.681      8.874
REMARK  4 active torsions:
REMARK  status: ('A' for Active; 'I' for Inactive)
REMARK    1  A    between atoms: O_3  and  C_4 
REMARK    2  A    between atoms: C_4  and  C_5 
REMARK    3  A    between atoms: C_4  and  C_8 
REMARK    4  A    between atoms: C_5  and  O_7 
ROOT
HETATM    1  C   UNL     2     -42.286 -53.792  13.226  1.00  0.00    -0.004 A 
HETATM    2  C   UNL     2     -42.837 -54.586  14.246  1.00  0.00     0.013 A 
HETATM    3  C   UNL     2     -44.088 -54.284  14.783  1.00  0.00     0.018 A 
HETATM    4  C   UNL     2     -44.793 -53.187  14.295  1.00  0.00     0.087 A 
HETATM    5  N   UNL     2     -44.261 -52.421  13.308  1.00  0.00    -0.375 N 
ATOM      6  HN  UNL     2     -44.791 -51.622  12.960  1.00  0.00     0.164 HD
HETATM    7  C   UNL     2     -43.041 -52.690  12.769  1.00  0.00     0.097 A 
ENDROOT
BRANCH   1   8
HETATM    8  C   UNL     2     -40.911 -54.157  12.691  1.00  0.00     0.250 C 
BRANCH   8   9
HETATM    9  O   UNL     2     -40.663 -53.418  11.523  1.00  0.00    -0.380 OA
HETATM   10  H   UNL     2     -41.530 -53.026  11.237  1.00  0.00     0.211 HD
ENDBRANCH   8   9
BRANCH   8  11
HETATM   11  C   UNL     2     -39.772 -53.946  13.667  1.00  0.00     0.174 C 
HETATM   12  O   UNL     2     -39.848 -53.081  14.526  1.00  0.00    -0.648 OA
BRANCH  11  13
HETATM   13  O   UNL     2     -38.649 -54.692  13.586  1.00  0.00    -0.774 OA
HETATM   14  H   UNL     2     -37.768 -54.301  13.666  1.00  0.00     0.167 HD
ENDBRANCH  11  13
ENDBRANCH   8  11
ENDBRANCH   1   8
TORSDOF 4
ENDMDL
MODEL 7
REMARK VINA RESULT:      -4.3      2.918      3.938
REMARK  4 active torsions:
REMARK  status: ('A' for Active; 'I' for Inactive)
REMARK    1  A    between atoms: O_3  and  C_4 
REMARK    2  A    between atoms: C_4  and  C_5 
REMARK    3  A    between atoms: C_4  and  C_8 
REMARK    4  A    between atoms: C_5  and  O_7 
ROOT
HETATM    1  C   UNL     2     -42.342 -47.137  10.980  1.00  0.00    -0.004 A 
HETATM    2  C   UNL     2     -43.008 -47.273  12.209  1.00  0.00     0.013 A 
HETATM    3  C   UNL     2     -43.015 -48.495  12.882  1.00  0.00     0.018 A 
HETATM    4  C   UNL     2     -42.349 -49.584  12.324  1.00  0.00     0.087 A 
HETATM    5  N   UNL     2     -41.703 -49.450  11.137  1.00  0.00    -0.375 N 
ATOM      6  HN  UNL     2     -41.219 -50.257  10.743  1.00  0.00     0.164 HD
HETATM    7  C   UNL     2     -41.685 -48.272  10.458  1.00  0.00     0.097 A 
ENDROOT
BRANCH   1   8
HETATM    8  C   UNL     2     -42.383 -45.787  10.283  1.00  0.00     0.250 C 
BRANCH   8   9
HETATM    9  O   UNL     2     -41.219 -45.633   9.514  1.00  0.00    -0.380 OA
HETATM   10  H   UNL     2     -41.487 -45.708   8.560  1.00  0.00     0.211 HD
ENDBRANCH   8   9
BRANCH   8  11
HETATM   11  C   UNL     2     -43.596 -45.561   9.403  1.00  0.00     0.174 C 
HETATM   12  O   UNL     2     -44.028 -46.466   8.706  1.00  0.00    -0.648 OA
BRANCH  11  13
HETATM   13  O   UNL     2     -44.200 -44.354   9.360  1.00  0.00    -0.774 OA
HETATM   14  H   UNL     2     -44.083 -43.698  10.061  1.00  0.00     0.167 HD
ENDBRANCH  11  13
ENDBRANCH   8  11
ENDBRANCH   1   8
TORSDOF 4
ENDMDL
MODEL 8
REMARK VINA RESULT:      -4.2      5.928      7.028
REMARK  4 active torsions:
REMARK  status: ('A' for Active; 'I' for Inactive)
REMARK    1  A    between atoms: O_3  and  C_4 
REMARK    2  A    between atoms: C_4  and  C_5 
REMARK    3  A    between atoms: C_4  and  C_8 
REMARK    4  A    between atoms: C_5  and  O_7 
ROOT
HETATM    1  C   UNL     2     -42.302 -51.888  12.556  1.00  0.00    -0.004 A 
HETATM    2  C   UNL     2     -42.765 -50.737  13.216  1.00  0.00     0.013 A 
HETATM    3  C   UNL     2     -44.119 -50.588  13.518  1.00  0.00     0.018 A 
HETATM    4  C   UNL     2     -45.012 -51.595  13.161  1.00  0.00     0.087 A 
HETATM    5  N   UNL     2     -44.563 -52.708  12.526  1.00  0.00    -0.375 N 
ATOM      6  HN  UNL     2     -45.230 -53.438  12.273  1.00  0.00     0.164 HD
HETATM    7  C   UNL     2     -43.249 -52.877  12.216  1.00  0.00     0.097 A 
ENDROOT
BRANCH   1   8
HETATM    8  C   UNL     2     -40.819 -51.989  12.237  1.00  0.00     0.250 C 
BRANCH   8   9
HETATM    9  O   UNL     2     -40.619 -53.034  11.322  1.00  0.00    -0.380 OA
HETATM   10  H   UNL     2     -41.480 -53.521  11.242  1.00  0.00     0.211 HD
ENDBRANCH   8   9
BRANCH   8  11
HETATM   11  C   UNL     2     -40.198 -50.720  11.690  1.00  0.00     0.174 C 
HETATM   12  O   UNL     2     -39.427 -50.066  12.375  1.00  0.00    -0.648 OA
BRANCH  11  13
HETATM   13  O   UNL     2     -40.507 -50.282  10.450  1.00  0.00    -0.774 OA
HETATM   14  H   UNL     2     -41.137 -50.749   9.884  1.00  0.00     0.167 HD
ENDBRANCH  11  13
ENDBRANCH   8  11
ENDBRANCH   1   8
TORSDOF 4
ENDMDL
MODEL 9
REMARK VINA RESULT:      -4.2      7.084      8.129
REMARK  4 active torsions:
REMARK  status: ('A' for Active; 'I' for Inactive)
REMARK    1  A    between atoms: O_3  and  C_4 
REMARK    2  A    between atoms: C_4  and  C_5 
REMARK    3  A    between atoms: C_4  and  C_8 
REMARK    4  A    between atoms: C_5  and  O_7 
ROOT
HETATM    1  C   UNL     2     -44.230 -53.967  13.345  1.00  0.00    -0.004 A 
HETATM    2  C   UNL     2     -43.094 -54.439  14.024  1.00  0.00     0.013 A 
HETATM    3  C   UNL     2     -41.816 -54.042  13.631  1.00  0.00     0.018 A 
HETATM    4  C   UNL     2     -41.674 -53.168  12.556  1.00  0.00     0.087 A 
HETATM    5  N   UNL     2     -42.773 -52.712  11.902  1.00  0.00    -0.375 N 
ATOM      6  HN  UNL     2     -42.652 -52.070  11.118  1.00  0.00     0.164 HD
HETATM    7  C   UNL     2     -44.031 -53.085  12.262  1.00  0.00     0.097 A 
ENDROOT
BRANCH   1   8
HETATM    8  C   UNL     2     -45.597 -54.447  13.806  1.00  0.00     0.250 C 
BRANCH   8   9
HETATM    9  O   UNL     2     -45.585 -55.849  13.891  1.00  0.00    -0.380 OA
HETATM   10  H   UNL     2     -44.947 -56.092  14.613  1.00  0.00     0.211 HD
ENDBRANCH   8   9
BRANCH   8  11
HETATM   11  C   UNL     2     -46.061 -53.871  15.128  1.00  0.00     0.174 C 
HETATM   12  O   UNL     2     -46.549 -52.752  15.175  1.00  0.00    -0.648 OA
BRANCH  11  13
HETATM   13  O   UNL     2     -45.921 -54.574  16.273  1.00  0.00    -0.774 OA
HETATM   14  H   UNL     2     -45.610 -55.490  16.276  1.00  0.00     0.167 HD
ENDBRANCH  11  13
ENDBRANCH   8  11
ENDBRANCH   1   8
TORSDOF 4
ENDMDL
