MODEL 1
REMARK VINA RESULT:      -5.7      0.000      0.000
REMARK  4 active torsions:
REMARK  status: ('A' for Active; 'I' for Inactive)
REMARK    1  A    between atoms: C_2  and  C_5 
REMARK    2  A    between atoms: C_5  and  C_6 
REMARK       I    between atoms: C_6  and  N_8 
REMARK    3  A    between atoms: N_8  and  C_9 
REMARK    4  A    between atoms: C_12  and  N_16 
ROOT
HETATM    1  C   UNL     1     -42.878 -50.197  12.622  1.00  0.00     0.107 C 
HETATM    2  C   UNL     1     -43.162 -49.261  13.601  1.00  0.00     0.051 C 
HETATM    3  C   UNL     1     -42.596 -47.992  13.501  1.00  0.00     0.034 C 
HETATM    4  C   UNL     1     -41.783 -47.639  12.420  1.00  0.00     0.046 C 
HETATM    5  C   UNL     1     -41.493 -48.708  11.558  1.00  0.00     0.119 C 
HETATM    6  N   UNL     1     -41.985 -49.977  11.647  1.00  0.00    -0.350 N 
ATOM      7  HN  UNL     1     -41.691 -50.716  11.009  1.00  0.00     0.166 HD
ENDROOT
BRANCH   1   8
HETATM    8  N   UNL     1     -43.534 -51.430  12.588  1.00  0.00    -0.313 N 
HETATM    9  C   UNL     1     -42.873 -52.595  12.927  1.00  0.00     0.223 C 
HETATM   10  O   UNL     1     -41.706 -52.656  13.299  1.00  0.00    -0.273 OA
HETATM   11  H   UNL     1     -44.521 -51.369  12.800  1.00  0.00     0.170 HD
BRANCH   9  12
HETATM   12  C   UNL     1     -43.706 -53.857  12.790  1.00  0.00     0.111 C 
BRANCH  12  13
HETATM   13  C   UNL     1     -44.274 -54.347  14.145  1.00  0.00    -0.043 C 
HETATM   14  C   UNL     1     -44.717 -53.172  15.037  1.00  0.00     0.015 C 
HETATM   15  C   UNL     1     -43.228 -55.188  14.894  1.00  0.00     0.015 C 
HETATM   16  C   UNL     1     -45.509 -55.224  13.866  1.00  0.00     0.015 C 
ENDBRANCH  12  13
ENDBRANCH   9  12
ENDBRANCH   1   8
BRANCH   4  17
HETATM   17  N   UNL     1     -41.321 -46.348  12.257  1.00  0.00    -0.376 N 
HETATM   18  C   UNL     1     -42.219 -45.180  12.379  1.00  0.00     0.149 C 
HETATM   19  C   UNL     1     -42.280 -44.403  11.051  1.00  0.00     0.187 C 
HETATM   20  O   UNL     1     -40.972 -44.037  10.590  1.00  0.00    -0.388 OA
HETATM   21  C   UNL     1     -40.169 -45.212  10.386  1.00  0.00     0.187 C 
HETATM   22  C   UNL     1     -40.004 -46.010  11.690  1.00  0.00     0.149 C 
ENDBRANCH   4  17
TORSDOF 4
ENDMDL
MODEL 2
REMARK VINA RESULT:      -5.7      2.347      3.020
REMARK  4 active torsions:
REMARK  status: ('A' for Active; 'I' for Inactive)
REMARK    1  A    between atoms: C_2  and  C_5 
REMARK    2  A    between atoms: C_5  and  C_6 
REMARK       I    between atoms: C_6  and  N_8 
REMARK    3  A    between atoms: N_8  and  C_9 
REMARK    4  A    between atoms: C_12  and  N_16 
ROOT
HETATM    1  C   UNL     1     -40.238 -49.688  11.315  1.00  0.00     0.107 C 
HETATM    2  C   UNL     1     -39.385 -48.769  11.902  1.00  0.00     0.051 C 
HETATM    3  C   UNL     1     -39.647 -47.410  11.740  1.00  0.00     0.034 C 
HETATM    4  C   UNL     1     -40.767 -46.963  11.034  1.00  0.00     0.046 C 
HETATM    5  C   UNL     1     -41.487 -47.991  10.406  1.00  0.00     0.119 C 
HETATM    6  N   UNL     1     -41.236 -49.328  10.496  1.00  0.00    -0.350 N 
ATOM      7  HN  UNL     1     -41.776 -50.015   9.971  1.00  0.00     0.166 HD
ENDROOT
BRANCH   1   8
HETATM    8  N   UNL     1     -40.112 -51.056  11.569  1.00  0.00    -0.313 N 
HETATM    9  C   UNL     1     -41.158 -51.776  12.113  1.00  0.00     0.223 C 
HETATM   10  O   UNL     1     -42.260 -51.312  12.390  1.00  0.00    -0.273 OA
HETATM   11  H   UNL     1     -39.498 -51.532  10.922  1.00  0.00     0.170 HD
BRANCH   9  12
HETATM   12  C   UNL     1     -40.849 -53.238  12.377  1.00  0.00     0.111 C 
BRANCH  12  13
HETATM   13  C   UNL     1     -40.487 -53.514  13.857  1.00  0.00    -0.043 C 
HETATM   14  C   UNL     1     -40.056 -52.229  14.588  1.00  0.00     0.015 C 
HETATM   15  C   UNL     1     -39.359 -54.554  13.950  1.00  0.00     0.015 C 
HETATM   16  C   UNL     1     -41.735 -54.070  14.568  1.00  0.00     0.015 C 
ENDBRANCH  12  13
ENDBRANCH   9  12
ENDBRANCH   1   8
BRANCH   4  17
HETATM   17  N   UNL     1     -41.095 -45.623  10.976  1.00  0.00    -0.376 N 
HETATM   18  C   UNL     1     -40.060 -44.574  10.846  1.00  0.00     0.149 C 
HETATM   19  C   UNL     1     -40.083 -43.638  12.068  1.00  0.00     0.187 C 
HETATM   20  O   UNL     1     -41.389 -43.087  12.291  1.00  0.00    -0.388 OA
HETATM   21  C   UNL     1     -42.340 -44.142  12.516  1.00  0.00     0.187 C 
HETATM   22  C   UNL     1     -42.426 -45.085  11.305  1.00  0.00     0.149 C 
ENDBRANCH   4  17
TORSDOF 4
ENDMDL
MODEL 3
REMARK VINA RESULT:      -5.4      1.544      2.218
REMARK  4 active torsions:
REMARK  status: ('A' for Active; 'I' for Inactive)
REMARK    1  A    between atoms: C_2  and  C_5 
REMARK    2  A    between atoms: C_5  and  C_6 
REMARK       I    between atoms: C_6  and  N_8 
REMARK    3  A    between atoms: N_8  and  C_9 
REMARK    4  A    between atoms: C_12  and  N_16 
ROOT
HETATM    1  C   UNL     1     -41.374 -49.738  12.611  1.00  0.00     0.107 C 
HETATM    2  C   UNL     1     -40.600 -48.712  13.125  1.00  0.00     0.051 C 
HETATM    3  C   UNL     1     -40.530 -47.509  12.425  1.00  0.00     0.034 C 
HETATM    4  C   UNL     1     -41.250 -47.309  11.244  1.00  0.00     0.046 C 
HETATM    5  C   UNL     1     -41.908 -48.459  10.782  1.00  0.00     0.119 C 
HETATM    6  N   UNL     1     -41.961 -49.669  11.408  1.00  0.00    -0.350 N 
ATOM      7  HN  UNL     1     -42.421 -50.475  10.986  1.00  0.00     0.166 HD
ENDROOT
BRANCH   1   8
HETATM    8  N   UNL     1     -41.602 -50.907  13.341  1.00  0.00    -0.313 N 
HETATM    9  C   UNL     1     -42.866 -51.219  13.804  1.00  0.00     0.223 C 
HETATM   10  O   UNL     1     -43.872 -50.546  13.605  1.00  0.00    -0.273 OA
HETATM   11  H   UNL     1     -40.992 -51.671  13.083  1.00  0.00     0.170 HD
BRANCH   9  12
HETATM   12  C   UNL     1     -42.941 -52.494  14.624  1.00  0.00     0.111 C 
BRANCH  12  13
HETATM   13  C   UNL     1     -43.115 -53.759  13.748  1.00  0.00    -0.043 C 
HETATM   14  C   UNL     1     -43.988 -53.481  12.510  1.00  0.00     0.015 C 
HETATM   15  C   UNL     1     -43.743 -54.898  14.567  1.00  0.00     0.015 C 
HETATM   16  C   UNL     1     -41.725 -54.207  13.259  1.00  0.00     0.015 C 
ENDBRANCH  12  13
ENDBRANCH   9  12
ENDBRANCH   1   8
BRANCH   4  17
HETATM   17  N   UNL     1     -41.279 -46.079  10.617  1.00  0.00    -0.376 N 
HETATM   18  C   UNL     1     -40.045 -45.301  10.375  1.00  0.00     0.149 C 
HETATM   19  C   UNL     1     -40.101 -43.954  11.118  1.00  0.00     0.187 C 
HETATM   20  O   UNL     1     -41.284 -43.213  10.785  1.00  0.00    -0.388 OA
HETATM   21  C   UNL     1     -42.457 -43.968  11.135  1.00  0.00     0.187 C 
HETATM   22  C   UNL     1     -42.508 -45.305  10.377  1.00  0.00     0.149 C 
ENDBRANCH   4  17
TORSDOF 4
ENDMDL
MODEL 4
REMARK VINA RESULT:      -5.2      1.875      7.922
REMARK  4 active torsions:
REMARK  status: ('A' for Active; 'I' for Inactive)
REMARK    1  A    between atoms: C_2  and  C_5 
REMARK    2  A    between atoms: C_5  and  C_6 
REMARK       I    between atoms: C_6  and  N_8 
REMARK    3  A    between atoms: N_8  and  C_9 
REMARK    4  A    between atoms: C_12  and  N_16 
ROOT
HETATM    1  C   UNL     1     -41.861 -49.671  12.316  1.00  0.00     0.107 C 
HETATM    2  C   UNL     1     -43.044 -49.678  13.036  1.00  0.00     0.051 C 
HETATM    3  C   UNL     1     -43.660 -50.897  13.304  1.00  0.00     0.034 C 
HETATM    4  C   UNL     1     -43.092 -52.107  12.896  1.00  0.00     0.046 C 
HETATM    5  C   UNL     1     -41.953 -51.953  12.090  1.00  0.00     0.119 C 
HETATM    6  N   UNL     1     -41.346 -50.777  11.761  1.00  0.00    -0.350 N 
ATOM      7  HN  UNL     1     -40.546 -50.741  11.129  1.00  0.00     0.166 HD
ENDROOT
BRANCH   1   8
HETATM    8  N   UNL     1     -41.123 -48.497  12.148  1.00  0.00    -0.313 N 
HETATM    9  C   UNL     1     -41.153 -47.805  10.953  1.00  0.00     0.223 C 
HETATM   10  O   UNL     1     -41.820 -48.124   9.974  1.00  0.00    -0.273 OA
HETATM   11  H   UNL     1     -41.013 -47.963  13.000  1.00  0.00     0.170 HD
BRANCH   9  12
HETATM   12  C   UNL     1     -40.258 -46.580  10.910  1.00  0.00     0.111 C 
BRANCH  12  13
HETATM   13  C   UNL     1     -40.967 -45.303  11.426  1.00  0.00    -0.043 C 
HETATM   14  C   UNL     1     -42.433 -45.236  10.956  1.00  0.00     0.015 C 
HETATM   15  C   UNL     1     -40.223 -44.045  10.951  1.00  0.00     0.015 C 
HETATM   16  C   UNL     1     -40.962 -45.333  12.965  1.00  0.00     0.015 C 
ENDBRANCH  12  13
ENDBRANCH   9  12
ENDBRANCH   1   8
BRANCH   4  17
HETATM   17  N   UNL     1     -43.636 -53.321  13.266  1.00  0.00    -0.376 N 
HETATM   18  C   UNL     1     -45.067 -53.629  13.053  1.00  0.00     0.149 C 
HETATM   19  C   UNL     1     -45.771 -53.885  14.397  1.00  0.00     0.187 C 
HETATM   20  O   UNL     1     -45.105 -54.901  15.161  1.00  0.00    -0.388 OA
HETATM   21  C   UNL     1     -43.749 -54.509  15.432  1.00  0.00     0.187 C 
HETATM   22  C   UNL     1     -42.956 -54.300  14.132  1.00  0.00     0.149 C 
ENDBRANCH   4  17
TORSDOF 4
ENDMDL
MODEL 5
REMARK VINA RESULT:      -5.1      2.591      7.722
REMARK  4 active torsions:
REMARK  status: ('A' for Active; 'I' for Inactive)
REMARK    1  A    between atoms: C_2  and  C_5 
REMARK    2  A    between atoms: C_5  and  C_6 
REMARK       I    between atoms: C_6  and  N_8 
REMARK    3  A    between atoms: N_8  and  C_9 
REMARK    4  A    between atoms: C_12  and  N_16 
ROOT
HETATM    1  C   UNL     1     -42.181 -49.870  12.185  1.00  0.00     0.107 C 
HETATM    2  C   UNL     1     -41.046 -50.535  12.616  1.00  0.00     0.051 C 
HETATM    3  C   UNL     1     -41.172 -51.506  13.607  1.00  0.00     0.034 C 
HETATM    4  C   UNL     1     -42.417 -51.844  14.143  1.00  0.00     0.046 C 
HETATM    5  C   UNL     1     -43.466 -51.026  13.696  1.00  0.00     0.119 C 
HETATM    6  N   UNL     1     -43.378 -50.032  12.766  1.00  0.00    -0.350 N 
ATOM      7  HN  UNL     1     -44.178 -49.446  12.525  1.00  0.00     0.166 HD
ENDROOT
BRANCH   1   8
HETATM    8  N   UNL     1     -42.139 -48.999  11.093  1.00  0.00    -0.313 N 
HETATM    9  C   UNL     1     -42.505 -47.674  11.228  1.00  0.00     0.223 C 
HETATM   10  O   UNL     1     -42.862 -47.148  12.278  1.00  0.00    -0.273 OA
HETATM   11  H   UNL     1     -41.413 -49.222  10.426  1.00  0.00     0.170 HD
BRANCH   9  12
HETATM   12  C   UNL     1     -42.456 -46.871   9.941  1.00  0.00     0.111 C 
BRANCH  12  13
HETATM   13  C   UNL     1     -43.775 -46.952   9.135  1.00  0.00    -0.043 C 
HETATM   14  C   UNL     1     -43.593 -47.733   7.820  1.00  0.00     0.015 C 
HETATM   15  C   UNL     1     -44.301 -45.543   8.820  1.00  0.00     0.015 C 
HETATM   16  C   UNL     1     -44.822 -47.694   9.988  1.00  0.00     0.015 C 
ENDBRANCH  12  13
ENDBRANCH   9  12
ENDBRANCH   1   8
BRANCH   4  17
HETATM   17  N   UNL     1     -42.559 -52.888  15.035  1.00  0.00    -0.376 N 
HETATM   18  C   UNL     1     -42.239 -54.282  14.658  1.00  0.00     0.149 C 
HETATM   19  C   UNL     1     -43.492 -55.170  14.755  1.00  0.00     0.187 C 
HETATM   20  O   UNL     1     -44.104 -55.085  16.050  1.00  0.00    -0.388 OA
HETATM   21  C   UNL     1     -44.492 -53.729  16.327  1.00  0.00     0.187 C 
HETATM   22  C   UNL     1     -43.278 -52.786  16.317  1.00  0.00     0.149 C 
ENDBRANCH   4  17
TORSDOF 4
ENDMDL
MODEL 6
REMARK VINA RESULT:      -4.9      3.767      7.593
REMARK  4 active torsions:
REMARK  status: ('A' for Active; 'I' for Inactive)
REMARK    1  A    between atoms: C_2  and  C_5 
REMARK    2  A    between atoms: C_5  and  C_6 
REMARK       I    between atoms: C_6  and  N_8 
REMARK    3  A    between atoms: N_8  and  C_9 
REMARK    4  A    between atoms: C_12  and  N_16 
ROOT
HETATM    1  C   UNL     1     -41.734 -52.841  13.328  1.00  0.00     0.107 C 
HETATM    2  C   UNL     1     -42.853 -52.561  12.562  1.00  0.00     0.051 C 
HETATM    3  C   UNL     1     -44.114 -52.766  13.115  1.00  0.00     0.034 C 
HETATM    4  C   UNL     1     -44.270 -53.211  14.431  1.00  0.00     0.046 C 
HETATM    5  C   UNL     1     -43.062 -53.554  15.058  1.00  0.00     0.119 C 
HETATM    6  N   UNL     1     -41.810 -53.417  14.536  1.00  0.00    -0.350 N 
ATOM      7  HN  UNL     1     -40.979 -53.733  15.035  1.00  0.00     0.166 HD
ENDROOT
BRANCH   1   8
HETATM    8  N   UNL     1     -40.451 -52.513  12.881  1.00  0.00    -0.313 N 
HETATM    9  C   UNL     1     -39.673 -51.601  13.567  1.00  0.00     0.223 C 
HETATM   10  O   UNL     1     -40.006 -51.034  14.603  1.00  0.00    -0.273 OA
HETATM   11  H   UNL     1     -39.981 -53.273  12.409  1.00  0.00     0.170 HD
BRANCH   9  12
HETATM   12  C   UNL     1     -38.327 -51.312  12.929  1.00  0.00     0.111 C 
BRANCH  12  13
HETATM   13  C   UNL     1     -38.275 -49.921  12.249  1.00  0.00    -0.043 C 
HETATM   14  C   UNL     1     -37.813 -48.825  13.228  1.00  0.00     0.015 C 
HETATM   15  C   UNL     1     -39.653 -49.548  11.681  1.00  0.00     0.015 C 
HETATM   16  C   UNL     1     -37.260 -49.983  11.092  1.00  0.00     0.015 C 
ENDBRANCH  12  13
ENDBRANCH   9  12
ENDBRANCH   1   8
BRANCH   4  17
HETATM   17  N   UNL     1     -45.515 -53.297  15.020  1.00  0.00    -0.376 N 
HETATM   18  C   UNL     1     -46.686 -52.576  14.475  1.00  0.00     0.149 C 
HETATM   19  C   UNL     1     -47.226 -51.566  15.503  1.00  0.00     0.187 C 
HETATM   20  O   UNL     1     -47.513 -52.192  16.762  1.00  0.00    -0.388 OA
HETATM   21  C   UNL     1     -46.322 -52.789  17.302  1.00  0.00     0.187 C 
HETATM   22  C   UNL     1     -45.756 -53.863  16.359  1.00  0.00     0.149 C 
ENDBRANCH   4  17
TORSDOF 4
ENDMDL
MODEL 7
REMARK VINA RESULT:      -4.9      4.324      5.781
REMARK  4 active torsions:
REMARK  status: ('A' for Active; 'I' for Inactive)
REMARK    1  A    between atoms: C_2  and  C_5 
REMARK    2  A    between atoms: C_5  and  C_6 
REMARK       I    between atoms: C_6  and  N_8 
REMARK    3  A    between atoms: N_8  and  C_9 
REMARK    4  A    between atoms: C_12  and  N_16 
ROOT
HETATM    1  C   UNL     1     -40.495 -45.826  10.929  1.00  0.00     0.107 C 
HETATM    2  C   UNL     1     -39.606 -44.841  11.325  1.00  0.00     0.051 C 
HETATM    3  C   UNL     1     -40.099 -43.574  11.628  1.00  0.00     0.034 C 
HETATM    4  C   UNL     1     -41.466 -43.292  11.577  1.00  0.00     0.046 C 
HETATM    5  C   UNL     1     -42.242 -44.344  11.064  1.00  0.00     0.119 C 
HETATM    6  N   UNL     1     -41.794 -45.582  10.708  1.00  0.00    -0.350 N 
ATOM      7  HN  UNL     1     -42.412 -46.281  10.297  1.00  0.00     0.166 HD
ENDROOT
BRANCH   1   8
HETATM    8  N   UNL     1     -40.080 -47.149  10.760  1.00  0.00    -0.313 N 
HETATM    9  C   UNL     1     -40.491 -48.139  11.631  1.00  0.00     0.223 C 
HETATM   10  O   UNL     1     -41.248 -47.967  12.581  1.00  0.00    -0.273 OA
HETATM   11  H   UNL     1     -39.928 -47.405   9.793  1.00  0.00     0.170 HD
BRANCH   9  12
HETATM   12  C   UNL     1     -39.914 -49.513  11.345  1.00  0.00     0.111 C 
BRANCH  12  13
HETATM   13  C   UNL     1     -38.596 -49.780  12.114  1.00  0.00    -0.043 C 
HETATM   14  C   UNL     1     -38.301 -48.671  13.142  1.00  0.00     0.015 C 
HETATM   15  C   UNL     1     -37.416 -49.894  11.136  1.00  0.00     0.015 C 
HETATM   16  C   UNL     1     -38.740 -51.110  12.878  1.00  0.00     0.015 C 
ENDBRANCH  12  13
ENDBRANCH   9  12
ENDBRANCH   1   8
BRANCH   4  17
HETATM   17  N   UNL     1     -41.968 -42.075  11.994  1.00  0.00    -0.376 N 
HETATM   18  C   UNL     1     -43.372 -41.922  12.433  1.00  0.00     0.149 C 
HETATM   19  C   UNL     1     -44.120 -40.936  11.516  1.00  0.00     0.187 C 
HETATM   20  O   UNL     1     -43.439 -39.677  11.424  1.00  0.00    -0.388 OA
HETATM   21  C   UNL     1     -42.115 -39.865  10.895  1.00  0.00     0.187 C 
HETATM   22  C   UNL     1     -41.279 -40.788  11.796  1.00  0.00     0.149 C 
ENDBRANCH   4  17
TORSDOF 4
ENDMDL
MODEL 8
REMARK VINA RESULT:      -4.8      1.592      2.288
REMARK  4 active torsions:
REMARK  status: ('A' for Active; 'I' for Inactive)
REMARK    1  A    between atoms: C_2  and  C_5 
REMARK    2  A    between atoms: C_5  and  C_6 
REMARK       I    between atoms: C_6  and  N_8 
REMARK    3  A    between atoms: N_8  and  C_9 
REMARK    4  A    between atoms: C_12  and  N_16 
ROOT
HETATM    1  C   UNL     1     -41.567 -49.083  12.023  1.00  0.00     0.107 C 
HETATM    2  C   UNL     1     -42.281 -47.994  12.493  1.00  0.00     0.051 C 
HETATM    3  C   UNL     1     -41.672 -46.741  12.494  1.00  0.00     0.034 C 
HETATM    4  C   UNL     1     -40.378 -46.559  11.999  1.00  0.00     0.046 C 
HETATM    5  C   UNL     1     -39.732 -47.755  11.652  1.00  0.00     0.119 C 
HETATM    6  N   UNL     1     -40.273 -49.007  11.683  1.00  0.00    -0.350 N 
ATOM      7  HN  UNL     1     -39.725 -49.838  11.460  1.00  0.00     0.166 HD
ENDROOT
BRANCH   1   8
HETATM    8  N   UNL     1     -42.176 -50.330  11.858  1.00  0.00    -0.313 N 
HETATM    9  C   UNL     1     -41.649 -51.460  12.452  1.00  0.00     0.223 C 
HETATM   10  O   UNL     1     -40.655 -51.476  13.172  1.00  0.00    -0.273 OA
HETATM   11  H   UNL     1     -43.179 -50.279  11.749  1.00  0.00     0.170 HD
BRANCH   9  12
HETATM   12  C   UNL     1     -42.392 -52.745  12.135  1.00  0.00     0.111 C 
BRANCH  12  13
HETATM   13  C   UNL     1     -43.172 -53.299  13.353  1.00  0.00    -0.043 C 
HETATM   14  C   UNL     1     -44.413 -54.103  12.918  1.00  0.00     0.015 C 
HETATM   15  C   UNL     1     -43.609 -52.153  14.279  1.00  0.00     0.015 C 
HETATM   16  C   UNL     1     -42.243 -54.246  14.136  1.00  0.00     0.015 C 
ENDBRANCH  12  13
ENDBRANCH   9  12
ENDBRANCH   1   8
BRANCH   4  17
HETATM   17  N   UNL     1     -39.820 -45.301  11.886  1.00  0.00    -0.376 N 
HETATM   18  C   UNL     1     -39.170 -44.633  13.034  1.00  0.00     0.149 C 
HETATM   19  C   UNL     1     -39.905 -43.327  13.387  1.00  0.00     0.187 C 
HETATM   20  O   UNL     1     -40.023 -42.460  12.250  1.00  0.00    -0.388 OA
HETATM   21  C   UNL     1     -40.752 -43.116  11.199  1.00  0.00     0.187 C 
HETATM   22  C   UNL     1     -40.042 -44.401  10.742  1.00  0.00     0.149 C 
ENDBRANCH   4  17
TORSDOF 4
ENDMDL
MODEL 9
REMARK VINA RESULT:      -4.8      3.280      8.048
REMARK  4 active torsions:
REMARK  status: ('A' for Active; 'I' for Inactive)
REMARK    1  A    between atoms: C_2  and  C_5 
REMARK    2  A    between atoms: C_5  and  C_6 
REMARK       I    between atoms: C_6  and  N_8 
REMARK    3  A    between atoms: N_8  and  C_9 
REMARK    4  A    between atoms: C_12  and  N_16 
ROOT
HETATM    1  C   UNL     1     -42.379 -46.581  11.667  1.00  0.00     0.107 C 
HETATM    2  C   UNL     1     -41.850 -47.020  12.869  1.00  0.00     0.051 C 
HETATM    3  C   UNL     1     -41.110 -48.200  12.886  1.00  0.00     0.034 C 
HETATM    4  C   UNL     1     -40.863 -48.923  11.716  1.00  0.00     0.046 C 
HETATM    5  C   UNL     1     -41.541 -48.427  10.592  1.00  0.00     0.119 C 
HETATM    6  N   UNL     1     -42.315 -47.305  10.541  1.00  0.00    -0.350 N 
ATOM      7  HN  UNL     1     -42.816 -47.033   9.696  1.00  0.00     0.166 HD
ENDROOT
BRANCH   1   8
HETATM    8  N   UNL     1     -42.998 -45.333  11.562  1.00  0.00    -0.313 N 
HETATM    9  C   UNL     1     -42.340 -44.262  10.988  1.00  0.00     0.223 C 
HETATM   10  O   UNL     1     -41.211 -44.305  10.512  1.00  0.00    -0.273 OA
HETATM   11  H   UNL     1     -44.001 -45.387  11.448  1.00  0.00     0.170 HD
BRANCH   9  12
HETATM   12  C   UNL     1     -43.125 -42.962  10.995  1.00  0.00     0.111 C 
BRANCH  12  13
HETATM   13  C   UNL     1     -42.768 -42.056  12.199  1.00  0.00    -0.043 C 
HETATM   14  C   UNL     1     -42.442 -42.881  13.458  1.00  0.00     0.015 C 
HETATM   15  C   UNL     1     -43.925 -41.093  12.509  1.00  0.00     0.015 C 
HETATM   16  C   UNL     1     -41.519 -41.232  11.834  1.00  0.00     0.015 C 
ENDBRANCH  12  13
ENDBRANCH   9  12
ENDBRANCH   1   8
BRANCH   4  17
HETATM   17  N   UNL     1     -40.030 -50.024  11.711  1.00  0.00    -0.376 N 
HETATM   18  C   UNL     1     -40.507 -51.363  12.120  1.00  0.00     0.149 C 
HETATM   19  C   UNL     1     -39.729 -51.861  13.351  1.00  0.00     0.187 C 
HETATM   20  O   UNL     1     -38.311 -51.835  13.129  1.00  0.00    -0.388 OA
HETATM   21  C   UNL     1     -37.880 -50.495  12.837  1.00  0.00     0.187 C 
HETATM   22  C   UNL     1     -38.565 -49.948  11.575  1.00  0.00     0.149 C 
ENDBRANCH   4  17
TORSDOF 4
ENDMDL
