MODEL 1
REMARK VINA RESULT:      -6.2      0.000      0.000
REMARK  6 active torsions:
REMARK  status: ('A' for Active; 'I' for Inactive)
REMARK    1  A    between atoms: C_8  and  C_9 
REMARK    2  A    between atoms: C_9  and  N_10 
REMARK    3  A    between atoms: N_10  and  C_11 
REMARK    4  A    between atoms: C_11  and  C_12 
REMARK    5  A    between atoms: C_12  and  O_13 
REMARK    6  A    between atoms: C_12  and  C_14 
ROOT
HETATM    1  N   UNL     1     -43.314 -53.023  12.008  1.00  0.00     0.086 N 
HETATM    2  H   UNL     1     -43.881 -52.813  11.185  1.00  0.00     0.316 HD
ENDROOT
BRANCH   1   3
HETATM    3  C   UNL     1     -44.166 -53.199  13.184  1.00  0.00     0.279 C 
BRANCH   3   4
HETATM    4  C   UNL     1     -44.630 -51.854  13.814  1.00  0.00     0.045 C 
HETATM    5  C   UNL     1     -44.080 -51.558  15.252  1.00  0.00    -0.009 C 
HETATM    6  C   UNL     1     -42.985 -52.511  15.765  1.00  0.00     0.011 C 
HETATM    7  C   UNL     1     -45.093 -51.311  16.386  1.00  0.00     0.009 C 
HETATM    8  C   UNL     1     -46.575 -51.232  16.060  1.00  0.00     0.028 C 
HETATM    9  C   UNL     1     -46.959 -51.349  14.632  1.00  0.00    -0.024 C 
HETATM   10  C   UNL     1     -46.125 -51.625  13.620  1.00  0.00    -0.081 C 
HETATM   11  C   UNL     1     -46.664 -51.704  12.218  1.00  0.00     0.043 C 
ENDBRANCH   3   4
ENDBRANCH   1   3
BRANCH   1  12
HETATM   12  C   UNL     1     -42.312 -51.974  12.226  1.00  0.00     0.306 C 
BRANCH  12  13
HETATM   13  C   UNL     1     -40.903 -52.573  12.454  1.00  0.00     0.179 C 
BRANCH  13  14
HETATM   14  O   UNL     1     -40.512 -53.417  11.365  1.00  0.00    -0.389 OA
HETATM   15  H   UNL     1     -39.776 -52.983  10.907  1.00  0.00     0.210 HD
ENDBRANCH  13  14
BRANCH  13  16
HETATM   16  C   UNL     1     -39.886 -51.468  12.639  1.00  0.00    -0.025 A 
HETATM   17  C   UNL     1     -39.965 -50.314  11.851  1.00  0.00     0.027 A 
HETATM   18  C   UNL     1     -38.988 -49.343  11.991  1.00  0.00     0.088 A 
HETATM   19  N   UNL     1     -37.950 -49.441  12.846  1.00  0.00    -0.375 N 
HETATM   20  C   UNL     1     -37.890 -50.556  13.602  1.00  0.00     0.088 A 
ATOM     21  HN  UNL     1     -37.244 -48.707  12.917  1.00  0.00     0.164 HD
HETATM   22  C   UNL     1     -38.818 -51.584  13.535  1.00  0.00     0.027 A 
ENDBRANCH  13  16
ENDBRANCH  12  13
ENDBRANCH   1  12
TORSDOF 6
ENDMDL
MODEL 2
REMARK VINA RESULT:      -6.1      2.666      3.077
REMARK  6 active torsions:
REMARK  status: ('A' for Active; 'I' for Inactive)
REMARK    1  A    between atoms: C_8  and  C_9 
REMARK    2  A    between atoms: C_9  and  N_10 
REMARK    3  A    between atoms: N_10  and  C_11 
REMARK    4  A    between atoms: C_11  and  C_12 
REMARK    5  A    between atoms: C_12  and  O_13 
REMARK    6  A    between atoms: C_12  and  C_14 
ROOT
HETATM    1  N   UNL     1     -42.796 -51.301  12.085  1.00  0.00     0.086 N 
HETATM    2  H   UNL     1     -43.208 -50.407  11.811  1.00  0.00     0.316 HD
ENDROOT
BRANCH   1   3
HETATM    3  C   UNL     1     -43.513 -51.864  13.229  1.00  0.00     0.279 C 
BRANCH   3   4
HETATM    4  C   UNL     1     -44.535 -50.876  13.862  1.00  0.00     0.045 C 
HETATM    5  C   UNL     1     -44.146 -50.316  15.273  1.00  0.00    -0.009 C 
HETATM    6  C   UNL     1     -42.717 -50.630  15.753  1.00  0.00     0.011 C 
HETATM    7  C   UNL     1     -45.122 -50.540  16.443  1.00  0.00     0.009 C 
HETATM    8  C   UNL     1     -46.477 -51.174  16.175  1.00  0.00     0.028 C 
HETATM    9  C   UNL     1     -46.803 -51.498  14.764  1.00  0.00    -0.024 C 
HETATM   10  C   UNL     1     -45.968 -51.380  13.724  1.00  0.00    -0.081 C 
HETATM   11  C   UNL     1     -46.448 -51.742  12.346  1.00  0.00     0.043 C 
ENDBRANCH   3   4
ENDBRANCH   1   3
BRANCH   1  12
HETATM   12  C   UNL     1     -41.367 -51.144  12.375  1.00  0.00     0.306 C 
BRANCH  12  13
HETATM   13  C   UNL     1     -40.782 -49.886  11.687  1.00  0.00     0.179 C 
BRANCH  13  14
HETATM   14  O   UNL     1     -40.502 -50.130  10.304  1.00  0.00    -0.389 OA
HETATM   15  H   UNL     1     -39.661 -50.610  10.255  1.00  0.00     0.210 HD
ENDBRANCH  13  14
BRANCH  13  16
HETATM   16  C   UNL     1     -41.738 -48.721  11.822  1.00  0.00    -0.025 A 
HETATM   17  C   UNL     1     -42.301 -48.151  10.674  1.00  0.00     0.027 A 
HETATM   18  C   UNL     1     -43.123 -47.045  10.814  1.00  0.00     0.088 A 
HETATM   19  N   UNL     1     -43.416 -46.474  12.000  1.00  0.00    -0.375 N 
HETATM   20  C   UNL     1     -42.870 -47.038  13.097  1.00  0.00     0.088 A 
ATOM     21  HN  UNL     1     -44.021 -45.654  12.064  1.00  0.00     0.164 HD
HETATM   22  C   UNL     1     -42.035 -48.145  13.061  1.00  0.00     0.027 A 
ENDBRANCH  13  16
ENDBRANCH  12  13
ENDBRANCH   1  12
TORSDOF 6
ENDMDL
MODEL 3
REMARK VINA RESULT:      -6.1      1.948      2.528
REMARK  6 active torsions:
REMARK  status: ('A' for Active; 'I' for Inactive)
REMARK    1  A    between atoms: C_8  and  C_9 
REMARK    2  A    between atoms: C_9  and  N_10 
REMARK    3  A    between atoms: N_10  and  C_11 
REMARK    4  A    between atoms: C_11  and  C_12 
REMARK    5  A    between atoms: C_12  and  O_13 
REMARK    6  A    between atoms: C_12  and  C_14 
ROOT
HETATM    1  N   UNL     1     -42.798 -51.128  12.163  1.00  0.00     0.086 N 
HETATM    2  H   UNL     1     -42.966 -50.121  12.179  1.00  0.00     0.316 HD
ENDROOT
BRANCH   1   3
HETATM    3  C   UNL     1     -43.610 -51.798  13.179  1.00  0.00     0.279 C 
BRANCH   3   4
HETATM    4  C   UNL     1     -44.647 -50.856  13.856  1.00  0.00     0.045 C 
HETATM    5  C   UNL     1     -44.258 -50.340  15.284  1.00  0.00    -0.009 C 
HETATM    6  C   UNL     1     -42.819 -50.641  15.741  1.00  0.00     0.011 C 
HETATM    7  C   UNL     1     -45.219 -50.629  16.453  1.00  0.00     0.009 C 
HETATM    8  C   UNL     1     -46.562 -51.282  16.172  1.00  0.00     0.028 C 
HETATM    9  C   UNL     1     -46.894 -51.560  14.753  1.00  0.00    -0.024 C 
HETATM   10  C   UNL     1     -46.070 -51.385  13.711  1.00  0.00    -0.081 C 
HETATM   11  C   UNL     1     -46.554 -51.707  12.324  1.00  0.00     0.043 C 
ENDBRANCH   3   4
ENDBRANCH   1   3
BRANCH   1  12
HETATM   12  C   UNL     1     -41.372 -51.418  12.342  1.00  0.00     0.306 C 
BRANCH  12  13
HETATM   13  C   UNL     1     -41.110 -52.940  12.453  1.00  0.00     0.179 C 
BRANCH  13  14
HETATM   14  O   UNL     1     -40.513 -53.455  11.258  1.00  0.00    -0.389 OA
HETATM   15  H   UNL     1     -39.638 -53.046  11.167  1.00  0.00     0.210 HD
ENDBRANCH  13  14
BRANCH  13  16
HETATM   16  C   UNL     1     -40.221 -53.235  13.641  1.00  0.00    -0.025 A 
HETATM   17  C   UNL     1     -39.842 -54.555  13.913  1.00  0.00     0.027 A 
HETATM   18  C   UNL     1     -39.082 -54.811  15.042  1.00  0.00     0.088 A 
HETATM   19  N   UNL     1     -38.681 -53.859  15.909  1.00  0.00    -0.375 N 
HETATM   20  C   UNL     1     -39.049 -52.591  15.630  1.00  0.00     0.088 A 
ATOM     21  HN  UNL     1     -38.126 -54.086  16.734  1.00  0.00     0.164 HD
HETATM   22  C   UNL     1     -39.810 -52.234  14.528  1.00  0.00     0.027 A 
ENDBRANCH  13  16
ENDBRANCH  12  13
ENDBRANCH   1  12
TORSDOF 6
ENDMDL
MODEL 4
REMARK VINA RESULT:      -6.0      3.148      4.570
REMARK  6 active torsions:
REMARK  status: ('A' for Active; 'I' for Inactive)
REMARK    1  A    between atoms: C_8  and  C_9 
REMARK    2  A    between atoms: C_9  and  N_10 
REMARK    3  A    between atoms: N_10  and  C_11 
REMARK    4  A    between atoms: C_11  and  C_12 
REMARK    5  A    between atoms: C_12  and  O_13 
REMARK    6  A    between atoms: C_12  and  C_14 
ROOT
HETATM    1  N   UNL     1     -42.549 -50.463  12.043  1.00  0.00     0.086 N 
HETATM    2  H   UNL     1     -43.231 -49.775  11.716  1.00  0.00     0.316 HD
ENDROOT
BRANCH   1   3
HETATM    3  C   UNL     1     -43.100 -51.240  13.152  1.00  0.00     0.279 C 
BRANCH   3   4
HETATM    4  C   UNL     1     -43.543 -52.674  12.739  1.00  0.00     0.045 C 
HETATM    5  C   UNL     1     -45.089 -52.928  12.740  1.00  0.00    -0.009 C 
HETATM    6  C   UNL     1     -45.977 -51.684  12.927  1.00  0.00     0.011 C 
HETATM    7  C   UNL     1     -45.643 -54.068  13.616  1.00  0.00     0.009 C 
HETATM    8  C   UNL     1     -44.676 -54.987  14.345  1.00  0.00     0.028 C 
HETATM    9  C   UNL     1     -43.228 -54.756  14.121  1.00  0.00    -0.024 C 
HETATM   10  C   UNL     1     -42.698 -53.745  13.421  1.00  0.00    -0.081 C 
HETATM   11  C   UNL     1     -41.204 -53.648  13.276  1.00  0.00     0.043 C 
ENDBRANCH   3   4
ENDBRANCH   1   3
BRANCH   1  12
HETATM   12  C   UNL     1     -41.294 -49.806  12.422  1.00  0.00     0.306 C 
BRANCH  12  13
HETATM   13  C   UNL     1     -40.676 -49.032  11.232  1.00  0.00     0.179 C 
BRANCH  13  14
HETATM   14  O   UNL     1     -40.535 -49.869  10.080  1.00  0.00    -0.389 OA
HETATM   15  H   UNL     1     -41.270 -49.669   9.480  1.00  0.00     0.210 HD
ENDBRANCH  13  14
BRANCH  13  16
HETATM   16  C   UNL     1     -41.524 -47.826  10.892  1.00  0.00    -0.025 A 
HETATM   17  C   UNL     1     -41.487 -46.696  11.718  1.00  0.00     0.027 A 
HETATM   18  C   UNL     1     -42.320 -45.629  11.426  1.00  0.00     0.088 A 
HETATM   19  N   UNL     1     -43.177 -45.610  10.385  1.00  0.00    -0.375 N 
HETATM   20  C   UNL     1     -43.197 -46.703   9.596  1.00  0.00     0.088 A 
ATOM     21  HN  UNL     1     -43.781 -44.807  10.205  1.00  0.00     0.164 HD
HETATM   22  C   UNL     1     -42.405 -47.821   9.805  1.00  0.00     0.027 A 
ENDBRANCH  13  16
ENDBRANCH  12  13
ENDBRANCH   1  12
TORSDOF 6
ENDMDL
MODEL 5
REMARK VINA RESULT:      -6.0      2.626      3.924
REMARK  6 active torsions:
REMARK  status: ('A' for Active; 'I' for Inactive)
REMARK    1  A    between atoms: C_8  and  C_9 
REMARK    2  A    between atoms: C_9  and  N_10 
REMARK    3  A    between atoms: N_10  and  C_11 
REMARK    4  A    between atoms: C_11  and  C_12 
REMARK    5  A    between atoms: C_12  and  O_13 
REMARK    6  A    between atoms: C_12  and  C_14 
ROOT
HETATM    1  N   UNL     1     -44.617 -52.800  16.861  1.00  0.00     0.086 N 
HETATM    2  H   UNL     1     -44.539 -52.726  17.877  1.00  0.00     0.316 HD
ENDROOT
BRANCH   1   3
HETATM    3  C   UNL     1     -45.563 -53.856  16.499  1.00  0.00     0.279 C 
BRANCH   3   4
HETATM    4  C   UNL     1     -46.438 -53.501  15.262  1.00  0.00     0.045 C 
HETATM    5  C   UNL     1     -45.949 -54.096  13.898  1.00  0.00    -0.009 C 
HETATM    6  C   UNL     1     -44.810 -55.128  13.981  1.00  0.00     0.011 C 
HETATM    7  C   UNL     1     -45.652 -53.124  12.740  1.00  0.00     0.009 C 
HETATM    8  C   UNL     1     -45.962 -51.645  12.908  1.00  0.00     0.028 C 
HETATM    9  C   UNL     1     -46.592 -51.229  14.185  1.00  0.00    -0.024 C 
HETATM   10  C   UNL     1     -46.813 -52.022  15.241  1.00  0.00    -0.081 C 
HETATM   11  C   UNL     1     -47.471 -51.454  16.468  1.00  0.00     0.043 C 
ENDBRANCH   3   4
ENDBRANCH   1   3
BRANCH   1  12
HETATM   12  C   UNL     1     -43.302 -53.030  16.256  1.00  0.00     0.306 C 
BRANCH  12  13
HETATM   13  C   UNL     1     -42.897 -51.869  15.316  1.00  0.00     0.179 C 
BRANCH  13  14
HETATM   14  O   UNL     1     -42.029 -50.941  15.976  1.00  0.00    -0.389 OA
HETATM   15  H   UNL     1     -41.350 -50.670  15.339  1.00  0.00     0.210 HD
ENDBRANCH  13  14
BRANCH  13  16
HETATM   16  C   UNL     1     -42.224 -52.409  14.073  1.00  0.00    -0.025 A 
HETATM   17  C   UNL     1     -41.569 -53.645  14.121  1.00  0.00     0.027 A 
HETATM   18  C   UNL     1     -40.904 -54.091  12.991  1.00  0.00     0.088 A 
HETATM   19  N   UNL     1     -40.844 -53.401  11.834  1.00  0.00    -0.375 N 
HETATM   20  C   UNL     1     -41.486 -52.215  11.802  1.00  0.00     0.088 A 
ATOM     21  HN  UNL     1     -40.339 -53.759  11.023  1.00  0.00     0.164 HD
HETATM   22  C   UNL     1     -42.176 -51.682  12.879  1.00  0.00     0.027 A 
ENDBRANCH  13  16
ENDBRANCH  12  13
ENDBRANCH   1  12
TORSDOF 6
ENDMDL
MODEL 6
REMARK VINA RESULT:      -5.8      2.329      3.877
REMARK  6 active torsions:
REMARK  status: ('A' for Active; 'I' for Inactive)
REMARK    1  A    between atoms: C_8  and  C_9 
REMARK    2  A    between atoms: C_9  and  N_10 
REMARK    3  A    between atoms: N_10  and  C_11 
REMARK    4  A    between atoms: C_11  and  C_12 
REMARK    5  A    between atoms: C_12  and  O_13 
REMARK    6  A    between atoms: C_12  and  C_14 
ROOT
HETATM    1  N   UNL     1     -43.392 -51.680  12.335  1.00  0.00     0.086 N 
HETATM    2  H   UNL     1     -43.570 -51.257  11.422  1.00  0.00     0.316 HD
ENDROOT
BRANCH   1   3
HETATM    3  C   UNL     1     -43.968 -50.858  13.399  1.00  0.00     0.279 C 
BRANCH   3   4
HETATM    4  C   UNL     1     -44.657 -51.692  14.517  1.00  0.00     0.045 C 
HETATM    5  C   UNL     1     -46.190 -51.949  14.317  1.00  0.00    -0.009 C 
HETATM    6  C   UNL     1     -46.770 -51.544  12.950  1.00  0.00     0.011 C 
HETATM    7  C   UNL     1     -47.159 -51.486  15.423  1.00  0.00     0.009 C 
HETATM    8  C   UNL     1     -46.600 -50.920  16.717  1.00  0.00     0.028 C 
HETATM    9  C   UNL     1     -45.123 -50.894  16.860  1.00  0.00    -0.024 C 
HETATM   10  C   UNL     1     -44.241 -51.226  15.908  1.00  0.00    -0.081 C 
HETATM   11  C   UNL     1     -42.769 -51.156  16.207  1.00  0.00     0.043 C 
ENDBRANCH   3   4
ENDBRANCH   1   3
BRANCH   1  12
HETATM   12  C   UNL     1     -41.954 -51.885  12.538  1.00  0.00     0.306 C 
BRANCH  12  13
HETATM   13  C   UNL     1     -41.566 -53.377  12.392  1.00  0.00     0.179 C 
BRANCH  13  14
HETATM   14  O   UNL     1     -40.329 -53.528  11.687  1.00  0.00    -0.389 OA
HETATM   15  H   UNL     1     -39.728 -52.832  11.996  1.00  0.00     0.210 HD
ENDBRANCH  13  14
BRANCH  13  16
HETATM   16  C   UNL     1     -41.467 -54.029  13.753  1.00  0.00    -0.025 A 
HETATM   17  C   UNL     1     -42.608 -54.594  14.336  1.00  0.00     0.027 A 
HETATM   18  C   UNL     1     -42.510 -55.129  15.609  1.00  0.00     0.088 A 
HETATM   19  N   UNL     1     -41.373 -55.138  16.334  1.00  0.00    -0.375 N 
HETATM   20  C   UNL     1     -40.282 -54.595  15.757  1.00  0.00     0.088 A 
ATOM     21  HN  UNL     1     -41.341 -55.535  17.273  1.00  0.00     0.164 HD
HETATM   22  C   UNL     1     -40.278 -54.034  14.489  1.00  0.00     0.027 A 
ENDBRANCH  13  16
ENDBRANCH  12  13
ENDBRANCH   1  12
TORSDOF 6
ENDMDL
MODEL 7
REMARK VINA RESULT:      -5.6      2.531      6.369
REMARK  6 active torsions:
REMARK  status: ('A' for Active; 'I' for Inactive)
REMARK    1  A    between atoms: C_8  and  C_9 
REMARK    2  A    between atoms: C_9  and  N_10 
REMARK    3  A    between atoms: N_10  and  C_11 
REMARK    4  A    between atoms: C_11  and  C_12 
REMARK    5  A    between atoms: C_12  and  O_13 
REMARK    6  A    between atoms: C_12  and  C_14 
ROOT
HETATM    1  N   UNL     1     -41.054 -50.123  12.337  1.00  0.00     0.086 N 
HETATM    2  H   UNL     1     -41.948 -49.961  11.868  1.00  0.00     0.316 HD
ENDROOT
BRANCH   1   3
HETATM    3  C   UNL     1     -39.949 -49.992  11.387  1.00  0.00     0.279 C 
BRANCH   3   4
HETATM    4  C   UNL     1     -38.962 -48.844  11.746  1.00  0.00     0.045 C 
HETATM    5  C   UNL     1     -37.777 -49.246  12.689  1.00  0.00    -0.009 C 
HETATM    6  C   UNL     1     -37.609 -50.752  12.958  1.00  0.00     0.011 C 
HETATM    7  C   UNL     1     -37.609 -48.484  14.018  1.00  0.00     0.009 C 
HETATM    8  C   UNL     1     -38.505 -47.293  14.315  1.00  0.00     0.028 C 
HETATM    9  C   UNL     1     -39.473 -46.897  13.262  1.00  0.00    -0.024 C 
HETATM   10  C   UNL     1     -39.698 -47.562  12.121  1.00  0.00    -0.081 C 
HETATM   11  C   UNL     1     -40.709 -47.030  11.143  1.00  0.00     0.043 C 
ENDBRANCH   3   4
ENDBRANCH   1   3
BRANCH   1  12
HETATM   12  C   UNL     1     -41.044 -51.435  12.991  1.00  0.00     0.306 C 
BRANCH  12  13
HETATM   13  C   UNL     1     -41.640 -52.532  12.075  1.00  0.00     0.179 C 
BRANCH  13  14
HETATM   14  O   UNL     1     -40.612 -53.337  11.488  1.00  0.00    -0.389 OA
HETATM   15  H   UNL     1     -39.990 -52.742  11.043  1.00  0.00     0.210 HD
ENDBRANCH  13  14
BRANCH  13  16
HETATM   16  C   UNL     1     -42.597 -53.406  12.856  1.00  0.00    -0.025 A 
HETATM   17  C   UNL     1     -43.949 -53.447  12.497  1.00  0.00     0.027 A 
HETATM   18  C   UNL     1     -44.820 -54.202  13.264  1.00  0.00     0.088 A 
HETATM   19  N   UNL     1     -44.444 -54.907  14.350  1.00  0.00    -0.375 N 
HETATM   20  C   UNL     1     -43.137 -54.862  14.680  1.00  0.00     0.088 A 
ATOM     21  HN  UNL     1     -45.116 -55.448  14.896  1.00  0.00     0.164 HD
HETATM   22  C   UNL     1     -42.188 -54.135  13.977  1.00  0.00     0.027 A 
ENDBRANCH  13  16
ENDBRANCH  12  13
ENDBRANCH   1  12
TORSDOF 6
ENDMDL
MODEL 8
REMARK VINA RESULT:      -5.6      3.037      6.189
REMARK  6 active torsions:
REMARK  status: ('A' for Active; 'I' for Inactive)
REMARK    1  A    between atoms: C_8  and  C_9 
REMARK    2  A    between atoms: C_9  and  N_10 
REMARK    3  A    between atoms: N_10  and  C_11 
REMARK    4  A    between atoms: C_11  and  C_12 
REMARK    5  A    between atoms: C_12  and  O_13 
REMARK    6  A    between atoms: C_12  and  C_14 
ROOT
HETATM    1  N   UNL     1     -42.380 -50.232  11.789  1.00  0.00     0.086 N 
HETATM    2  H   UNL     1     -42.357 -50.276  10.768  1.00  0.00     0.316 HD
ENDROOT
BRANCH   1   3
HETATM    3  C   UNL     1     -42.103 -48.871  12.247  1.00  0.00     0.279 C 
BRANCH   3   4
HETATM    4  C   UNL     1     -41.595 -47.932  11.114  1.00  0.00     0.045 C 
HETATM    5  C   UNL     1     -40.151 -47.357  11.313  1.00  0.00    -0.009 C 
HETATM    6  C   UNL     1     -39.338 -47.960  12.473  1.00  0.00     0.011 C 
HETATM    7  C   UNL     1     -39.969 -45.827  11.323  1.00  0.00     0.009 C 
HETATM    8  C   UNL     1     -41.156 -44.931  11.014  1.00  0.00     0.028 C 
HETATM    9  C   UNL     1     -42.433 -45.599  10.664  1.00  0.00    -0.024 C 
HETATM   10  C   UNL     1     -42.658 -46.920  10.701  1.00  0.00    -0.081 C 
HETATM   11  C   UNL     1     -44.009 -47.451  10.308  1.00  0.00     0.043 C 
ENDBRANCH   3   4
ENDBRANCH   1   3
BRANCH   1  12
HETATM   12  C   UNL     1     -41.438 -51.194  12.370  1.00  0.00     0.306 C 
BRANCH  12  13
HETATM   13  C   UNL     1     -41.685 -52.626  11.836  1.00  0.00     0.179 C 
BRANCH  13  14
HETATM   14  O   UNL     1     -40.457 -53.342  11.675  1.00  0.00    -0.389 OA
HETATM   15  H   UNL     1     -40.313 -53.470  10.724  1.00  0.00     0.210 HD
ENDBRANCH  13  14
BRANCH  13  16
HETATM   16  C   UNL     1     -42.604 -53.383  12.769  1.00  0.00    -0.025 A 
HETATM   17  C   UNL     1     -42.070 -54.054  13.875  1.00  0.00     0.027 A 
HETATM   18  C   UNL     1     -42.919 -54.795  14.680  1.00  0.00     0.088 A 
HETATM   19  N   UNL     1     -44.244 -54.914  14.462  1.00  0.00    -0.375 N 
HETATM   20  C   UNL     1     -44.746 -54.257  13.396  1.00  0.00     0.088 A 
ATOM     21  HN  UNL     1     -44.838 -55.475  15.074  1.00  0.00     0.164 HD
HETATM   22  C   UNL     1     -43.978 -53.492  12.531  1.00  0.00     0.027 A 
ENDBRANCH  13  16
ENDBRANCH  12  13
ENDBRANCH   1  12
TORSDOF 6
ENDMDL
MODEL 9
REMARK VINA RESULT:      -5.6      0.962      2.209
REMARK  6 active torsions:
REMARK  status: ('A' for Active; 'I' for Inactive)
REMARK    1  A    between atoms: C_8  and  C_9 
REMARK    2  A    between atoms: C_9  and  N_10 
REMARK    3  A    between atoms: N_10  and  C_11 
REMARK    4  A    between atoms: C_11  and  C_12 
REMARK    5  A    between atoms: C_12  and  O_13 
REMARK    6  A    between atoms: C_12  and  C_14 
ROOT
HETATM    1  N   UNL     1     -43.258 -52.114  12.643  1.00  0.00     0.086 N 
HETATM    2  H   UNL     1     -43.094 -52.030  13.648  1.00  0.00     0.316 HD
ENDROOT
BRANCH   1   3
HETATM    3  C   UNL     1     -44.218 -53.183  12.371  1.00  0.00     0.279 C 
BRANCH   3   4
HETATM    4  C   UNL     1     -45.284 -53.352  13.492  1.00  0.00     0.045 C 
HETATM    5  C   UNL     1     -46.538 -52.420  13.376  1.00  0.00    -0.009 C 
HETATM    6  C   UNL     1     -46.667 -51.623  12.065  1.00  0.00     0.011 C 
HETATM    7  C   UNL     1     -46.867 -51.487  14.557  1.00  0.00     0.009 C 
HETATM    8  C   UNL     1     -46.056 -51.588  15.838  1.00  0.00     0.028 C 
HETATM    9  C   UNL     1     -45.008 -52.637  15.892  1.00  0.00    -0.024 C 
HETATM   10  C   UNL     1     -44.644 -53.428  14.874  1.00  0.00    -0.081 C 
HETATM   11  C   UNL     1     -43.565 -54.454  15.085  1.00  0.00     0.043 C 
ENDBRANCH   3   4
ENDBRANCH   1   3
BRANCH   1  12
HETATM   12  C   UNL     1     -41.996 -52.335  11.930  1.00  0.00     0.306 C 
BRANCH  12  13
HETATM   13  C   UNL     1     -40.829 -52.606  12.910  1.00  0.00     0.179 C 
BRANCH  13  14
HETATM   14  O   UNL     1     -40.243 -53.893  12.681  1.00  0.00    -0.389 OA
HETATM   15  H   UNL     1     -40.144 -54.328  13.542  1.00  0.00     0.210 HD
ENDBRANCH  13  14
BRANCH  13  16
HETATM   16  C   UNL     1     -39.773 -51.530  12.780  1.00  0.00    -0.025 A 
HETATM   17  C   UNL     1     -39.910 -50.539  11.801  1.00  0.00     0.027 A 
HETATM   18  C   UNL     1     -38.901 -49.601  11.657  1.00  0.00     0.088 A 
HETATM   19  N   UNL     1     -37.780 -49.583  12.406  1.00  0.00    -0.375 N 
HETATM   20  C   UNL     1     -37.666 -50.541  13.349  1.00  0.00     0.088 A 
ATOM     21  HN  UNL     1     -37.055 -48.880  12.267  1.00  0.00     0.164 HD
HETATM   22  C   UNL     1     -38.619 -51.524  13.570  1.00  0.00     0.027 A 
ENDBRANCH  13  16
ENDBRANCH  12  13
ENDBRANCH   1  12
TORSDOF 6
ENDMDL
