MODEL 1
REMARK VINA RESULT:      -6.5      0.000      0.000
REMARK  5 active torsions:
REMARK  status: ('A' for Active; 'I' for Inactive)
REMARK    1  A    between atoms: N_4  and  C_9 
REMARK    2  A    between atoms: C_12  and  N_13 
REMARK       I    between atoms: N_13  and  C_14 
REMARK       I    between atoms: C_14  and  N_16 
REMARK    3  A    between atoms: N_16  and  C_17 
REMARK    4  A    between atoms: C_17  and  C_18 
REMARK    5  A    between atoms: C_17  and  C_21 
ROOT
HETATM    1  C   UNL     1     -40.210 -53.349  13.980  1.00  0.00     0.103 A 
HETATM    2  C   UNL     1     -39.339 -52.264  13.968  1.00  0.00     0.051 A 
HETATM    3  C   UNL     1     -39.427 -51.288  12.977  1.00  0.00     0.035 A 
HETATM    4  C   UNL     1     -40.386 -51.380  11.981  1.00  0.00     0.051 A 
HETATM    5  C   UNL     1     -41.158 -52.533  11.996  1.00  0.00     0.119 A 
HETATM    6  N   UNL     1     -41.093 -53.495  12.962  1.00  0.00    -0.350 N 
ATOM      7  HN  UNL     1     -41.702 -54.313  12.919  1.00  0.00     0.166 HD
ENDROOT
BRANCH   4   8
HETATM    8  N   UNL     1     -40.574 -50.370  11.006  1.00  0.00    -0.308 N 
HETATM    9  C   UNL     1     -41.478 -49.339  11.156  1.00  0.00     0.321 C 
HETATM   10  O   UNL     1     -42.256 -49.219  12.102  1.00  0.00    -0.247 OA
HETATM   11  N   UNL     1     -41.431 -48.409  10.150  1.00  0.00    -0.338 N 
HETATM   12  H   UNL     1     -40.879 -48.558   9.325  1.00  0.00     0.164 HD
HETATM   13  H   UNL     1     -40.224 -50.544  10.077  1.00  0.00     0.170 HD
BRANCH  11  14
HETATM   14  C   UNL     1     -42.270 -47.226  10.231  1.00  0.00     0.094 C 
BRANCH  14  15
HETATM   15  C   UNL     1     -41.414 -45.985  10.228  1.00  0.00     0.009 A 
HETATM   16  C   UNL     1     -40.150 -45.875  11.051  1.00  0.00     0.007 A 
HETATM   17  C   UNL     1     -41.388 -45.148  11.491  1.00  0.00     0.007 A 
ENDBRANCH  14  15
BRANCH  14  18
HETATM   18  C   UNL     1     -43.361 -47.281   9.190  1.00  0.00     0.009 A 
HETATM   19  C   UNL     1     -44.302 -46.140   8.888  1.00  0.00     0.007 A 
HETATM   20  C   UNL     1     -44.830 -47.388   9.541  1.00  0.00     0.007 A 
ENDBRANCH  14  18
ENDBRANCH  11  14
ENDBRANCH   4   8
BRANCH   1  21
HETATM   21  N   UNL     1     -40.151 -54.302  14.968  1.00  0.00    -0.362 N 
HETATM   22  C   UNL     1     -38.933 -55.094  15.174  1.00  0.00     0.156 C 
HETATM   23  C   UNL     1     -38.716 -55.290  16.696  1.00  0.00     0.136 C 
HETATM   24  C   UNL     1     -38.223 -54.006  17.365  1.00  0.00     0.041 C 
HETATM   25  O   UNL     1     -39.889 -55.809  17.364  1.00  0.00    -0.378 OA
HETATM   26  C   UNL     1     -41.074 -55.031  17.101  1.00  0.00     0.136 C 
HETATM   27  C   UNL     1     -41.331 -54.917  15.586  1.00  0.00     0.156 C 
HETATM   28  C   UNL     1     -42.250 -55.699  17.801  1.00  0.00     0.041 C 
ENDBRANCH   1  21
TORSDOF 5
ENDMDL
MODEL 2
REMARK VINA RESULT:      -5.9      3.396      9.217
REMARK  5 active torsions:
REMARK  status: ('A' for Active; 'I' for Inactive)
REMARK    1  A    between atoms: N_4  and  C_9 
REMARK    2  A    between atoms: C_12  and  N_13 
REMARK       I    between atoms: N_13  and  C_14 
REMARK       I    between atoms: C_14  and  N_16 
REMARK    3  A    between atoms: N_16  and  C_17 
REMARK    4  A    between atoms: C_17  and  C_18 
REMARK    5  A    between atoms: C_17  and  C_21 
ROOT
HETATM    1  C   UNL     1     -41.255 -45.943  12.153  1.00  0.00     0.103 A 
HETATM    2  C   UNL     1     -42.451 -46.288  11.530  1.00  0.00     0.051 A 
HETATM    3  C   UNL     1     -42.805 -47.624  11.356  1.00  0.00     0.035 A 
HETATM    4  C   UNL     1     -41.971 -48.639  11.799  1.00  0.00     0.051 A 
HETATM    5  C   UNL     1     -40.754 -48.228  12.323  1.00  0.00     0.119 A 
HETATM    6  N   UNL     1     -40.392 -46.925  12.511  1.00  0.00    -0.350 N 
ATOM      7  HN  UNL     1     -39.485 -46.694  12.916  1.00  0.00     0.166 HD
ENDROOT
BRANCH   4   8
HETATM    8  N   UNL     1     -42.327 -50.007  11.726  1.00  0.00    -0.308 N 
HETATM    9  C   UNL     1     -42.950 -50.679  12.759  1.00  0.00     0.321 C 
HETATM   10  O   UNL     1     -43.199 -50.194  13.862  1.00  0.00    -0.247 OA
HETATM   11  N   UNL     1     -43.304 -51.966  12.450  1.00  0.00    -0.338 N 
HETATM   12  H   UNL     1     -43.007 -52.400  11.594  1.00  0.00     0.164 HD
HETATM   13  H   UNL     1     -41.897 -50.567  11.008  1.00  0.00     0.170 HD
BRANCH  11  14
HETATM   14  C   UNL     1     -44.046 -52.755  13.418  1.00  0.00     0.094 C 
BRANCH  14  15
HETATM   15  C   UNL     1     -45.496 -52.839  13.014  1.00  0.00     0.009 A 
HETATM   16  C   UNL     1     -46.326 -51.609  12.727  1.00  0.00     0.007 A 
HETATM   17  C   UNL     1     -46.530 -52.359  14.011  1.00  0.00     0.007 A 
ENDBRANCH  14  15
BRANCH  14  18
HETATM   18  C   UNL     1     -43.349 -54.070  13.668  1.00  0.00     0.009 A 
HETATM   19  C   UNL     1     -43.811 -55.094  14.678  1.00  0.00     0.007 A 
HETATM   20  C   UNL     1     -42.529 -54.344  14.911  1.00  0.00     0.007 A 
ENDBRANCH  14  18
ENDBRANCH  11  14
ENDBRANCH   4   8
BRANCH   1  21
HETATM   21  N   UNL     1     -40.908 -44.629  12.356  1.00  0.00    -0.362 N 
HETATM   22  C   UNL     1     -40.485 -43.783  11.235  1.00  0.00     0.156 C 
HETATM   23  C   UNL     1     -41.072 -42.362  11.430  1.00  0.00     0.136 C 
HETATM   24  C   UNL     1     -42.573 -42.327  11.139  1.00  0.00     0.041 C 
HETATM   25  O   UNL     1     -40.781 -41.815  12.737  1.00  0.00    -0.378 OA
HETATM   26  C   UNL     1     -41.170 -42.694  13.812  1.00  0.00     0.136 C 
HETATM   27  C   UNL     1     -40.511 -44.078  13.656  1.00  0.00     0.156 C 
HETATM   28  C   UNL     1     -40.767 -42.046  15.130  1.00  0.00     0.041 C 
ENDBRANCH   1  21
TORSDOF 5
ENDMDL
MODEL 3
REMARK VINA RESULT:      -5.5      3.795      9.870
REMARK  5 active torsions:
REMARK  status: ('A' for Active; 'I' for Inactive)
REMARK    1  A    between atoms: N_4  and  C_9 
REMARK    2  A    between atoms: C_12  and  N_13 
REMARK       I    between atoms: N_13  and  C_14 
REMARK       I    between atoms: C_14  and  N_16 
REMARK    3  A    between atoms: N_16  and  C_17 
REMARK    4  A    between atoms: C_17  and  C_18 
REMARK    5  A    between atoms: C_17  and  C_21 
ROOT
HETATM    1  C   UNL     1     -42.268 -44.915  11.769  1.00  0.00     0.103 A 
HETATM    2  C   UNL     1     -41.819 -45.689  12.835  1.00  0.00     0.051 A 
HETATM    3  C   UNL     1     -42.078 -47.057  12.883  1.00  0.00     0.035 A 
HETATM    4  C   UNL     1     -42.792 -47.676  11.868  1.00  0.00     0.051 A 
HETATM    5  C   UNL     1     -43.292 -46.833  10.887  1.00  0.00     0.119 A 
HETATM    6  N   UNL     1     -43.041 -45.492  10.817  1.00  0.00    -0.350 N 
ATOM      7  HN  UNL     1     -43.430 -44.933  10.058  1.00  0.00     0.166 HD
ENDROOT
BRANCH   4   8
HETATM    8  N   UNL     1     -43.004 -49.076  11.826  1.00  0.00    -0.308 N 
HETATM    9  C   UNL     1     -43.366 -49.814  12.934  1.00  0.00     0.321 C 
HETATM   10  O   UNL     1     -43.478 -49.363  14.073  1.00  0.00    -0.247 OA
HETATM   11  N   UNL     1     -43.625 -51.133  12.661  1.00  0.00    -0.338 N 
HETATM   12  H   UNL     1     -43.431 -51.528  11.759  1.00  0.00     0.164 HD
HETATM   13  H   UNL     1     -42.641 -49.582  11.035  1.00  0.00     0.170 HD
BRANCH  11  14
HETATM   14  C   UNL     1     -44.103 -52.001  13.723  1.00  0.00     0.094 C 
BRANCH  14  15
HETATM   15  C   UNL     1     -45.542 -52.376  13.476  1.00  0.00     0.009 A 
HETATM   16  C   UNL     1     -46.481 -51.494  12.685  1.00  0.00     0.007 A 
HETATM   17  C   UNL     1     -46.609 -51.563  14.179  1.00  0.00     0.007 A 
ENDBRANCH  14  15
BRANCH  14  18
HETATM   18  C   UNL     1     -43.145 -53.148  13.934  1.00  0.00     0.009 A 
HETATM   19  C   UNL     1     -43.567 -54.539  14.345  1.00  0.00     0.007 A 
HETATM   20  C   UNL     1     -42.789 -53.683  15.306  1.00  0.00     0.007 A 
ENDBRANCH  14  18
ENDBRANCH  11  14
ENDBRANCH   4   8
BRANCH   1  21
HETATM   21  N   UNL     1     -41.994 -43.571  11.697  1.00  0.00    -0.362 N 
HETATM   22  C   UNL     1     -42.878 -42.664  10.956  1.00  0.00     0.156 C 
HETATM   23  C   UNL     1     -42.995 -41.331  11.738  1.00  0.00     0.136 C 
HETATM   24  C   UNL     1     -43.874 -41.481  12.980  1.00  0.00     0.041 C 
HETATM   25  O   UNL     1     -41.706 -40.769  12.076  1.00  0.00    -0.378 OA
HETATM   26  C   UNL     1     -40.849 -41.703  12.762  1.00  0.00     0.136 C 
HETATM   27  C   UNL     1     -40.668 -42.991  11.935  1.00  0.00     0.156 C 
HETATM   28  C   UNL     1     -39.508 -41.027  13.014  1.00  0.00     0.041 C 
ENDBRANCH   1  21
TORSDOF 5
ENDMDL
MODEL 4
REMARK VINA RESULT:      -5.5      2.822      9.242
REMARK  5 active torsions:
REMARK  status: ('A' for Active; 'I' for Inactive)
REMARK    1  A    between atoms: N_4  and  C_9 
REMARK    2  A    between atoms: C_12  and  N_13 
REMARK       I    between atoms: N_13  and  C_14 
REMARK       I    between atoms: C_14  and  N_16 
REMARK    3  A    between atoms: N_16  and  C_17 
REMARK    4  A    between atoms: C_17  and  C_18 
REMARK    5  A    between atoms: C_17  and  C_21 
ROOT
HETATM    1  C   UNL     1     -41.595 -47.168  12.254  1.00  0.00     0.103 A 
HETATM    2  C   UNL     1     -40.567 -48.106  12.252  1.00  0.00     0.051 A 
HETATM    3  C   UNL     1     -40.844 -49.468  12.353  1.00  0.00     0.035 A 
HETATM    4  C   UNL     1     -42.151 -49.916  12.459  1.00  0.00     0.051 A 
HETATM    5  C   UNL     1     -43.119 -48.926  12.551  1.00  0.00     0.119 A 
HETATM    6  N   UNL     1     -42.870 -47.588  12.445  1.00  0.00    -0.350 N 
ATOM      7  HN  UNL     1     -43.632 -46.914  12.508  1.00  0.00     0.166 HD
ENDROOT
BRANCH   4   8
HETATM    8  N   UNL     1     -42.489 -51.292  12.475  1.00  0.00    -0.308 N 
HETATM    9  C   UNL     1     -42.703 -52.000  13.640  1.00  0.00     0.321 C 
HETATM   10  O   UNL     1     -42.562 -51.546  14.774  1.00  0.00    -0.247 OA
HETATM   11  N   UNL     1     -43.123 -53.289  13.435  1.00  0.00    -0.338 N 
HETATM   12  H   UNL     1     -43.134 -53.697  12.518  1.00  0.00     0.164 HD
HETATM   13  H   UNL     1     -42.325 -51.825  11.636  1.00  0.00     0.170 HD
BRANCH  11  14
HETATM   14  C   UNL     1     -43.469 -54.117  14.578  1.00  0.00     0.094 C 
BRANCH  14  15
HETATM   15  C   UNL     1     -44.790 -54.802  14.337  1.00  0.00     0.009 A 
HETATM   16  C   UNL     1     -45.953 -54.102  13.671  1.00  0.00     0.007 A 
HETATM   17  C   UNL     1     -45.979 -54.339  15.153  1.00  0.00     0.007 A 
ENDBRANCH  14  15
BRANCH  14  18
HETATM   18  C   UNL     1     -42.313 -55.015  14.947  1.00  0.00     0.009 A 
HETATM   19  C   UNL     1     -42.286 -55.900  16.169  1.00  0.00     0.007 A 
HETATM   20  C   UNL     1     -41.368 -54.712  16.089  1.00  0.00     0.007 A 
ENDBRANCH  14  18
ENDBRANCH  11  14
ENDBRANCH   4   8
BRANCH   1  21
HETATM   21  N   UNL     1     -41.336 -45.824  12.125  1.00  0.00    -0.362 N 
HETATM   22  C   UNL     1     -39.985 -45.297  12.345  1.00  0.00     0.156 C 
HETATM   23  C   UNL     1     -39.709 -44.182  11.305  1.00  0.00     0.136 C 
HETATM   24  C   UNL     1     -39.463 -44.759   9.910  1.00  0.00     0.041 C 
HETATM   25  O   UNL     1     -40.748 -43.176  11.278  1.00  0.00    -0.378 OA
HETATM   26  C   UNL     1     -42.066 -43.736  11.106  1.00  0.00     0.136 C 
HETATM   27  C   UNL     1     -42.364 -44.781  12.198  1.00  0.00     0.156 C 
HETATM   28  C   UNL     1     -43.078 -42.600  11.151  1.00  0.00     0.041 C 
ENDBRANCH   1  21
TORSDOF 5
ENDMDL
MODEL 5
REMARK VINA RESULT:      -5.4      0.842      2.600
REMARK  5 active torsions:
REMARK  status: ('A' for Active; 'I' for Inactive)
REMARK    1  A    between atoms: N_4  and  C_9 
REMARK    2  A    between atoms: C_12  and  N_13 
REMARK       I    between atoms: N_13  and  C_14 
REMARK       I    between atoms: C_14  and  N_16 
REMARK    3  A    between atoms: N_16  and  C_17 
REMARK    4  A    between atoms: C_17  and  C_18 
REMARK    5  A    between atoms: C_17  and  C_21 
ROOT
HETATM    1  C   UNL     1     -40.398 -52.743  14.336  1.00  0.00     0.103 A 
HETATM    2  C   UNL     1     -39.339 -51.978  13.856  1.00  0.00     0.051 A 
HETATM    3  C   UNL     1     -39.491 -51.179  12.725  1.00  0.00     0.035 A 
HETATM    4  C   UNL     1     -40.704 -51.129  12.054  1.00  0.00     0.051 A 
HETATM    5  C   UNL     1     -41.686 -51.986  12.528  1.00  0.00     0.119 A 
HETATM    6  N   UNL     1     -41.561 -52.770  13.639  1.00  0.00    -0.350 N 
ATOM      7  HN  UNL     1     -42.330 -53.367  13.940  1.00  0.00     0.166 HD
ENDROOT
BRANCH   4   8
HETATM    8  N   UNL     1     -40.934 -50.265  10.956  1.00  0.00    -0.308 N 
HETATM    9  C   UNL     1     -41.514 -49.020  11.088  1.00  0.00     0.321 C 
HETATM   10  O   UNL     1     -41.949 -48.556  12.140  1.00  0.00    -0.247 OA
HETATM   11  N   UNL     1     -41.551 -48.299   9.922  1.00  0.00    -0.338 N 
HETATM   12  H   UNL     1     -41.299 -48.714   9.042  1.00  0.00     0.164 HD
HETATM   13  H   UNL     1     -40.906 -50.664  10.031  1.00  0.00     0.170 HD
BRANCH  11  14
HETATM   14  C   UNL     1     -42.056 -46.937   9.940  1.00  0.00     0.094 C 
BRANCH  14  15
HETATM   15  C   UNL     1     -43.563 -46.945   9.943  1.00  0.00     0.009 A 
HETATM   16  C   UNL     1     -44.369 -47.572   8.828  1.00  0.00     0.007 A 
HETATM   17  C   UNL     1     -44.271 -46.077   8.922  1.00  0.00     0.007 A 
ENDBRANCH  14  15
BRANCH  14  18
HETATM   18  C   UNL     1     -41.393 -46.146  11.040  1.00  0.00     0.009 A 
HETATM   19  C   UNL     1     -41.949 -44.865  11.614  1.00  0.00     0.007 A 
HETATM   20  C   UNL     1     -40.687 -44.829  10.798  1.00  0.00     0.007 A 
ENDBRANCH  14  18
ENDBRANCH  11  14
ENDBRANCH   4   8
BRANCH   1  21
HETATM   21  N   UNL     1     -40.268 -53.513  15.467  1.00  0.00    -0.362 N 
HETATM   22  C   UNL     1     -41.273 -53.452  16.534  1.00  0.00     0.156 C 
HETATM   23  C   UNL     1     -41.494 -54.881  17.094  1.00  0.00     0.136 C 
HETATM   24  C   UNL     1     -42.298 -55.748  16.124  1.00  0.00     0.041 C 
HETATM   25  O   UNL     1     -40.257 -55.529  17.471  1.00  0.00    -0.378 OA
HETATM   26  C   UNL     1     -39.278 -55.528  16.412  1.00  0.00     0.136 C 
HETATM   27  C   UNL     1     -39.001 -54.093  15.922  1.00  0.00     0.156 C 
HETATM   28  C   UNL     1     -38.006 -56.178  16.936  1.00  0.00     0.041 C 
ENDBRANCH   1  21
TORSDOF 5
ENDMDL
MODEL 6
REMARK VINA RESULT:      -5.4      1.641      9.360
REMARK  5 active torsions:
REMARK  status: ('A' for Active; 'I' for Inactive)
REMARK    1  A    between atoms: N_4  and  C_9 
REMARK    2  A    between atoms: C_12  and  N_13 
REMARK       I    between atoms: N_13  and  C_14 
REMARK       I    between atoms: C_14  and  N_16 
REMARK    3  A    between atoms: N_16  and  C_17 
REMARK    4  A    between atoms: C_17  and  C_18 
REMARK    5  A    between atoms: C_17  and  C_21 
ROOT
HETATM    1  C   UNL     1     -41.839 -48.977  11.851  1.00  0.00     0.103 A 
HETATM    2  C   UNL     1     -42.739 -49.771  12.557  1.00  0.00     0.051 A 
HETATM    3  C   UNL     1     -42.399 -51.067  12.940  1.00  0.00     0.035 A 
HETATM    4  C   UNL     1     -41.156 -51.593  12.625  1.00  0.00     0.051 A 
HETATM    5  C   UNL     1     -40.346 -50.786  11.839  1.00  0.00     0.119 A 
HETATM    6  N   UNL     1     -40.655 -49.511  11.461  1.00  0.00    -0.350 N 
ATOM      7  HN  UNL     1     -40.005 -48.967  10.894  1.00  0.00     0.166 HD
ENDROOT
BRANCH   4   8
HETATM    8  N   UNL     1     -40.732 -52.869  13.068  1.00  0.00    -0.308 N 
HETATM    9  C   UNL     1     -40.498 -53.164  14.396  1.00  0.00     0.321 C 
HETATM   10  O   UNL     1     -40.565 -52.352  15.318  1.00  0.00    -0.247 OA
HETATM   11  N   UNL     1     -40.198 -54.482  14.627  1.00  0.00    -0.338 N 
HETATM   12  H   UNL     1     -40.035 -55.121  13.870  1.00  0.00     0.164 HD
HETATM   13  H   UNL     1     -40.351 -53.502  12.383  1.00  0.00     0.170 HD
BRANCH  11  14
HETATM   14  C   UNL     1     -40.017 -54.945  15.991  1.00  0.00     0.094 C 
BRANCH  14  15
HETATM   15  C   UNL     1     -41.169 -55.829  16.394  1.00  0.00     0.009 A 
HETATM   16  C   UNL     1     -42.607 -55.461  16.107  1.00  0.00     0.007 A 
HETATM   17  C   UNL     1     -42.074 -55.338  17.505  1.00  0.00     0.007 A 
ENDBRANCH  14  15
BRANCH  14  18
HETATM   18  C   UNL     1     -38.637 -55.530  16.170  1.00  0.00     0.009 A 
HETATM   19  C   UNL     1     -38.252 -56.463  17.292  1.00  0.00     0.007 A 
HETATM   20  C   UNL     1     -37.681 -55.072  17.251  1.00  0.00     0.007 A 
ENDBRANCH  14  18
ENDBRANCH  11  14
ENDBRANCH   4   8
BRANCH   1  21
HETATM   21  N   UNL     1     -42.152 -47.688  11.493  1.00  0.00    -0.362 N 
HETATM   22  C   UNL     1     -41.628 -46.550  12.257  1.00  0.00     0.156 C 
HETATM   23  C   UNL     1     -41.259 -45.413  11.271  1.00  0.00     0.136 C 
HETATM   24  C   UNL     1     -39.977 -45.730  10.499  1.00  0.00     0.041 C 
HETATM   25  O   UNL     1     -42.342 -45.084  10.371  1.00  0.00    -0.378 OA
HETATM   26  C   UNL     1     -42.860 -46.234   9.672  1.00  0.00     0.136 C 
HETATM   27  C   UNL     1     -43.307 -47.324  10.665  1.00  0.00     0.156 C 
HETATM   28  C   UNL     1     -44.026 -45.782   8.803  1.00  0.00     0.041 C 
ENDBRANCH   1  21
TORSDOF 5
ENDMDL
MODEL 7
REMARK VINA RESULT:      -5.3      2.850      9.395
REMARK  5 active torsions:
REMARK  status: ('A' for Active; 'I' for Inactive)
REMARK    1  A    between atoms: N_4  and  C_9 
REMARK    2  A    between atoms: C_12  and  N_13 
REMARK       I    between atoms: N_13  and  C_14 
REMARK       I    between atoms: C_14  and  N_16 
REMARK    3  A    between atoms: N_16  and  C_17 
REMARK    4  A    between atoms: C_17  and  C_18 
REMARK    5  A    between atoms: C_17  and  C_21 
ROOT
HETATM    1  C   UNL     1     -41.958 -45.912  12.307  1.00  0.00     0.103 A 
HETATM    2  C   UNL     1     -43.055 -46.653  12.735  1.00  0.00     0.051 A 
HETATM    3  C   UNL     1     -43.116 -48.028  12.518  1.00  0.00     0.035 A 
HETATM    4  C   UNL     1     -42.084 -48.687  11.869  1.00  0.00     0.051 A 
HETATM    5  C   UNL     1     -41.067 -47.877  11.384  1.00  0.00     0.119 A 
HETATM    6  N   UNL     1     -40.983 -46.530  11.594  1.00  0.00    -0.350 N 
ATOM      7  HN  UNL     1     -40.199 -45.996  11.221  1.00  0.00     0.166 HD
ENDROOT
BRANCH   4   8
HETATM    8  N   UNL     1     -42.058 -50.093  11.704  1.00  0.00    -0.308 N 
HETATM    9  C   UNL     1     -41.706 -50.962  12.717  1.00  0.00     0.321 C 
HETATM   10  O   UNL     1     -41.317 -50.620  13.833  1.00  0.00    -0.247 OA
HETATM   11  N   UNL     1     -41.848 -52.285  12.386  1.00  0.00    -0.338 N 
HETATM   12  H   UNL     1     -42.058 -52.570  11.447  1.00  0.00     0.164 HD
HETATM   13  H   UNL     1     -42.053 -50.456  10.765  1.00  0.00     0.170 HD
BRANCH  11  14
HETATM   14  C   UNL     1     -41.595 -53.304  13.391  1.00  0.00     0.094 C 
BRANCH  14  15
HETATM   15  C   UNL     1     -42.668 -54.361  13.336  1.00  0.00     0.009 A 
HETATM   16  C   UNL     1     -44.140 -54.019  13.371  1.00  0.00     0.007 A 
HETATM   17  C   UNL     1     -43.484 -54.599  14.590  1.00  0.00     0.007 A 
ENDBRANCH  14  15
BRANCH  14  18
HETATM   18  C   UNL     1     -40.172 -53.796  13.295  1.00  0.00     0.009 A 
HETATM   19  C   UNL     1     -39.537 -54.748  14.281  1.00  0.00     0.007 A 
HETATM   20  C   UNL     1     -39.071 -53.320  14.219  1.00  0.00     0.007 A 
ENDBRANCH  14  18
ENDBRANCH  11  14
ENDBRANCH   4   8
BRANCH   1  21
HETATM   21  N   UNL     1     -41.873 -44.561  12.540  1.00  0.00    -0.362 N 
HETATM   22  C   UNL     1     -41.447 -44.052  13.849  1.00  0.00     0.156 C 
HETATM   23  C   UNL     1     -40.544 -42.810  13.632  1.00  0.00     0.136 C 
HETATM   24  C   UNL     1     -39.158 -43.203  13.120  1.00  0.00     0.041 C 
HETATM   25  O   UNL     1     -41.157 -41.820  12.774  1.00  0.00    -0.378 OA
HETATM   26  C   UNL     1     -41.604 -42.367  11.517  1.00  0.00     0.136 C 
HETATM   27  C   UNL     1     -42.570 -43.546  11.743  1.00  0.00     0.156 C 
HETATM   28  C   UNL     1     -42.279 -41.256  10.725  1.00  0.00     0.041 C 
ENDBRANCH   1  21
TORSDOF 5
ENDMDL
MODEL 8
REMARK VINA RESULT:      -5.3     15.181     17.625
REMARK  5 active torsions:
REMARK  status: ('A' for Active; 'I' for Inactive)
REMARK    1  A    between atoms: N_4  and  C_9 
REMARK    2  A    between atoms: C_12  and  N_13 
REMARK       I    between atoms: N_13  and  C_14 
REMARK       I    between atoms: C_14  and  N_16 
REMARK    3  A    between atoms: N_16  and  C_17 
REMARK    4  A    between atoms: C_17  and  C_18 
REMARK    5  A    between atoms: C_17  and  C_21 
ROOT
HETATM    1  C   UNL     1     -50.482 -46.037   2.027  1.00  0.00     0.103 A 
HETATM    2  C   UNL     1     -51.613 -46.844   1.962  1.00  0.00     0.051 A 
HETATM    3  C   UNL     1     -51.507 -48.197   1.645  1.00  0.00     0.035 A 
HETATM    4  C   UNL     1     -50.270 -48.767   1.388  1.00  0.00     0.051 A 
HETATM    5  C   UNL     1     -49.197 -47.888   1.375  1.00  0.00     0.119 A 
HETATM    6  N   UNL     1     -49.278 -46.562   1.692  1.00  0.00    -0.350 N 
ATOM      7  HN  UNL     1     -48.444 -45.975   1.676  1.00  0.00     0.166 HD
ENDROOT
BRANCH   4   8
HETATM    8  N   UNL     1     -50.101 -50.152   1.150  1.00  0.00    -0.308 N 
HETATM    9  C   UNL     1     -50.621 -50.794   0.044  1.00  0.00     0.321 C 
HETATM   10  O   UNL     1     -51.333 -50.262  -0.806  1.00  0.00    -0.247 OA
HETATM   11  N   UNL     1     -50.256 -52.112  -0.055  1.00  0.00    -0.338 N 
HETATM   12  H   UNL     1     -49.769 -52.577   0.690  1.00  0.00     0.164 HD
HETATM   13  H   UNL     1     -49.812 -50.729   1.923  1.00  0.00     0.170 HD
BRANCH  11  14
HETATM   14  C   UNL     1     -50.664 -52.880  -1.218  1.00  0.00     0.094 C 
BRANCH  14  15
HETATM   15  C   UNL     1     -49.461 -53.526  -1.858  1.00  0.00     0.009 A 
HETATM   16  C   UNL     1     -48.177 -52.769  -2.109  1.00  0.00     0.007 A 
HETATM   17  C   UNL     1     -49.090 -53.085  -3.258  1.00  0.00     0.007 A 
ENDBRANCH  14  15
BRANCH  14  18
HETATM   18  C   UNL     1     -51.804 -53.804  -0.866  1.00  0.00     0.009 A 
HETATM   19  C   UNL     1     -52.713 -54.452  -1.882  1.00  0.00     0.007 A 
HETATM   20  C   UNL     1     -53.258 -53.393  -0.964  1.00  0.00     0.007 A 
ENDBRANCH  14  18
ENDBRANCH  11  14
ENDBRANCH   4   8
BRANCH   1  21
HETATM   21  N   UNL     1     -50.571 -44.708   2.367  1.00  0.00    -0.362 N 
HETATM   22  C   UNL     1     -51.356 -43.777   1.550  1.00  0.00     0.156 C 
HETATM   23  C   UNL     1     -52.088 -42.783   2.488  1.00  0.00     0.136 C 
HETATM   24  C   UNL     1     -53.265 -43.447   3.204  1.00  0.00     0.041 C 
HETATM   25  O   UNL     1     -51.194 -42.147   3.431  1.00  0.00    -0.378 OA
HETATM   26  C   UNL     1     -50.407 -43.093   4.183  1.00  0.00     0.136 C 
HETATM   27  C   UNL     1     -49.615 -44.019   3.240  1.00  0.00     0.156 C 
HETATM   28  C   UNL     1     -49.468 -42.316   5.094  1.00  0.00     0.041 C 
ENDBRANCH   1  21
TORSDOF 5
ENDMDL
MODEL 9
REMARK VINA RESULT:      -5.2     15.370     17.830
REMARK  5 active torsions:
REMARK  status: ('A' for Active; 'I' for Inactive)
REMARK    1  A    between atoms: N_4  and  C_9 
REMARK    2  A    between atoms: C_12  and  N_13 
REMARK       I    between atoms: N_13  and  C_14 
REMARK       I    between atoms: C_14  and  N_16 
REMARK    3  A    between atoms: N_16  and  C_17 
REMARK    4  A    between atoms: C_17  and  C_18 
REMARK    5  A    between atoms: C_17  and  C_21 
ROOT
HETATM    1  C   UNL     1     -50.549 -46.032   1.672  1.00  0.00     0.103 A 
HETATM    2  C   UNL     1     -49.406 -46.496   1.028  1.00  0.00     0.051 A 
HETATM    3  C   UNL     1     -49.461 -47.606   0.187  1.00  0.00     0.035 A 
HETATM    4  C   UNL     1     -50.659 -48.272  -0.025  1.00  0.00     0.051 A 
HETATM    5  C   UNL     1     -51.737 -47.817   0.720  1.00  0.00     0.119 A 
HETATM    6  N   UNL     1     -51.706 -46.727   1.542  1.00  0.00    -0.350 N 
ATOM      7  HN  UNL     1     -52.542 -46.439   2.050  1.00  0.00     0.166 HD
ENDROOT
BRANCH   4   8
HETATM    8  N   UNL     1     -50.784 -49.347  -0.938  1.00  0.00    -0.308 N 
HETATM    9  C   UNL     1     -50.553 -50.662  -0.587  1.00  0.00     0.321 C 
HETATM   10  O   UNL     1     -50.155 -51.035   0.516  1.00  0.00    -0.247 OA
HETATM   11  N   UNL     1     -50.831 -51.559  -1.585  1.00  0.00    -0.338 N 
HETATM   12  H   UNL     1     -51.050 -51.254  -2.516  1.00  0.00     0.164 HD
HETATM   13  H   UNL     1     -50.797 -49.129  -1.921  1.00  0.00     0.170 HD
BRANCH  11  14
HETATM   14  C   UNL     1     -50.716 -52.982  -1.319  1.00  0.00     0.094 C 
BRANCH  14  15
HETATM   15  C   UNL     1     -52.032 -53.667  -1.587  1.00  0.00     0.009 A 
HETATM   16  C   UNL     1     -53.354 -53.068  -1.164  1.00  0.00     0.007 A 
HETATM   17  C   UNL     1     -52.786 -54.228  -0.399  1.00  0.00     0.007 A 
ENDBRANCH  14  15
BRANCH  14  18
HETATM   18  C   UNL     1     -49.514 -53.554  -2.029  1.00  0.00     0.009 A 
HETATM   19  C   UNL     1     -49.211 -55.030  -2.128  1.00  0.00     0.007 A 
HETATM   20  C   UNL     1     -48.327 -54.143  -1.297  1.00  0.00     0.007 A 
ENDBRANCH  14  18
ENDBRANCH  11  14
ENDBRANCH   4   8
BRANCH   1  21
HETATM   21  N   UNL     1     -50.513 -44.922   2.481  1.00  0.00    -0.362 N 
HETATM   22  C   UNL     1     -49.271 -44.525   3.153  1.00  0.00     0.156 C 
HETATM   23  C   UNL     1     -49.164 -42.979   3.132  1.00  0.00     0.136 C 
HETATM   24  C   UNL     1     -48.802 -42.457   1.741  1.00  0.00     0.041 C 
HETATM   25  O   UNL     1     -50.354 -42.332   3.640  1.00  0.00    -0.378 OA
HETATM   26  C   UNL     1     -51.558 -42.780   2.986  1.00  0.00     0.136 C 
HETATM   27  C   UNL     1     -51.700 -44.312   3.089  1.00  0.00     0.156 C 
HETATM   28  C   UNL     1     -52.744 -42.081   3.636  1.00  0.00     0.041 C 
ENDBRANCH   1  21
TORSDOF 5
ENDMDL
