MODEL 1
REMARK VINA RESULT:      -4.9      0.000      0.000
REMARK  3 active torsions:
REMARK  status: ('A' for Active; 'I' for Inactive)
REMARK    1  A    between atoms: C_2  and  N_3 
REMARK    2  A    between atoms: C_2  and  C_4 
REMARK    3  A    between atoms: C_4  and  C_5 
ROOT
HETATM    1  C   UNL     1     -43.070 -46.994   9.513  1.00  0.00     0.029 A 
HETATM    2  C   UNL     1     -42.249 -46.330  10.397  1.00  0.00     0.052 A 
HETATM    3  C   UNL     1     -41.208 -47.238  10.691  1.00  0.00     0.024 A 
HETATM    4  C   UNL     1     -40.040 -47.037  11.581  1.00  0.00     0.070 C 
HETATM    5  N   UNL     1     -41.370 -48.398  10.043  1.00  0.00    -0.305 N 
ATOM      6  HN  UNL     1     -40.768 -49.220  10.069  1.00  0.00     0.186 HD
HETATM    7  N   UNL     1     -42.506 -48.230   9.351  1.00  0.00    -0.305 N 
HETATM    8  H   UNL     1     -42.839 -49.001   8.783  1.00  0.00     0.186 HD
ENDROOT
BRANCH   1   9
HETATM    9  C   UNL     1     -44.327 -46.590   8.816  1.00  0.00     0.093 C 
BRANCH   9  10
HETATM   10  C   UNL     1     -45.406 -47.694   8.826  1.00  0.00     0.219 C 
HETATM   11  C   UNL     1     -46.800 -47.149   9.148  1.00  0.00     0.042 C 
BRANCH  10  12
HETATM   12  N   UNL     1     -45.443 -48.363   7.518  1.00  0.00     0.082 N 
HETATM   13  H   UNL     1     -45.838 -49.298   7.617  1.00  0.00     0.313 HD
HETATM   14  H   UNL     1     -44.489 -48.500   7.184  1.00  0.00     0.313 HD
ENDBRANCH  10  12
ENDBRANCH   9  10
ENDBRANCH   1   9
TORSDOF 3
ENDMDL
MODEL 2
REMARK VINA RESULT:      -4.7      1.277      4.637
REMARK  3 active torsions:
REMARK  status: ('A' for Active; 'I' for Inactive)
REMARK    1  A    between atoms: C_2  and  N_3 
REMARK    2  A    between atoms: C_2  and  C_4 
REMARK    3  A    between atoms: C_4  and  C_5 
ROOT
HETATM    1  C   UNL     1     -42.865 -47.754   9.786  1.00  0.00     0.029 A 
HETATM    2  C   UNL     1     -44.125 -47.447  10.250  1.00  0.00     0.052 A 
HETATM    3  C   UNL     1     -44.954 -47.457   9.107  1.00  0.00     0.024 A 
HETATM    4  C   UNL     1     -46.412 -47.204   9.031  1.00  0.00     0.070 C 
HETATM    5  N   UNL     1     -44.261 -47.743   7.999  1.00  0.00    -0.305 N 
ATOM      6  HN  UNL     1     -44.609 -47.820   7.044  1.00  0.00     0.186 HD
HETATM    7  N   UNL     1     -43.002 -47.904   8.433  1.00  0.00    -0.305 N 
HETATM    8  H   UNL     1     -42.285 -48.120   7.750  1.00  0.00     0.186 HD
ENDROOT
BRANCH   1   9
HETATM    9  C   UNL     1     -41.552 -47.914  10.479  1.00  0.00     0.093 C 
BRANCH   9  10
HETATM   10  C   UNL     1     -41.018 -46.594  11.076  1.00  0.00     0.219 C 
HETATM   11  C   UNL     1     -40.609 -46.737  12.543  1.00  0.00     0.042 C 
BRANCH  10  12
HETATM   12  N   UNL     1     -39.861 -46.131  10.297  1.00  0.00     0.082 N 
HETATM   13  H   UNL     1     -40.156 -45.420   9.628  1.00  0.00     0.313 HD
HETATM   14  H   UNL     1     -39.500 -46.904   9.738  1.00  0.00     0.313 HD
ENDBRANCH  10  12
ENDBRANCH   9  10
ENDBRANCH   1   9
TORSDOF 3
ENDMDL
MODEL 3
REMARK VINA RESULT:      -4.5      2.131      2.606
REMARK  3 active torsions:
REMARK  status: ('A' for Active; 'I' for Inactive)
REMARK    1  A    between atoms: C_2  and  N_3 
REMARK    2  A    between atoms: C_2  and  C_4 
REMARK    3  A    between atoms: C_4  and  C_5 
ROOT
HETATM    1  C   UNL     1     -42.116 -48.451  10.829  1.00  0.00     0.029 A 
HETATM    2  C   UNL     1     -41.910 -49.217  11.955  1.00  0.00     0.052 A 
HETATM    3  C   UNL     1     -40.847 -50.086  11.622  1.00  0.00     0.024 A 
HETATM    4  C   UNL     1     -40.207 -51.118  12.471  1.00  0.00     0.070 C 
HETATM    5  N   UNL     1     -40.421 -49.885  10.369  1.00  0.00    -0.305 N 
ATOM      6  HN  UNL     1     -39.670 -50.368   9.877  1.00  0.00     0.186 HD
HETATM    7  N   UNL     1     -41.212 -48.904   9.909  1.00  0.00    -0.305 N 
HETATM    8  H   UNL     1     -41.075 -48.589   8.955  1.00  0.00     0.186 HD
ENDROOT
BRANCH   1   9
HETATM    9  C   UNL     1     -43.076 -47.347  10.530  1.00  0.00     0.093 C 
BRANCH   9  10
HETATM   10  C   UNL     1     -43.717 -47.464   9.130  1.00  0.00     0.219 C 
HETATM   11  C   UNL     1     -45.233 -47.263   9.160  1.00  0.00     0.042 C 
BRANCH  10  12
HETATM   12  N   UNL     1     -43.118 -46.471   8.228  1.00  0.00     0.082 N 
HETATM   13  H   UNL     1     -43.617 -46.466   7.338  1.00  0.00     0.313 HD
HETATM   14  H   UNL     1     -42.162 -46.750   8.007  1.00  0.00     0.313 HD
ENDBRANCH  10  12
ENDBRANCH   9  10
ENDBRANCH   1   9
TORSDOF 3
ENDMDL
MODEL 4
REMARK VINA RESULT:      -4.5      1.624      2.063
REMARK  3 active torsions:
REMARK  status: ('A' for Active; 'I' for Inactive)
REMARK    1  A    between atoms: C_2  and  N_3 
REMARK    2  A    between atoms: C_2  and  C_4 
REMARK    3  A    between atoms: C_4  and  C_5 
ROOT
HETATM    1  C   UNL     1     -42.438 -46.846  10.328  1.00  0.00     0.029 A 
HETATM    2  C   UNL     1     -42.195 -45.500  10.492  1.00  0.00     0.052 A 
HETATM    3  C   UNL     1     -40.789 -45.383  10.564  1.00  0.00     0.024 A 
HETATM    4  C   UNL     1     -39.980 -44.152  10.727  1.00  0.00     0.070 C 
HETATM    5  N   UNL     1     -40.191 -46.575  10.463  1.00  0.00    -0.305 N 
ATOM      6  HN  UNL     1     -39.192 -46.779  10.479  1.00  0.00     0.186 HD
HETATM    7  N   UNL     1     -41.207 -47.441  10.335  1.00  0.00    -0.305 N 
HETATM    8  H   UNL     1     -40.986 -48.428  10.252  1.00  0.00     0.186 HD
ENDROOT
BRANCH   1   9
HETATM    9  C   UNL     1     -43.702 -47.624  10.174  1.00  0.00     0.093 C 
BRANCH   9  10
HETATM   10  C   UNL     1     -44.369 -47.431   8.795  1.00  0.00     0.219 C 
HETATM   11  C   UNL     1     -43.475 -47.890   7.641  1.00  0.00     0.042 C 
BRANCH  10  12
HETATM   12  N   UNL     1     -45.634 -48.176   8.748  1.00  0.00     0.082 N 
HETATM   13  H   UNL     1     -45.757 -48.592   7.824  1.00  0.00     0.313 HD
HETATM   14  H   UNL     1     -46.412 -47.527   8.864  1.00  0.00     0.313 HD
ENDBRANCH  10  12
ENDBRANCH   9  10
ENDBRANCH   1   9
TORSDOF 3
ENDMDL
MODEL 5
REMARK VINA RESULT:      -4.5      6.802      7.063
REMARK  3 active torsions:
REMARK  status: ('A' for Active; 'I' for Inactive)
REMARK    1  A    between atoms: C_2  and  N_3 
REMARK    2  A    between atoms: C_2  and  C_4 
REMARK    3  A    between atoms: C_4  and  C_5 
ROOT
HETATM    1  C   UNL     1     -43.564 -53.255  12.583  1.00  0.00     0.029 A 
HETATM    2  C   UNL     1     -42.767 -53.947  13.468  1.00  0.00     0.052 A 
HETATM    3  C   UNL     1     -41.445 -53.743  13.014  1.00  0.00     0.024 A 
HETATM    4  C   UNL     1     -40.185 -54.253  13.604  1.00  0.00     0.070 C 
HETATM    5  N   UNL     1     -41.415 -52.983  11.912  1.00  0.00    -0.305 N 
ATOM      6  HN  UNL     1     -40.599 -52.679  11.382  1.00  0.00     0.186 HD
HETATM    7  N   UNL     1     -42.705 -52.714  11.666  1.00  0.00    -0.305 N 
HETATM    8  H   UNL     1     -42.929 -52.149  10.854  1.00  0.00     0.186 HD
ENDROOT
BRANCH   1   9
HETATM    9  C   UNL     1     -45.042 -53.058  12.508  1.00  0.00     0.093 C 
BRANCH   9  10
HETATM   10  C   UNL     1     -45.699 -52.868  13.892  1.00  0.00     0.219 C 
HETATM   11  C   UNL     1     -46.442 -51.535  14.011  1.00  0.00     0.042 C 
BRANCH  10  12
HETATM   12  N   UNL     1     -46.639 -53.967  14.150  1.00  0.00     0.082 N 
HETATM   13  H   UNL     1     -46.722 -54.124  15.154  1.00  0.00     0.313 HD
HETATM   14  H   UNL     1     -46.259 -54.832  13.765  1.00  0.00     0.313 HD
ENDBRANCH  10  12
ENDBRANCH   9  10
ENDBRANCH   1   9
TORSDOF 3
ENDMDL
MODEL 6
REMARK VINA RESULT:      -4.3      6.585      7.974
REMARK  3 active torsions:
REMARK  status: ('A' for Active; 'I' for Inactive)
REMARK    1  A    between atoms: C_2  and  N_3 
REMARK    2  A    between atoms: C_2  and  C_4 
REMARK    3  A    between atoms: C_4  and  C_5 
ROOT
HETATM    1  C   UNL     1     -43.546 -53.431  13.207  1.00  0.00     0.029 A 
HETATM    2  C   UNL     1     -44.339 -52.819  14.152  1.00  0.00     0.052 A 
HETATM    3  C   UNL     1     -45.411 -52.253  13.427  1.00  0.00     0.024 A 
HETATM    4  C   UNL     1     -46.566 -51.487  13.949  1.00  0.00     0.070 C 
HETATM    5  N   UNL     1     -45.293 -52.486  12.114  1.00  0.00    -0.305 N 
ATOM      6  HN  UNL     1     -45.924 -52.197  11.367  1.00  0.00     0.186 HD
HETATM    7  N   UNL     1     -44.154 -53.186  12.007  1.00  0.00    -0.305 N 
HETATM    8  H   UNL     1     -43.852 -53.468  11.081  1.00  0.00     0.186 HD
ENDROOT
BRANCH   1   9
HETATM    9  C   UNL     1     -42.278 -54.212  13.317  1.00  0.00     0.093 C 
BRANCH   9  10
HETATM   10  C   UNL     1     -41.019 -53.369  13.022  1.00  0.00     0.219 C 
HETATM   11  C   UNL     1     -39.778 -53.893  13.749  1.00  0.00     0.042 C 
BRANCH  10  12
HETATM   12  N   UNL     1     -40.759 -53.355  11.576  1.00  0.00     0.082 N 
HETATM   13  H   UNL     1     -41.445 -52.764  11.106  1.00  0.00     0.313 HD
HETATM   14  H   UNL     1     -40.899 -54.293  11.200  1.00  0.00     0.313 HD
ENDBRANCH  10  12
ENDBRANCH   9  10
ENDBRANCH   1   9
TORSDOF 3
ENDMDL
MODEL 7
REMARK VINA RESULT:      -4.2      6.346      6.771
REMARK  3 active torsions:
REMARK  status: ('A' for Active; 'I' for Inactive)
REMARK    1  A    between atoms: C_2  and  N_3 
REMARK    2  A    between atoms: C_2  and  C_4 
REMARK    3  A    between atoms: C_4  and  C_5 
ROOT
HETATM    1  C   UNL     1     -42.942 -52.384  12.809  1.00  0.00     0.029 A 
HETATM    2  C   UNL     1     -41.910 -51.643  13.340  1.00  0.00     0.052 A 
HETATM    3  C   UNL     1     -40.901 -51.650  12.351  1.00  0.00     0.024 A 
HETATM    4  C   UNL     1     -39.573 -50.993  12.392  1.00  0.00     0.070 C 
HETATM    5  N   UNL     1     -41.271 -52.356  11.276  1.00  0.00    -0.305 N 
ATOM      6  HN  UNL     1     -40.741 -52.520  10.421  1.00  0.00     0.186 HD
HETATM    7  N   UNL     1     -42.499 -52.799  11.583  1.00  0.00    -0.305 N 
HETATM    8  H   UNL     1     -42.981 -53.379  10.905  1.00  0.00     0.186 HD
ENDROOT
BRANCH   1   9
HETATM    9  C   UNL     1     -44.291 -52.746  13.337  1.00  0.00     0.093 C 
BRANCH   9  10
HETATM   10  C   UNL     1     -44.505 -54.271  13.456  1.00  0.00     0.219 C 
HETATM   11  C   UNL     1     -43.686 -54.892  14.590  1.00  0.00     0.042 C 
BRANCH  10  12
HETATM   12  N   UNL     1     -45.929 -54.554  13.682  1.00  0.00     0.082 N 
HETATM   13  H   UNL     1     -46.108 -55.550  13.557  1.00  0.00     0.313 HD
HETATM   14  H   UNL     1     -46.484 -54.082  12.967  1.00  0.00     0.313 HD
ENDBRANCH  10  12
ENDBRANCH   9  10
ENDBRANCH   1   9
TORSDOF 3
ENDMDL
MODEL 8
REMARK VINA RESULT:      -4.2      4.647      6.402
REMARK  3 active torsions:
REMARK  status: ('A' for Active; 'I' for Inactive)
REMARK    1  A    between atoms: C_2  and  N_3 
REMARK    2  A    between atoms: C_2  and  C_4 
REMARK    3  A    between atoms: C_4  and  C_5 
ROOT
HETATM    1  C   UNL     1     -41.918 -51.724  12.384  1.00  0.00     0.029 A 
HETATM    2  C   UNL     1     -42.917 -51.181  13.162  1.00  0.00     0.052 A 
HETATM    3  C   UNL     1     -44.061 -51.967  12.897  1.00  0.00     0.024 A 
HETATM    4  C   UNL     1     -45.418 -51.831  13.476  1.00  0.00     0.070 C 
HETATM    5  N   UNL     1     -43.800 -52.930  12.006  1.00  0.00    -0.305 N 
ATOM      6  HN  UNL     1     -44.439 -53.636  11.641  1.00  0.00     0.186 HD
HETATM    7  N   UNL     1     -42.506 -52.753  11.702  1.00  0.00    -0.305 N 
HETATM    8  H   UNL     1     -42.085 -53.377  11.022  1.00  0.00     0.186 HD
ENDROOT
BRANCH   1   9
HETATM    9  C   UNL     1     -40.478 -51.370  12.211  1.00  0.00     0.093 C 
BRANCH   9  10
HETATM   10  C   UNL     1     -40.266 -49.932  11.689  1.00  0.00     0.219 C 
HETATM   11  C   UNL     1     -38.859 -49.405  11.979  1.00  0.00     0.042 C 
BRANCH  10  12
HETATM   12  N   UNL     1     -40.505 -49.891  10.240  1.00  0.00     0.082 N 
HETATM   13  H   UNL     1     -40.189 -48.998   9.862  1.00  0.00     0.313 HD
HETATM   14  H   UNL     1     -41.509 -49.926  10.064  1.00  0.00     0.313 HD
ENDBRANCH  10  12
ENDBRANCH   9  10
ENDBRANCH   1   9
TORSDOF 3
ENDMDL
MODEL 9
REMARK VINA RESULT:      -4.1      2.981      4.305
REMARK  3 active torsions:
REMARK  status: ('A' for Active; 'I' for Inactive)
REMARK    1  A    between atoms: C_2  and  N_3 
REMARK    2  A    between atoms: C_2  and  C_4 
REMARK    3  A    between atoms: C_4  and  C_5 
ROOT
HETATM    1  C   UNL     1     -41.166 -47.764  10.955  1.00  0.00     0.029 A 
HETATM    2  C   UNL     1     -40.403 -48.306  11.966  1.00  0.00     0.052 A 
HETATM    3  C   UNL     1     -40.054 -49.599  11.515  1.00  0.00     0.024 A 
HETATM    4  C   UNL     1     -39.228 -50.617  12.204  1.00  0.00     0.070 C 
HETATM    5  N   UNL     1     -40.571 -49.854  10.307  1.00  0.00    -0.305 N 
ATOM      6  HN  UNL     1     -40.474 -50.702   9.750  1.00  0.00     0.186 HD
HETATM    7  N   UNL     1     -41.248 -48.738   9.999  1.00  0.00    -0.305 N 
HETATM    8  H   UNL     1     -41.741 -48.708   9.113  1.00  0.00     0.186 HD
ENDROOT
BRANCH   1   9
HETATM    9  C   UNL     1     -41.827 -46.435  10.802  1.00  0.00     0.093 C 
BRANCH   9  10
HETATM   10  C   UNL     1     -40.823 -45.267  10.694  1.00  0.00     0.219 C 
HETATM   11  C   UNL     1     -40.383 -44.742  12.062  1.00  0.00     0.042 C 
BRANCH  10  12
HETATM   12  N   UNL     1     -39.638 -45.701   9.941  1.00  0.00     0.082 N 
HETATM   13  H   UNL     1     -39.889 -45.869   8.967  1.00  0.00     0.313 HD
HETATM   14  H   UNL     1     -39.320 -46.600  10.303  1.00  0.00     0.313 HD
ENDBRANCH  10  12
ENDBRANCH   9  10
ENDBRANCH   1   9
TORSDOF 3
ENDMDL
