MODEL 1
REMARK VINA RESULT:      -6.3      0.000      0.000
REMARK  4 active torsions:
REMARK  status: ('A' for Active; 'I' for Inactive)
REMARK    1  A    between atoms: C_2  and  N_3 
REMARK       I    between atoms: N_3  and  C_4 
REMARK    2  A    between atoms: C_4  and  C_6 
REMARK    3  A    between atoms: C_9  and  N_14 
REMARK    4  A    between atoms: C_18  and  O_20 
ROOT
HETATM    1  C   UNL     1     -42.187 -47.446  10.164  1.00  0.00     0.116 A 
HETATM    2  C   UNL     1     -41.638 -46.615  11.114  1.00  0.00     0.040 A 
HETATM    3  C   UNL     1     -40.502 -47.040  11.804  1.00  0.00     0.052 A 
HETATM    4  C   UNL     1     -39.921 -48.284  11.555  1.00  0.00     0.117 A 
HETATM    5  N   UNL     1     -40.504 -49.053  10.604  1.00  0.00    -0.285 N 
ATOM      6  HN  UNL     1     -40.097 -49.964  10.394  1.00  0.00     0.188 HD
HETATM    7  N   UNL     1     -41.642 -48.649   9.896  1.00  0.00    -0.294 N 
ATOM      8  HN  UNL     1     -42.053 -49.256   9.188  1.00  0.00     0.187 HD
ENDROOT
BRANCH   4   9
HETATM    9  N   UNL     1     -38.796 -48.721  12.226  1.00  0.00    -0.364 N 
HETATM   10  C   UNL     1     -37.846 -49.705  11.715  1.00  0.00     0.124 C 
HETATM   11  C   UNL     1     -37.795 -50.879  12.688  1.00  0.00     0.022 C 
HETATM   12  C   UNL     1     -37.388 -50.403  14.077  1.00  0.00     0.035 C 
HETATM   13  C   UNL     1     -38.309 -49.284  14.594  1.00  0.00     0.138 C 
HETATM   14  C   UNL     1     -38.450 -48.157  13.540  1.00  0.00     0.156 C 
BRANCH  13  15
HETATM   15  O   UNL     1     -37.794 -48.715  15.806  1.00  0.00    -0.389 OA
HETATM   16  C   UNL     1     -36.543 -48.058  15.648  1.00  0.00     0.202 C 
ENDBRANCH  13  15
ENDBRANCH   4   9
BRANCH   1  17
HETATM   17  C   UNL     1     -43.390 -47.012   9.403  1.00  0.00     0.269 C 
HETATM   18  N   UNL     1     -44.580 -47.645   9.700  1.00  0.00    -0.356 N 
HETATM   19  H   UNL     1     -44.585 -48.332  10.448  1.00  0.00     0.162 HD
HETATM   20  O   UNL     1     -43.295 -46.131   8.553  1.00  0.00    -0.266 OA
BRANCH  18  21
HETATM   21  C   UNL     1     -45.805 -47.318   9.003  1.00  0.00     0.118 C 
HETATM   22  C   UNL     1     -46.485 -48.549   8.429  1.00  0.00     0.026 C 
ENDBRANCH  18  21
ENDBRANCH   1  17
TORSDOF 4
ENDMDL
MODEL 2
REMARK VINA RESULT:      -6.1      3.803      4.975
REMARK  4 active torsions:
REMARK  status: ('A' for Active; 'I' for Inactive)
REMARK    1  A    between atoms: C_2  and  N_3 
REMARK       I    between atoms: N_3  and  C_4 
REMARK    2  A    between atoms: C_4  and  C_6 
REMARK    3  A    between atoms: C_9  and  N_14 
REMARK    4  A    between atoms: C_18  and  O_20 
ROOT
HETATM    1  C   UNL     1     -41.480 -48.506  11.096  1.00  0.00     0.116 A 
HETATM    2  C   UNL     1     -42.354 -48.770  12.125  1.00  0.00     0.040 A 
HETATM    3  C   UNL     1     -42.456 -50.077  12.602  1.00  0.00     0.052 A 
HETATM    4  C   UNL     1     -41.698 -51.114  12.057  1.00  0.00     0.117 A 
HETATM    5  N   UNL     1     -40.851 -50.788  11.051  1.00  0.00    -0.285 N 
ATOM      6  HN  UNL     1     -40.278 -51.524  10.637  1.00  0.00     0.188 HD
HETATM    7  N   UNL     1     -40.729 -49.485  10.555  1.00  0.00    -0.294 N 
ATOM      8  HN  UNL     1     -40.081 -49.280   9.795  1.00  0.00     0.187 HD
ENDROOT
BRANCH   4   9
HETATM    9  N   UNL     1     -41.783 -52.413  12.518  1.00  0.00    -0.364 N 
HETATM   10  C   UNL     1     -43.021 -53.091  12.887  1.00  0.00     0.124 C 
HETATM   11  C   UNL     1     -42.921 -53.521  14.347  1.00  0.00     0.022 C 
HETATM   12  C   UNL     1     -41.720 -54.437  14.551  1.00  0.00     0.035 C 
HETATM   13  C   UNL     1     -40.413 -53.787  14.066  1.00  0.00     0.138 C 
HETATM   14  C   UNL     1     -40.572 -53.242  12.624  1.00  0.00     0.156 C 
BRANCH  13  15
HETATM   15  O   UNL     1     -39.334 -54.732  14.081  1.00  0.00    -0.389 OA
HETATM   16  C   UNL     1     -38.980 -55.180  15.384  1.00  0.00     0.202 C 
ENDBRANCH  13  15
ENDBRANCH   4   9
BRANCH   1  17
HETATM   17  C   UNL     1     -41.341 -47.118  10.576  1.00  0.00     0.269 C 
HETATM   18  N   UNL     1     -40.082 -46.555  10.628  1.00  0.00    -0.356 N 
HETATM   19  H   UNL     1     -39.313 -47.126  10.966  1.00  0.00     0.162 HD
HETATM   20  O   UNL     1     -42.320 -46.526  10.134  1.00  0.00    -0.266 OA
BRANCH  18  21
HETATM   21  C   UNL     1     -39.838 -45.203  10.172  1.00  0.00     0.118 C 
HETATM   22  C   UNL     1     -39.920 -44.194  11.304  1.00  0.00     0.026 C 
ENDBRANCH  18  21
ENDBRANCH   1  17
TORSDOF 4
ENDMDL
MODEL 3
REMARK VINA RESULT:      -5.8      4.668      5.857
REMARK  4 active torsions:
REMARK  status: ('A' for Active; 'I' for Inactive)
REMARK    1  A    between atoms: C_2  and  N_3 
REMARK       I    between atoms: N_3  and  C_4 
REMARK    2  A    between atoms: C_4  and  C_6 
REMARK    3  A    between atoms: C_9  and  N_14 
REMARK    4  A    between atoms: C_18  and  O_20 
ROOT
HETATM    1  C   UNL     1     -41.772 -48.194  11.270  1.00  0.00     0.116 A 
HETATM    2  C   UNL     1     -40.759 -49.003  11.732  1.00  0.00     0.040 A 
HETATM    3  C   UNL     1     -41.092 -50.166  12.429  1.00  0.00     0.052 A 
HETATM    4  C   UNL     1     -42.420 -50.517  12.668  1.00  0.00     0.117 A 
HETATM    5  N   UNL     1     -43.371 -49.684  12.181  1.00  0.00    -0.285 N 
ATOM      6  HN  UNL     1     -44.353 -49.919  12.334  1.00  0.00     0.188 HD
HETATM    7  N   UNL     1     -43.064 -48.513  11.478  1.00  0.00    -0.294 N 
ATOM      8  HN  UNL     1     -43.808 -47.910  11.128  1.00  0.00     0.187 HD
ENDROOT
BRANCH   4   9
HETATM    9  N   UNL     1     -42.770 -51.665  13.353  1.00  0.00    -0.364 N 
HETATM   10  C   UNL     1     -41.935 -52.333  14.346  1.00  0.00     0.124 C 
HETATM   11  C   UNL     1     -41.672 -53.760  13.875  1.00  0.00     0.022 C 
HETATM   12  C   UNL     1     -42.986 -54.508  13.680  1.00  0.00     0.035 C 
HETATM   13  C   UNL     1     -43.931 -53.765  12.720  1.00  0.00     0.138 C 
HETATM   14  C   UNL     1     -44.088 -52.282  13.141  1.00  0.00     0.156 C 
BRANCH  13  15
HETATM   15  O   UNL     1     -45.229 -54.376  12.705  1.00  0.00    -0.389 OA
HETATM   16  C   UNL     1     -45.501 -55.179  13.846  1.00  0.00     0.202 C 
ENDBRANCH  13  15
ENDBRANCH   4   9
BRANCH   1  17
HETATM   17  C   UNL     1     -41.446 -46.956  10.511  1.00  0.00     0.269 C 
HETATM   18  N   UNL     1     -40.167 -46.457  10.649  1.00  0.00    -0.356 N 
HETATM   19  H   UNL     1     -39.504 -46.981  11.214  1.00  0.00     0.162 HD
HETATM   20  O   UNL     1     -42.299 -46.423   9.808  1.00  0.00    -0.266 OA
BRANCH  18  21
HETATM   21  C   UNL     1     -39.751 -45.246   9.975  1.00  0.00     0.118 C 
HETATM   22  C   UNL     1     -40.002 -44.007  10.817  1.00  0.00     0.026 C 
ENDBRANCH  18  21
ENDBRANCH   1  17
TORSDOF 4
ENDMDL
MODEL 4
REMARK VINA RESULT:      -5.8      3.700      6.021
REMARK  4 active torsions:
REMARK  status: ('A' for Active; 'I' for Inactive)
REMARK    1  A    between atoms: C_2  and  N_3 
REMARK       I    between atoms: N_3  and  C_4 
REMARK    2  A    between atoms: C_4  and  C_6 
REMARK    3  A    between atoms: C_9  and  N_14 
REMARK    4  A    between atoms: C_18  and  O_20 
ROOT
HETATM    1  C   UNL     1     -41.644 -50.762  11.906  1.00  0.00     0.116 A 
HETATM    2  C   UNL     1     -42.334 -49.762  12.552  1.00  0.00     0.040 A 
HETATM    3  C   UNL     1     -42.115 -48.438  12.171  1.00  0.00     0.052 A 
HETATM    4  C   UNL     1     -41.213 -48.111  11.159  1.00  0.00     0.117 A 
HETATM    5  N   UNL     1     -40.569 -49.140  10.556  1.00  0.00    -0.285 N 
ATOM      6  HN  UNL     1     -39.909 -48.932   9.807  1.00  0.00     0.188 HD
HETATM    7  N   UNL     1     -40.772 -50.477  10.919  1.00  0.00    -0.294 N 
ATOM      8  HN  UNL     1     -40.268 -51.224  10.442  1.00  0.00     0.187 HD
ENDROOT
BRANCH   4   9
HETATM    9  N   UNL     1     -40.984 -46.807  10.765  1.00  0.00    -0.364 N 
HETATM   10  C   UNL     1     -39.690 -46.133  10.811  1.00  0.00     0.124 C 
HETATM   11  C   UNL     1     -39.816 -44.904  11.705  1.00  0.00     0.022 C 
HETATM   12  C   UNL     1     -40.896 -43.968  11.175  1.00  0.00     0.035 C 
HETATM   13  C   UNL     1     -42.247 -44.684  11.012  1.00  0.00     0.138 C 
HETATM   14  C   UNL     1     -42.079 -45.998  10.208  1.00  0.00     0.156 C 
BRANCH  13  15
HETATM   15  O   UNL     1     -43.192 -43.848  10.330  1.00  0.00    -0.389 OA
HETATM   16  C   UNL     1     -43.367 -42.570  10.930  1.00  0.00     0.202 C 
ENDBRANCH  13  15
ENDBRANCH   4   9
BRANCH   1  17
HETATM   17  C   UNL     1     -41.869 -52.184  12.283  1.00  0.00     0.269 C 
HETATM   18  N   UNL     1     -43.135 -52.524  12.713  1.00  0.00    -0.356 N 
HETATM   19  H   UNL     1     -43.855 -51.807  12.703  1.00  0.00     0.162 HD
HETATM   20  O   UNL     1     -40.948 -52.993  12.208  1.00  0.00    -0.266 OA
BRANCH  18  21
HETATM   21  C   UNL     1     -43.457 -53.873  13.126  1.00  0.00     0.118 C 
HETATM   22  C   UNL     1     -44.956 -54.109  13.194  1.00  0.00     0.026 C 
ENDBRANCH  18  21
ENDBRANCH   1  17
TORSDOF 4
ENDMDL
MODEL 5
REMARK VINA RESULT:      -5.7      3.411      3.884
REMARK  4 active torsions:
REMARK  status: ('A' for Active; 'I' for Inactive)
REMARK    1  A    between atoms: C_2  and  N_3 
REMARK       I    between atoms: N_3  and  C_4 
REMARK    2  A    between atoms: C_4  and  C_6 
REMARK    3  A    between atoms: C_9  and  N_14 
REMARK    4  A    between atoms: C_18  and  O_20 
ROOT
HETATM    1  C   UNL     1     -41.616 -49.025  10.959  1.00  0.00     0.116 A 
HETATM    2  C   UNL     1     -42.254 -49.217  12.164  1.00  0.00     0.040 A 
HETATM    3  C   UNL     1     -41.949 -50.354  12.913  1.00  0.00     0.052 A 
HETATM    4  C   UNL     1     -41.021 -51.294  12.466  1.00  0.00     0.117 A 
HETATM    5  N   UNL     1     -40.422 -51.046  11.276  1.00  0.00    -0.285 N 
ATOM      6  HN  UNL     1     -39.734 -51.713  10.927  1.00  0.00     0.188 HD
HETATM    7  N   UNL     1     -40.710 -49.913  10.506  1.00  0.00    -0.294 N 
ATOM      8  HN  UNL     1     -40.239 -49.762   9.615  1.00  0.00     0.187 HD
ENDROOT
BRANCH   4   9
HETATM    9  N   UNL     1     -40.704 -52.424  13.195  1.00  0.00    -0.364 N 
HETATM   10  C   UNL     1     -40.980 -53.794  12.777  1.00  0.00     0.124 C 
HETATM   11  C   UNL     1     -41.872 -54.450  13.827  1.00  0.00     0.022 C 
HETATM   12  C   UNL     1     -41.195 -54.426  15.192  1.00  0.00     0.035 C 
HETATM   13  C   UNL     1     -40.793 -53.001  15.608  1.00  0.00     0.138 C 
HETATM   14  C   UNL     1     -39.994 -52.303  14.478  1.00  0.00     0.156 C 
BRANCH  13  15
HETATM   15  O   UNL     1     -39.986 -53.021  16.794  1.00  0.00    -0.389 OA
HETATM   16  C   UNL     1     -38.680 -53.548  16.592  1.00  0.00     0.202 C 
ENDBRANCH  13  15
ENDBRANCH   4   9
BRANCH   1  17
HETATM   17  C   UNL     1     -41.912 -47.815  10.145  1.00  0.00     0.269 C 
HETATM   18  N   UNL     1     -42.892 -47.934   9.181  1.00  0.00    -0.356 N 
HETATM   19  H   UNL     1     -43.391 -48.816   9.109  1.00  0.00     0.162 HD
HETATM   20  O   UNL     1     -41.291 -46.775  10.344  1.00  0.00    -0.266 OA
BRANCH  18  21
HETATM   21  C   UNL     1     -43.242 -46.826   8.318  1.00  0.00     0.118 C 
HETATM   22  C   UNL     1     -44.420 -46.031   8.855  1.00  0.00     0.026 C 
ENDBRANCH  18  21
ENDBRANCH   1  17
TORSDOF 4
ENDMDL
MODEL 6
REMARK VINA RESULT:      -5.7      4.387      6.419
REMARK  4 active torsions:
REMARK  status: ('A' for Active; 'I' for Inactive)
REMARK    1  A    between atoms: C_2  and  N_3 
REMARK       I    between atoms: N_3  and  C_4 
REMARK    2  A    between atoms: C_4  and  C_6 
REMARK    3  A    between atoms: C_9  and  N_14 
REMARK    4  A    between atoms: C_18  and  O_20 
ROOT
HETATM    1  C   UNL     1     -42.866 -51.983  12.782  1.00  0.00     0.116 A 
HETATM    2  C   UNL     1     -43.363 -50.800  13.281  1.00  0.00     0.040 A 
HETATM    3  C   UNL     1     -42.867 -49.596  12.779  1.00  0.00     0.052 A 
HETATM    4  C   UNL     1     -41.882 -49.569  11.791  1.00  0.00     0.117 A 
HETATM    5  N   UNL     1     -41.439 -50.766  11.336  1.00  0.00    -0.285 N 
ATOM      6  HN  UNL     1     -40.724 -50.778  10.608  1.00  0.00     0.188 HD
HETATM    7  N   UNL     1     -41.921 -51.987  11.822  1.00  0.00    -0.294 N 
ATOM      8  HN  UNL     1     -41.561 -52.867  11.455  1.00  0.00     0.187 HD
ENDROOT
BRANCH   4   9
HETATM    9  N   UNL     1     -41.381 -48.388  11.280  1.00  0.00    -0.364 N 
HETATM   10  C   UNL     1     -40.195 -47.698  11.776  1.00  0.00     0.124 C 
HETATM   11  C   UNL     1     -40.602 -46.296  12.221  1.00  0.00     0.022 C 
HETATM   12  C   UNL     1     -41.230 -45.530  11.063  1.00  0.00     0.035 C 
HETATM   13  C   UNL     1     -42.418 -46.291  10.449  1.00  0.00     0.138 C 
HETATM   14  C   UNL     1     -42.022 -47.752  10.118  1.00  0.00     0.156 C 
BRANCH  13  15
HETATM   15  O   UNL     1     -42.866 -45.655   9.244  1.00  0.00    -0.389 OA
HETATM   16  C   UNL     1     -44.196 -45.996   8.873  1.00  0.00     0.202 C 
ENDBRANCH  13  15
ENDBRANCH   4   9
BRANCH   1  17
HETATM   17  C   UNL     1     -43.387 -53.281  13.289  1.00  0.00     0.269 C 
HETATM   18  N   UNL     1     -44.736 -53.521  13.123  1.00  0.00    -0.356 N 
HETATM   19  H   UNL     1     -45.290 -52.830  12.624  1.00  0.00     0.162 HD
HETATM   20  O   UNL     1     -42.628 -54.078  13.831  1.00  0.00    -0.266 OA
BRANCH  18  21
HETATM   21  C   UNL     1     -45.352 -54.741  13.600  1.00  0.00     0.118 C 
HETATM   22  C   UNL     1     -46.332 -54.483  14.731  1.00  0.00     0.026 C 
ENDBRANCH  18  21
ENDBRANCH   1  17
TORSDOF 4
ENDMDL
MODEL 7
REMARK VINA RESULT:      -5.5      5.433      7.401
REMARK  4 active torsions:
REMARK  status: ('A' for Active; 'I' for Inactive)
REMARK    1  A    between atoms: C_2  and  N_3 
REMARK       I    between atoms: N_3  and  C_4 
REMARK    2  A    between atoms: C_4  and  C_6 
REMARK    3  A    between atoms: C_9  and  N_14 
REMARK    4  A    between atoms: C_18  and  O_20 
ROOT
HETATM    1  C   UNL     1     -40.374 -50.700  12.373  1.00  0.00     0.116 A 
HETATM    2  C   UNL     1     -40.933 -50.630  13.629  1.00  0.00     0.040 A 
HETATM    3  C   UNL     1     -42.084 -51.373  13.896  1.00  0.00     0.052 A 
HETATM    4  C   UNL     1     -42.676 -52.175  12.921  1.00  0.00     0.117 A 
HETATM    5  N   UNL     1     -42.075 -52.207  11.707  1.00  0.00    -0.285 N 
ATOM      6  HN  UNL     1     -42.481 -52.791  10.975  1.00  0.00     0.188 HD
HETATM    7  N   UNL     1     -40.920 -51.473  11.414  1.00  0.00    -0.294 N 
ATOM      8  HN  UNL     1     -40.497 -51.522  10.487  1.00  0.00     0.187 HD
ENDROOT
BRANCH   4   9
HETATM    9  N   UNL     1     -43.813 -52.920  13.167  1.00  0.00    -0.364 N 
HETATM   10  C   UNL     1     -45.008 -52.925  12.329  1.00  0.00     0.124 C 
HETATM   11  C   UNL     1     -46.195 -52.476  13.175  1.00  0.00     0.022 C 
HETATM   12  C   UNL     1     -46.372 -53.397  14.377  1.00  0.00     0.035 C 
HETATM   13  C   UNL     1     -45.087 -53.496  15.218  1.00  0.00     0.138 C 
HETATM   14  C   UNL     1     -43.868 -53.830  14.322  1.00  0.00     0.156 C 
BRANCH  13  15
HETATM   15  O   UNL     1     -45.209 -54.514  16.222  1.00  0.00    -0.389 OA
HETATM   16  C   UNL     1     -45.816 -54.064  17.426  1.00  0.00     0.202 C 
ENDBRANCH  13  15
ENDBRANCH   4   9
BRANCH   1  17
HETATM   17  C   UNL     1     -39.139 -49.929  12.065  1.00  0.00     0.269 C 
HETATM   18  N   UNL     1     -38.349 -50.400  11.036  1.00  0.00    -0.356 N 
HETATM   19  H   UNL     1     -38.671 -51.211  10.514  1.00  0.00     0.162 HD
HETATM   20  O   UNL     1     -38.861 -48.928  12.717  1.00  0.00    -0.266 OA
BRANCH  18  21
HETATM   21  C   UNL     1     -37.114 -49.741  10.668  1.00  0.00     0.118 C 
HETATM   22  C   UNL     1     -36.474 -50.367   9.441  1.00  0.00     0.026 C 
ENDBRANCH  18  21
ENDBRANCH   1  17
TORSDOF 4
ENDMDL
MODEL 8
REMARK VINA RESULT:      -5.4      4.915      5.545
REMARK  4 active torsions:
REMARK  status: ('A' for Active; 'I' for Inactive)
REMARK    1  A    between atoms: C_2  and  N_3 
REMARK       I    between atoms: N_3  and  C_4 
REMARK    2  A    between atoms: C_4  and  C_6 
REMARK    3  A    between atoms: C_9  and  N_14 
REMARK    4  A    between atoms: C_18  and  O_20 
ROOT
HETATM    1  C   UNL     1     -42.213 -49.171  11.581  1.00  0.00     0.116 A 
HETATM    2  C   UNL     1     -41.043 -49.777  11.977  1.00  0.00     0.040 A 
HETATM    3  C   UNL     1     -41.103 -50.811  12.913  1.00  0.00     0.052 A 
HETATM    4  C   UNL     1     -42.317 -51.235  13.453  1.00  0.00     0.117 A 
HETATM    5  N   UNL     1     -43.435 -50.604  13.017  1.00  0.00    -0.285 N 
ATOM      6  HN  UNL     1     -44.339 -50.898  13.389  1.00  0.00     0.188 HD
HETATM    7  N   UNL     1     -43.401 -49.566  12.079  1.00  0.00    -0.294 N 
ATOM      8  HN  UNL     1     -44.264 -49.115  11.777  1.00  0.00     0.187 HD
ENDROOT
BRANCH   4   9
HETATM    9  N   UNL     1     -42.398 -52.258  14.377  1.00  0.00    -0.364 N 
HETATM   10  C   UNL     1     -41.257 -52.993  14.914  1.00  0.00     0.124 C 
HETATM   11  C   UNL     1     -41.435 -54.472  14.585  1.00  0.00     0.022 C 
HETATM   12  C   UNL     1     -42.741 -54.995  15.172  1.00  0.00     0.035 C 
HETATM   13  C   UNL     1     -43.951 -54.165  14.708  1.00  0.00     0.138 C 
HETATM   14  C   UNL     1     -43.701 -52.653  14.934  1.00  0.00     0.156 C 
BRANCH  13  15
HETATM   15  O   UNL     1     -45.136 -54.545  15.422  1.00  0.00    -0.389 OA
HETATM   16  C   UNL     1     -46.319 -54.514  14.633  1.00  0.00     0.202 C 
ENDBRANCH  13  15
ENDBRANCH   4   9
BRANCH   1  17
HETATM   17  C   UNL     1     -42.180 -48.076  10.574  1.00  0.00     0.269 C 
HETATM   18  N   UNL     1     -43.230 -48.016   9.680  1.00  0.00    -0.356 N 
HETATM   19  H   UNL     1     -43.989 -48.684   9.784  1.00  0.00     0.162 HD
HETATM   20  O   UNL     1     -41.245 -47.281  10.561  1.00  0.00    -0.266 OA
BRANCH  18  21
HETATM   21  C   UNL     1     -43.285 -47.006   8.645  1.00  0.00     0.118 C 
HETATM   22  C   UNL     1     -44.362 -45.969   8.914  1.00  0.00     0.026 C 
ENDBRANCH  18  21
ENDBRANCH   1  17
TORSDOF 4
ENDMDL
MODEL 9
REMARK VINA RESULT:      -5.3      5.142      6.427
REMARK  4 active torsions:
REMARK  status: ('A' for Active; 'I' for Inactive)
REMARK    1  A    between atoms: C_2  and  N_3 
REMARK       I    between atoms: N_3  and  C_4 
REMARK    2  A    between atoms: C_4  and  C_6 
REMARK    3  A    between atoms: C_9  and  N_14 
REMARK    4  A    between atoms: C_18  and  O_20 
ROOT
HETATM    1  C   UNL     1     -40.898 -49.848  11.959  1.00  0.00     0.116 A 
HETATM    2  C   UNL     1     -40.252 -51.050  12.136  1.00  0.00     0.040 A 
HETATM    3  C   UNL     1     -41.010 -52.187  12.419  1.00  0.00     0.052 A 
HETATM    4  C   UNL     1     -42.400 -52.128  12.528  1.00  0.00     0.117 A 
HETATM    5  N   UNL     1     -42.978 -50.917  12.336  1.00  0.00    -0.285 N 
ATOM      6  HN  UNL     1     -43.993 -50.844  12.402  1.00  0.00     0.188 HD
HETATM    7  N   UNL     1     -42.240 -49.763  12.050  1.00  0.00    -0.294 N 
ATOM      8  HN  UNL     1     -42.711 -48.869  11.913  1.00  0.00     0.187 HD
ENDROOT
BRANCH   4   9
HETATM    9  N   UNL     1     -43.167 -53.242  12.804  1.00  0.00    -0.364 N 
HETATM   10  C   UNL     1     -44.526 -53.464  12.319  1.00  0.00     0.124 C 
HETATM   11  C   UNL     1     -45.449 -53.627  13.522  1.00  0.00     0.022 C 
HETATM   12  C   UNL     1     -44.988 -54.790  14.393  1.00  0.00     0.035 C 
HETATM   13  C   UNL     1     -43.520 -54.635  14.827  1.00  0.00     0.138 C 
HETATM   14  C   UNL     1     -42.613 -54.345  13.606  1.00  0.00     0.156 C 
BRANCH  13  15
HETATM   15  O   UNL     1     -43.049 -55.826  15.474  1.00  0.00    -0.389 OA
HETATM   16  C   UNL     1     -41.972 -55.604  16.375  1.00  0.00     0.202 C 
ENDBRANCH  13  15
ENDBRANCH   4   9
BRANCH   1  17
HETATM   17  C   UNL     1     -40.116 -48.622  11.643  1.00  0.00     0.269 C 
HETATM   18  N   UNL     1     -40.826 -47.523  11.206  1.00  0.00    -0.356 N 
HETATM   19  H   UNL     1     -41.840 -47.588  11.171  1.00  0.00     0.162 HD
HETATM   20  O   UNL     1     -38.895 -48.623  11.770  1.00  0.00    -0.266 OA
BRANCH  18  21
HETATM   21  C   UNL     1     -40.163 -46.287  10.849  1.00  0.00     0.118 C 
HETATM   22  C   UNL     1     -40.601 -45.127  11.725  1.00  0.00     0.026 C 
ENDBRANCH  18  21
ENDBRANCH   1  17
TORSDOF 4
ENDMDL
