MODEL 1
REMARK VINA RESULT:      -5.6      0.000      0.000
REMARK  4 active torsions:
REMARK  status: ('A' for Active; 'I' for Inactive)
REMARK    1  A    between atoms: N_6  and  C_7 
REMARK    2  A    between atoms: C_7  and  C_8 
REMARK       I    between atoms: C_8  and  N_10 
REMARK    3  A    between atoms: N_10  and  C_11 
REMARK    4  A    between atoms: C_11  and  C_12 
ROOT
HETATM    1  C   UNL     1     -41.399 -50.069  11.903  1.00  0.00     0.237 C 
HETATM    2  O   UNL     1     -42.318 -49.827  12.685  1.00  0.00    -0.272 OA
HETATM    3  N   UNL     1     -41.065 -51.347  11.513  1.00  0.00    -0.357 N 
HETATM    4  H   UNL     1     -40.179 -51.508  11.040  1.00  0.00     0.162 HD
ENDROOT
BRANCH   1   5
HETATM    5  C   UNL     1     -40.591 -48.971  11.260  1.00  0.00     0.251 C 
BRANCH   5   6
HETATM    6  N   UNL     1     -41.438 -47.970  10.644  1.00  0.00    -0.288 N 
HETATM    7  C   UNL     1     -41.249 -46.611  10.594  1.00  0.00     0.027 A 
HETATM    8  C   UNL     1     -42.389 -46.102  10.009  1.00  0.00     0.052 A 
HETATM    9  C   UNL     1     -40.035 -45.920  11.092  1.00  0.00     0.070 C 
HETATM   10  C   UNL     1     -43.212 -47.219   9.752  1.00  0.00     0.024 A 
HETATM   11  C   UNL     1     -44.566 -47.234   9.150  1.00  0.00     0.070 C 
HETATM   12  N   UNL     1     -42.629 -48.359  10.139  1.00  0.00    -0.303 N 
ATOM     13  HN  UNL     1     -43.000 -49.306  10.068  1.00  0.00     0.186 HD
ENDBRANCH   5   6
ENDBRANCH   1   5
BRANCH   3  14
HETATM   14  C   UNL     1     -41.779 -52.525  11.979  1.00  0.00     0.154 C 
BRANCH  14  15
HETATM   15  C   UNL     1     -40.867 -53.540  12.672  1.00  0.00     0.139 C 
HETATM   16  C   UNL     1     -41.461 -54.224  13.893  1.00  0.00     0.035 C 
HETATM   17  C   UNL     1     -40.294 -54.381  14.847  1.00  0.00     0.029 C 
HETATM   18  C   UNL     1     -39.115 -53.756  14.132  1.00  0.00     0.168 C 
HETATM   19  O   UNL     1     -39.666 -52.896  13.132  1.00  0.00    -0.384 OA
ENDBRANCH  14  15
ENDBRANCH   3  14
TORSDOF 4
ENDMDL
MODEL 2
REMARK VINA RESULT:      -5.3      2.348      6.714
REMARK  4 active torsions:
REMARK  status: ('A' for Active; 'I' for Inactive)
REMARK    1  A    between atoms: N_6  and  C_7 
REMARK    2  A    between atoms: C_7  and  C_8 
REMARK       I    between atoms: C_8  and  N_10 
REMARK    3  A    between atoms: N_10  and  C_11 
REMARK    4  A    between atoms: C_11  and  C_12 
ROOT
HETATM    1  C   UNL     1     -42.449 -49.621  12.466  1.00  0.00     0.237 C 
HETATM    2  O   UNL     1     -42.816 -49.131  13.534  1.00  0.00    -0.272 OA
HETATM    3  N   UNL     1     -42.442 -48.916  11.283  1.00  0.00    -0.357 N 
HETATM    4  H   UNL     1     -42.333 -49.417  10.405  1.00  0.00     0.162 HD
ENDROOT
BRANCH   1   5
HETATM    5  C   UNL     1     -41.920 -51.030  12.376  1.00  0.00     0.251 C 
BRANCH   5   6
HETATM    6  N   UNL     1     -42.936 -52.007  12.709  1.00  0.00    -0.288 N 
HETATM    7  C   UNL     1     -42.778 -53.352  12.938  1.00  0.00     0.027 A 
HETATM    8  C   UNL     1     -44.054 -53.852  13.093  1.00  0.00     0.052 A 
HETATM    9  C   UNL     1     -41.465 -54.040  12.990  1.00  0.00     0.070 C 
HETATM   10  C   UNL     1     -44.915 -52.745  12.930  1.00  0.00     0.024 A 
HETATM   11  C   UNL     1     -46.395 -52.727  12.977  1.00  0.00     0.070 C 
HETATM   12  N   UNL     1     -44.230 -51.620  12.698  1.00  0.00    -0.303 N 
ATOM     13  HN  UNL     1     -44.601 -50.682  12.546  1.00  0.00     0.186 HD
ENDBRANCH   5   6
ENDBRANCH   1   5
BRANCH   3  14
HETATM   14  C   UNL     1     -42.853 -47.524  11.193  1.00  0.00     0.154 C 
BRANCH  14  15
HETATM   15  C   UNL     1     -43.482 -47.175   9.842  1.00  0.00     0.139 C 
HETATM   16  C   UNL     1     -44.970 -47.466   9.721  1.00  0.00     0.035 C 
HETATM   17  C   UNL     1     -45.151 -47.931   8.290  1.00  0.00     0.029 C 
HETATM   18  C   UNL     1     -43.762 -47.907   7.689  1.00  0.00     0.168 C 
HETATM   19  O   UNL     1     -42.851 -47.927   8.790  1.00  0.00    -0.384 OA
ENDBRANCH  14  15
ENDBRANCH   3  14
TORSDOF 4
ENDMDL
MODEL 3
REMARK VINA RESULT:      -5.3      2.514      6.286
REMARK  4 active torsions:
REMARK  status: ('A' for Active; 'I' for Inactive)
REMARK    1  A    between atoms: N_6  and  C_7 
REMARK    2  A    between atoms: C_7  and  C_8 
REMARK       I    between atoms: C_8  and  N_10 
REMARK    3  A    between atoms: N_10  and  C_11 
REMARK    4  A    between atoms: C_11  and  C_12 
ROOT
HETATM    1  C   UNL     1     -41.437 -51.542  12.095  1.00  0.00     0.237 C 
HETATM    2  O   UNL     1     -42.318 -50.999  12.761  1.00  0.00    -0.272 OA
HETATM    3  N   UNL     1     -40.606 -50.847  11.244  1.00  0.00    -0.357 N 
HETATM    4  H   UNL     1     -40.044 -51.359  10.569  1.00  0.00     0.162 HD
ENDROOT
BRANCH   1   5
HETATM    5  C   UNL     1     -41.156 -53.020  12.199  1.00  0.00     0.251 C 
BRANCH   5   6
HETATM    6  N   UNL     1     -42.063 -53.674  13.120  1.00  0.00    -0.288 N 
HETATM    7  C   UNL     1     -41.768 -54.280  14.317  1.00  0.00     0.027 A 
HETATM    8  C   UNL     1     -42.949 -54.852  14.741  1.00  0.00     0.052 A 
HETATM    9  C   UNL     1     -40.425 -54.269  14.947  1.00  0.00     0.070 C 
HETATM   10  C   UNL     1     -43.895 -54.553  13.738  1.00  0.00     0.024 A 
HETATM   11  C   UNL     1     -45.321 -54.949  13.683  1.00  0.00     0.070 C 
HETATM   12  N   UNL     1     -43.353 -53.833  12.750  1.00  0.00    -0.303 N 
ATOM     13  HN  UNL     1     -43.809 -53.483  11.908  1.00  0.00     0.186 HD
ENDBRANCH   5   6
ENDBRANCH   1   5
BRANCH   3  14
HETATM   14  C   UNL     1     -40.686 -49.406  11.068  1.00  0.00     0.154 C 
BRANCH  14  15
HETATM   15  C   UNL     1     -39.585 -48.652  11.817  1.00  0.00     0.139 C 
HETATM   16  C   UNL     1     -38.269 -49.400  11.966  1.00  0.00     0.035 C 
HETATM   17  C   UNL     1     -37.761 -49.006  13.338  1.00  0.00     0.029 C 
HETATM   18  C   UNL     1     -38.821 -48.085  13.902  1.00  0.00     0.168 C 
HETATM   19  O   UNL     1     -40.013 -48.347  13.156  1.00  0.00    -0.384 OA
ENDBRANCH  14  15
ENDBRANCH   3  14
TORSDOF 4
ENDMDL
MODEL 4
REMARK VINA RESULT:      -5.3      4.455      6.558
REMARK  4 active torsions:
REMARK  status: ('A' for Active; 'I' for Inactive)
REMARK    1  A    between atoms: N_6  and  C_7 
REMARK    2  A    between atoms: C_7  and  C_8 
REMARK       I    between atoms: C_8  and  N_10 
REMARK    3  A    between atoms: N_10  and  C_11 
REMARK    4  A    between atoms: C_11  and  C_12 
ROOT
HETATM    1  C   UNL     1     -44.123 -54.673  14.095  1.00  0.00     0.237 C 
HETATM    2  O   UNL     1     -43.666 -55.334  15.027  1.00  0.00    -0.272 OA
HETATM    3  N   UNL     1     -43.327 -54.000  13.194  1.00  0.00    -0.357 N 
HETATM    4  H   UNL     1     -43.747 -53.308  12.579  1.00  0.00     0.162 HD
ENDROOT
BRANCH   1   5
HETATM    5  C   UNL     1     -45.605 -54.589  13.829  1.00  0.00     0.251 C 
BRANCH   5   6
HETATM    6  N   UNL     1     -46.197 -53.424  14.454  1.00  0.00    -0.288 N 
HETATM    7  C   UNL     1     -46.569 -52.241  13.865  1.00  0.00     0.027 A 
HETATM    8  C   UNL     1     -46.963 -51.421  14.900  1.00  0.00     0.052 A 
HETATM    9  C   UNL     1     -46.523 -51.987  12.403  1.00  0.00     0.070 C 
HETATM   10  C   UNL     1     -46.785 -52.184  16.074  1.00  0.00     0.024 A 
HETATM   11  C   UNL     1     -47.037 -51.773  17.475  1.00  0.00     0.070 C 
HETATM   12  N   UNL     1     -46.319 -53.407  15.799  1.00  0.00    -0.303 N 
ATOM     13  HN  UNL     1     -46.104 -54.156  16.456  1.00  0.00     0.186 HD
ENDBRANCH   5   6
ENDBRANCH   1   5
BRANCH   3  14
HETATM   14  C   UNL     1     -41.875 -54.025  13.254  1.00  0.00     0.154 C 
BRANCH  14  15
HETATM   15  C   UNL     1     -41.258 -52.626  13.329  1.00  0.00     0.139 C 
HETATM   16  C   UNL     1     -41.962 -51.559  12.504  1.00  0.00     0.035 C 
HETATM   17  C   UNL     1     -40.842 -50.678  11.988  1.00  0.00     0.029 C 
HETATM   18  C   UNL     1     -39.571 -51.304  12.520  1.00  0.00     0.168 C 
HETATM   19  O   UNL     1     -39.901 -52.654  12.853  1.00  0.00    -0.384 OA
ENDBRANCH  14  15
ENDBRANCH   3  14
TORSDOF 4
ENDMDL
MODEL 5
REMARK VINA RESULT:      -5.2      2.505      3.328
REMARK  4 active torsions:
REMARK  status: ('A' for Active; 'I' for Inactive)
REMARK    1  A    between atoms: N_6  and  C_7 
REMARK    2  A    between atoms: C_7  and  C_8 
REMARK       I    between atoms: C_8  and  N_10 
REMARK    3  A    between atoms: N_10  and  C_11 
REMARK    4  A    between atoms: C_11  and  C_12 
ROOT
HETATM    1  C   UNL     1     -41.670 -49.793  12.216  1.00  0.00     0.237 C 
HETATM    2  O   UNL     1     -41.753 -49.127  13.248  1.00  0.00    -0.272 OA
HETATM    3  N   UNL     1     -42.227 -51.046  12.086  1.00  0.00    -0.357 N 
HETATM    4  H   UNL     1     -41.956 -51.633  11.302  1.00  0.00     0.162 HD
ENDROOT
BRANCH   1   5
HETATM    5  C   UNL     1     -40.991 -49.262  10.979  1.00  0.00     0.251 C 
BRANCH   5   6
HETATM    6  N   UNL     1     -41.631 -48.058  10.490  1.00  0.00    -0.288 N 
HETATM    7  C   UNL     1     -41.255 -46.753  10.695  1.00  0.00     0.027 A 
HETATM    8  C   UNL     1     -42.253 -45.988  10.129  1.00  0.00     0.052 A 
HETATM    9  C   UNL     1     -40.011 -46.344  11.393  1.00  0.00     0.070 C 
HETATM   10  C   UNL     1     -43.192 -46.910   9.620  1.00  0.00     0.024 A 
HETATM   11  C   UNL     1     -44.470 -46.623   8.929  1.00  0.00     0.070 C 
HETATM   12  N   UNL     1     -42.809 -48.173   9.840  1.00  0.00    -0.303 N 
ATOM     13  HN  UNL     1     -43.297 -49.029   9.577  1.00  0.00     0.186 HD
ENDBRANCH   5   6
ENDBRANCH   1   5
BRANCH   3  14
HETATM   14  C   UNL     1     -42.977 -51.688  13.154  1.00  0.00     0.154 C 
BRANCH  14  15
HETATM   15  C   UNL     1     -44.450 -51.271  13.181  1.00  0.00     0.139 C 
HETATM   16  C   UNL     1     -45.015 -50.967  14.559  1.00  0.00     0.035 C 
HETATM   17  C   UNL     1     -46.441 -51.478  14.507  1.00  0.00     0.029 C 
HETATM   18  C   UNL     1     -46.598 -52.066  13.121  1.00  0.00     0.168 C 
HETATM   19  O   UNL     1     -45.274 -52.321  12.644  1.00  0.00    -0.384 OA
ENDBRANCH  14  15
ENDBRANCH   3  14
TORSDOF 4
ENDMDL
MODEL 6
REMARK VINA RESULT:      -5.2      3.592      5.474
REMARK  4 active torsions:
REMARK  status: ('A' for Active; 'I' for Inactive)
REMARK    1  A    between atoms: N_6  and  C_7 
REMARK    2  A    between atoms: C_7  and  C_8 
REMARK       I    between atoms: C_8  and  N_10 
REMARK    3  A    between atoms: N_10  and  C_11 
REMARK    4  A    between atoms: C_11  and  C_12 
ROOT
HETATM    1  C   UNL     1     -41.188 -52.094  12.003  1.00  0.00     0.237 C 
HETATM    2  O   UNL     1     -40.601 -53.170  12.113  1.00  0.00    -0.272 OA
HETATM    3  N   UNL     1     -42.560 -51.981  12.048  1.00  0.00    -0.357 N 
HETATM    4  H   UNL     1     -42.999 -51.115  11.746  1.00  0.00     0.162 HD
ENDROOT
BRANCH   1   5
HETATM    5  C   UNL     1     -40.442 -50.791  11.863  1.00  0.00     0.251 C 
BRANCH   5   6
HETATM    6  N   UNL     1     -39.364 -50.683  12.824  1.00  0.00    -0.288 N 
HETATM    7  C   UNL     1     -38.053 -50.348  12.596  1.00  0.00     0.027 A 
HETATM    8  C   UNL     1     -37.415 -50.506  13.808  1.00  0.00     0.052 A 
HETATM    9  C   UNL     1     -37.520 -49.916  11.280  1.00  0.00     0.070 C 
HETATM   10  C   UNL     1     -38.412 -50.949  14.704  1.00  0.00     0.024 A 
HETATM   11  C   UNL     1     -38.262 -51.293  16.136  1.00  0.00     0.070 C 
HETATM   12  N   UNL     1     -39.602 -51.054  14.101  1.00  0.00    -0.303 N 
ATOM     13  HN  UNL     1     -40.487 -51.349  14.513  1.00  0.00     0.186 HD
ENDBRANCH   5   6
ENDBRANCH   1   5
BRANCH   3  14
HETATM   14  C   UNL     1     -43.438 -53.124  12.246  1.00  0.00     0.154 C 
BRANCH  14  15
HETATM   15  C   UNL     1     -44.553 -52.850  13.257  1.00  0.00     0.139 C 
HETATM   16  C   UNL     1     -45.916 -52.543  12.657  1.00  0.00     0.035 C 
HETATM   17  C   UNL     1     -46.512 -51.499  13.580  1.00  0.00     0.029 C 
HETATM   18  C   UNL     1     -45.451 -51.251  14.632  1.00  0.00     0.168 C 
HETATM   19  O   UNL     1     -44.219 -51.710  14.069  1.00  0.00    -0.384 OA
ENDBRANCH  14  15
ENDBRANCH   3  14
TORSDOF 4
ENDMDL
MODEL 7
REMARK VINA RESULT:      -5.1      1.822      6.504
REMARK  4 active torsions:
REMARK  status: ('A' for Active; 'I' for Inactive)
REMARK    1  A    between atoms: N_6  and  C_7 
REMARK    2  A    between atoms: C_7  and  C_8 
REMARK       I    between atoms: C_8  and  N_10 
REMARK    3  A    between atoms: N_10  and  C_11 
REMARK    4  A    between atoms: C_11  and  C_12 
ROOT
HETATM    1  C   UNL     1     -40.386 -48.972  11.726  1.00  0.00     0.237 C 
HETATM    2  O   UNL     1     -40.157 -48.530  12.852  1.00  0.00    -0.272 OA
HETATM    3  N   UNL     1     -40.881 -48.194  10.703  1.00  0.00    -0.357 N 
HETATM    4  H   UNL     1     -41.246 -48.643   9.867  1.00  0.00     0.162 HD
ENDROOT
BRANCH   1   5
HETATM    5  C   UNL     1     -40.089 -50.403  11.356  1.00  0.00     0.251 C 
BRANCH   5   6
HETATM    6  N   UNL     1     -40.855 -51.335  12.158  1.00  0.00    -0.288 N 
HETATM    7  C   UNL     1     -40.433 -52.079  13.232  1.00  0.00     0.027 A 
HETATM    8  C   UNL     1     -41.498 -52.890  13.561  1.00  0.00     0.052 A 
HETATM    9  C   UNL     1     -39.087 -51.966  13.846  1.00  0.00     0.070 C 
HETATM   10  C   UNL     1     -42.511 -52.578  12.629  1.00  0.00     0.024 A 
HETATM   11  C   UNL     1     -43.862 -53.175  12.517  1.00  0.00     0.070 C 
HETATM   12  N   UNL     1     -42.117 -51.627  11.774  1.00  0.00    -0.303 N 
ATOM     13  HN  UNL     1     -42.649 -51.217  11.008  1.00  0.00     0.186 HD
ENDBRANCH   5   6
ENDBRANCH   1   5
BRANCH   3  14
HETATM   14  C   UNL     1     -41.163 -46.776  10.858  1.00  0.00     0.154 C 
BRANCH  14  15
HETATM   15  C   UNL     1     -42.620 -46.422  10.554  1.00  0.00     0.139 C 
HETATM   16  C   UNL     1     -43.567 -47.606  10.431  1.00  0.00     0.035 C 
HETATM   17  C   UNL     1     -44.534 -47.207   9.335  1.00  0.00     0.029 C 
HETATM   18  C   UNL     1     -44.071 -45.840   8.879  1.00  0.00     0.168 C 
HETATM   19  O   UNL     1     -42.711 -45.719   9.302  1.00  0.00    -0.384 OA
ENDBRANCH  14  15
ENDBRANCH   3  14
TORSDOF 4
ENDMDL
MODEL 8
REMARK VINA RESULT:      -5.1      4.675      5.538
REMARK  4 active torsions:
REMARK  status: ('A' for Active; 'I' for Inactive)
REMARK    1  A    between atoms: N_6  and  C_7 
REMARK    2  A    between atoms: C_7  and  C_8 
REMARK       I    between atoms: C_8  and  N_10 
REMARK    3  A    between atoms: N_10  and  C_11 
REMARK    4  A    between atoms: C_11  and  C_12 
ROOT
HETATM    1  C   UNL     1     -43.028 -52.943  12.568  1.00  0.00     0.237 C 
HETATM    2  O   UNL     1     -42.705 -51.758  12.651  1.00  0.00    -0.272 OA
HETATM    3  N   UNL     1     -42.117 -53.974  12.639  1.00  0.00    -0.357 N 
HETATM    4  H   UNL     1     -42.401 -54.909  12.358  1.00  0.00     0.162 HD
ENDROOT
BRANCH   1   5
HETATM    5  C   UNL     1     -44.469 -53.369  12.436  1.00  0.00     0.251 C 
BRANCH   5   6
HETATM    6  N   UNL     1     -45.331 -52.630  13.335  1.00  0.00    -0.288 N 
HETATM    7  C   UNL     1     -46.430 -51.868  13.022  1.00  0.00     0.027 A 
HETATM    8  C   UNL     1     -46.822 -51.282  14.208  1.00  0.00     0.052 A 
HETATM    9  C   UNL     1     -47.007 -51.757  11.660  1.00  0.00     0.070 C 
HETATM   10  C   UNL     1     -45.900 -51.735  15.175  1.00  0.00     0.024 A 
HETATM   11  C   UNL     1     -45.847 -51.393  16.615  1.00  0.00     0.070 C 
HETATM   12  N   UNL     1     -44.991 -52.559  14.640  1.00  0.00    -0.303 N 
ATOM     13  HN  UNL     1     -44.218 -53.027  15.111  1.00  0.00     0.186 HD
ENDBRANCH   5   6
ENDBRANCH   1   5
BRANCH   3  14
HETATM   14  C   UNL     1     -40.693 -53.754  12.833  1.00  0.00     0.154 C 
BRANCH  14  15
HETATM   15  C   UNL     1     -40.260 -53.911  14.293  1.00  0.00     0.139 C 
HETATM   16  C   UNL     1     -38.950 -54.653  14.508  1.00  0.00     0.035 C 
HETATM   17  C   UNL     1     -39.169 -55.450  15.778  1.00  0.00     0.029 C 
HETATM   18  C   UNL     1     -40.590 -55.142  16.197  1.00  0.00     0.168 C 
HETATM   19  O   UNL     1     -41.252 -54.650  15.029  1.00  0.00    -0.384 OA
ENDBRANCH  14  15
ENDBRANCH   3  14
TORSDOF 4
ENDMDL
MODEL 9
REMARK VINA RESULT:      -5.1      2.862      7.229
REMARK  4 active torsions:
REMARK  status: ('A' for Active; 'I' for Inactive)
REMARK    1  A    between atoms: N_6  and  C_7 
REMARK    2  A    between atoms: C_7  and  C_8 
REMARK       I    between atoms: C_8  and  N_10 
REMARK    3  A    between atoms: N_10  and  C_11 
REMARK    4  A    between atoms: C_11  and  C_12 
ROOT
HETATM    1  C   UNL     1     -43.040 -50.237  12.722  1.00  0.00     0.237 C 
HETATM    2  O   UNL     1     -42.109 -50.986  12.424  1.00  0.00    -0.272 OA
HETATM    3  N   UNL     1     -43.182 -48.973  12.195  1.00  0.00    -0.357 N 
HETATM    4  H   UNL     1     -43.837 -48.325  12.625  1.00  0.00     0.162 HD
ENDROOT
BRANCH   1   5
HETATM    5  C   UNL     1     -44.142 -50.670  13.656  1.00  0.00     0.251 C 
BRANCH   5   6
HETATM    6  N   UNL     1     -44.326 -52.106  13.640  1.00  0.00    -0.288 N 
HETATM    7  C   UNL     1     -45.354 -52.824  13.079  1.00  0.00     0.027 A 
HETATM    8  C   UNL     1     -45.128 -54.135  13.441  1.00  0.00     0.052 A 
HETATM    9  C   UNL     1     -46.440 -52.227  12.265  1.00  0.00     0.070 C 
HETATM   10  C   UNL     1     -43.956 -54.113  14.227  1.00  0.00     0.024 A 
HETATM   11  C   UNL     1     -43.282 -55.253  14.890  1.00  0.00     0.070 C 
HETATM   12  N   UNL     1     -43.467 -52.874  14.345  1.00  0.00    -0.303 N 
ATOM     13  HN  UNL     1     -42.635 -52.576  14.853  1.00  0.00     0.186 HD
ENDBRANCH   5   6
ENDBRANCH   1   5
BRANCH   3  14
HETATM   14  C   UNL     1     -42.252 -48.414  11.227  1.00  0.00     0.154 C 
BRANCH  14  15
HETATM   15  C   UNL     1     -42.944 -47.565  10.158  1.00  0.00     0.139 C 
HETATM   16  C   UNL     1     -44.463 -47.547  10.223  1.00  0.00     0.035 C 
HETATM   17  C   UNL     1     -44.905 -47.512   8.774  1.00  0.00     0.029 C 
HETATM   18  C   UNL     1     -43.623 -47.541   7.969  1.00  0.00     0.168 C 
HETATM   19  O   UNL     1     -42.615 -48.054   8.845  1.00  0.00    -0.384 OA
ENDBRANCH  14  15
ENDBRANCH   3  14
TORSDOF 4
ENDMDL
