MODEL 1
REMARK VINA RESULT:      -5.7      0.000      0.000
REMARK  6 active torsions:
REMARK  status: ('A' for Active; 'I' for Inactive)
REMARK    1  A    between atoms: C_2  and  N_4 
REMARK    2  A    between atoms: C_9  and  C_10 
REMARK    3  A    between atoms: C_10  and  C_11 
REMARK    4  A    between atoms: C_11  and  N_12 
REMARK    5  A    between atoms: N_12  and  C_13 
REMARK    6  A    between atoms: C_13  and  C_14 
ROOT
HETATM    1  C   UNL     1     -41.773 -52.862  13.171  1.00  0.00     0.277 C 
ENDROOT
BRANCH   1   2
HETATM    2  C   UNL     1     -40.635 -52.346  12.279  1.00  0.00     0.106 C 
BRANCH   2   3
HETATM    3  C   UNL     1     -40.822 -50.900  11.926  1.00  0.00     0.088 A 
HETATM    4  N   UNL     1     -39.796 -49.987  11.771  1.00  0.00    -0.289 N 
HETATM    5  C   UNL     1     -40.358 -48.771  11.471  1.00  0.00     0.114 A 
HETATM    6  C   UNL     1     -41.713 -48.991  11.465  1.00  0.00     0.107 A 
HETATM    7  N   UNL     1     -41.984 -50.303  11.756  1.00  0.00    -0.354 N 
ATOM      8  HN  UNL     1     -42.907 -50.734  11.826  1.00  0.00     0.166 HD
BRANCH   4   9
HETATM    9  C   UNL     1     -38.379 -50.241  11.944  1.00  0.00     0.465 C 
HETATM   10  F   UNL     1     -37.694 -49.994  10.800  1.00  0.00    -0.191 F 
HETATM   11  F   UNL     1     -37.836 -49.441  12.902  1.00  0.00    -0.191 F 
ENDBRANCH   4   9
ENDBRANCH   2   3
ENDBRANCH   1   2
BRANCH   1  12
HETATM   12  N   UNL     1     -42.663 -53.791  12.437  1.00  0.00     0.084 N 
HETATM   13  H   UNL     1     -42.636 -54.696  12.907  1.00  0.00     0.315 HD
BRANCH  12  14
HETATM   14  C   UNL     1     -44.035 -53.272  12.456  1.00  0.00     0.274 C 
BRANCH  14  15
HETATM   15  C   UNL     1     -44.525 -52.757  13.833  1.00  0.00     0.022 C 
HETATM   16  C   UNL     1     -45.753 -53.622  14.276  1.00  0.00     0.015 C 
HETATM   17  C   UNL     1     -46.931 -52.617  14.209  1.00  0.00     0.009 C 
HETATM   18  C   UNL     1     -46.491 -51.597  13.153  1.00  0.00     0.017 C 
HETATM   19  C   UNL     1     -46.786 -51.736  15.419  1.00  0.00    -0.026 C 
HETATM   20  C   UNL     1     -45.145 -51.331  13.831  1.00  0.00     0.014 C 
HETATM   21  C   UNL     1     -45.685 -50.988  15.217  1.00  0.00    -0.025 C 
ENDBRANCH  14  15
ENDBRANCH  12  14
ENDBRANCH   1  12
TORSDOF 6
ENDMDL
MODEL 2
REMARK VINA RESULT:      -5.6      1.793      2.336
REMARK  6 active torsions:
REMARK  status: ('A' for Active; 'I' for Inactive)
REMARK    1  A    between atoms: C_2  and  N_4 
REMARK    2  A    between atoms: C_9  and  C_10 
REMARK    3  A    between atoms: C_10  and  C_11 
REMARK    4  A    between atoms: C_11  and  N_12 
REMARK    5  A    between atoms: N_12  and  C_13 
REMARK    6  A    between atoms: C_13  and  C_14 
ROOT
HETATM    1  C   UNL     1     -41.411 -52.531  11.762  1.00  0.00     0.277 C 
ENDROOT
BRANCH   1   2
HETATM    2  C   UNL     1     -41.177 -51.081  12.211  1.00  0.00     0.106 C 
BRANCH   2   3
HETATM    3  C   UNL     1     -39.732 -50.693  12.093  1.00  0.00     0.088 A 
HETATM    4  N   UNL     1     -38.768 -50.943  13.050  1.00  0.00    -0.289 N 
HETATM    5  C   UNL     1     -37.581 -50.425  12.595  1.00  0.00     0.114 A 
HETATM    6  C   UNL     1     -37.873 -49.869  11.374  1.00  0.00     0.107 A 
HETATM    7  N   UNL     1     -39.203 -50.034  11.083  1.00  0.00    -0.354 N 
ATOM      8  HN  UNL     1     -39.688 -49.709  10.246  1.00  0.00     0.166 HD
BRANCH   4   9
HETATM    9  C   UNL     1     -38.970 -51.586  14.334  1.00  0.00     0.465 C 
HETATM   10  F   UNL     1     -39.053 -52.933  14.199  1.00  0.00    -0.191 F 
HETATM   11  F   UNL     1     -37.938 -51.345  15.187  1.00  0.00    -0.191 F 
ENDBRANCH   4   9
ENDBRANCH   2   3
ENDBRANCH   1   2
BRANCH   1  12
HETATM   12  N   UNL     1     -42.825 -52.935  11.937  1.00  0.00     0.084 N 
HETATM   13  H   UNL     1     -43.019 -53.701  11.292  1.00  0.00     0.315 HD
BRANCH  12  14
HETATM   14  C   UNL     1     -43.038 -53.390  13.314  1.00  0.00     0.274 C 
BRANCH  14  15
HETATM   15  C   UNL     1     -44.486 -53.228  13.844  1.00  0.00     0.022 C 
HETATM   16  C   UNL     1     -45.389 -52.724  12.668  1.00  0.00     0.015 C 
HETATM   17  C   UNL     1     -45.762 -51.285  13.104  1.00  0.00     0.009 C 
HETATM   18  C   UNL     1     -44.595 -50.854  14.000  1.00  0.00     0.017 C 
HETATM   19  C   UNL     1     -46.801 -51.439  14.180  1.00  0.00    -0.026 C 
HETATM   20  C   UNL     1     -44.692 -52.096  14.890  1.00  0.00     0.014 C 
HETATM   21  C   UNL     1     -46.171 -51.968  15.245  1.00  0.00    -0.025 C 
ENDBRANCH  14  15
ENDBRANCH  12  14
ENDBRANCH   1  12
TORSDOF 6
ENDMDL
MODEL 3
REMARK VINA RESULT:      -5.5      3.110      3.963
REMARK  6 active torsions:
REMARK  status: ('A' for Active; 'I' for Inactive)
REMARK    1  A    between atoms: C_2  and  N_4 
REMARK    2  A    between atoms: C_9  and  C_10 
REMARK    3  A    between atoms: C_10  and  C_11 
REMARK    4  A    between atoms: C_11  and  N_12 
REMARK    5  A    between atoms: N_12  and  C_13 
REMARK    6  A    between atoms: C_13  and  C_14 
ROOT
HETATM    1  C   UNL     1     -42.194 -49.318  11.860  1.00  0.00     0.277 C 
ENDROOT
BRANCH   1   2
HETATM    2  C   UNL     1     -43.092 -48.089  12.065  1.00  0.00     0.106 C 
BRANCH   2   3
HETATM    3  C   UNL     1     -43.494 -47.474  10.756  1.00  0.00     0.088 A 
HETATM    4  N   UNL     1     -42.923 -46.341  10.210  1.00  0.00    -0.289 N 
HETATM    5  C   UNL     1     -43.563 -46.078   9.025  1.00  0.00     0.114 A 
HETATM    6  C   UNL     1     -44.512 -47.063   8.900  1.00  0.00     0.107 A 
HETATM    7  N   UNL     1     -44.463 -47.910   9.978  1.00  0.00    -0.354 N 
ATOM      8  HN  UNL     1     -45.061 -48.720  10.144  1.00  0.00     0.166 HD
BRANCH   4   9
HETATM    9  C   UNL     1     -41.872 -45.532  10.798  1.00  0.00     0.465 C 
HETATM   10  F   UNL     1     -40.832 -45.381   9.940  1.00  0.00    -0.191 F 
HETATM   11  F   UNL     1     -42.309 -44.280  11.101  1.00  0.00    -0.191 F 
ENDBRANCH   4   9
ENDBRANCH   2   3
ENDBRANCH   1   2
BRANCH   1  12
HETATM   12  N   UNL     1     -42.771 -50.527  12.491  1.00  0.00     0.084 N 
HETATM   13  H   UNL     1     -42.022 -51.020  12.978  1.00  0.00     0.315 HD
BRANCH  12  14
HETATM   14  C   UNL     1     -43.802 -50.132  13.455  1.00  0.00     0.274 C 
BRANCH  14  15
HETATM   15  C   UNL     1     -44.470 -51.303  14.221  1.00  0.00     0.022 C 
HETATM   16  C   UNL     1     -44.300 -52.609  13.373  1.00  0.00     0.015 C 
HETATM   17  C   UNL     1     -45.749 -52.930  12.929  1.00  0.00     0.009 C 
HETATM   18  C   UNL     1     -46.445 -51.565  12.916  1.00  0.00     0.017 C 
HETATM   19  C   UNL     1     -46.433 -53.497  14.143  1.00  0.00    -0.026 C 
HETATM   20  C   UNL     1     -46.018 -51.224  14.346  1.00  0.00     0.014 C 
HETATM   21  C   UNL     1     -46.559 -52.483  15.019  1.00  0.00    -0.025 C 
ENDBRANCH  14  15
ENDBRANCH  12  14
ENDBRANCH   1  12
TORSDOF 6
ENDMDL
MODEL 4
REMARK VINA RESULT:      -5.5      1.364      1.963
REMARK  6 active torsions:
REMARK  status: ('A' for Active; 'I' for Inactive)
REMARK    1  A    between atoms: C_2  and  N_4 
REMARK    2  A    between atoms: C_9  and  C_10 
REMARK    3  A    between atoms: C_10  and  C_11 
REMARK    4  A    between atoms: C_11  and  N_12 
REMARK    5  A    between atoms: N_12  and  C_13 
REMARK    6  A    between atoms: C_13  and  C_14 
ROOT
HETATM    1  C   UNL     1     -41.618 -52.655  12.167  1.00  0.00     0.277 C 
ENDROOT
BRANCH   1   2
HETATM    2  C   UNL     1     -40.923 -51.291  12.044  1.00  0.00     0.106 C 
BRANCH   2   3
HETATM    3  C   UNL     1     -39.753 -51.181  12.976  1.00  0.00     0.088 A 
HETATM    4  N   UNL     1     -38.583 -50.500  12.696  1.00  0.00    -0.289 N 
HETATM    5  C   UNL     1     -37.748 -50.639  13.776  1.00  0.00     0.114 A 
HETATM    6  C   UNL     1     -38.443 -51.412  14.674  1.00  0.00     0.107 A 
HETATM    7  N   UNL     1     -39.672 -51.744  14.164  1.00  0.00    -0.354 N 
ATOM      8  HN  UNL     1     -40.385 -52.317  14.617  1.00  0.00     0.166 HD
BRANCH   4   9
HETATM    9  C   UNL     1     -38.260 -49.807  11.464  1.00  0.00     0.465 C 
HETATM   10  F   UNL     1     -38.741 -48.538  11.476  1.00  0.00    -0.191 F 
HETATM   11  F   UNL     1     -36.916 -49.709  11.278  1.00  0.00    -0.191 F 
ENDBRANCH   4   9
ENDBRANCH   2   3
ENDBRANCH   1   2
BRANCH   1  12
HETATM   12  N   UNL     1     -43.019 -52.599  11.692  1.00  0.00     0.084 N 
HETATM   13  H   UNL     1     -43.038 -52.913  10.721  1.00  0.00     0.315 HD
BRANCH  12  14
HETATM   14  C   UNL     1     -43.850 -53.489  12.509  1.00  0.00     0.274 C 
BRANCH  14  15
HETATM   15  C   UNL     1     -44.389 -52.864  13.821  1.00  0.00     0.022 C 
HETATM   16  C   UNL     1     -45.699 -53.621  14.227  1.00  0.00     0.015 C 
HETATM   17  C   UNL     1     -46.800 -52.548  14.028  1.00  0.00     0.009 C 
HETATM   18  C   UNL     1     -46.226 -51.622  12.950  1.00  0.00     0.017 C 
HETATM   19  C   UNL     1     -46.672 -51.609  15.195  1.00  0.00    -0.026 C 
HETATM   20  C   UNL     1     -44.910 -51.403  13.701  1.00  0.00     0.014 C 
HETATM   21  C   UNL     1     -45.512 -50.947  15.027  1.00  0.00    -0.025 C 
ENDBRANCH  14  15
ENDBRANCH  12  14
ENDBRANCH   1  12
TORSDOF 6
ENDMDL
MODEL 5
REMARK VINA RESULT:      -5.4      2.923      3.757
REMARK  6 active torsions:
REMARK  status: ('A' for Active; 'I' for Inactive)
REMARK    1  A    between atoms: C_2  and  N_4 
REMARK    2  A    between atoms: C_9  and  C_10 
REMARK    3  A    between atoms: C_10  and  C_11 
REMARK    4  A    between atoms: C_11  and  N_12 
REMARK    5  A    between atoms: N_12  and  C_13 
REMARK    6  A    between atoms: C_13  and  C_14 
ROOT
HETATM    1  C   UNL     1     -41.658 -49.614  12.490  1.00  0.00     0.277 C 
ENDROOT
BRANCH   1   2
HETATM    2  C   UNL     1     -41.110 -49.296  11.091  1.00  0.00     0.106 C 
BRANCH   2   3
HETATM    3  C   UNL     1     -40.960 -47.818  10.880  1.00  0.00     0.088 A 
HETATM    4  N   UNL     1     -41.946 -46.990  10.377  1.00  0.00    -0.289 N 
HETATM    5  C   UNL     1     -41.433 -45.719  10.312  1.00  0.00     0.114 A 
HETATM    6  C   UNL     1     -40.143 -45.825  10.772  1.00  0.00     0.107 A 
HETATM    7  N   UNL     1     -39.864 -47.125  11.109  1.00  0.00    -0.354 N 
ATOM      8  HN  UNL     1     -38.979 -47.484  11.469  1.00  0.00     0.166 HD
BRANCH   4   9
HETATM    9  C   UNL     1     -43.270 -47.388   9.940  1.00  0.00     0.465 C 
HETATM   10  F   UNL     1     -44.047 -47.743  10.994  1.00  0.00    -0.191 F 
HETATM   11  F   UNL     1     -43.918 -46.374   9.306  1.00  0.00    -0.191 F 
ENDBRANCH   4   9
ENDBRANCH   2   3
ENDBRANCH   1   2
BRANCH   1  12
HETATM   12  N   UNL     1     -42.775 -50.585  12.430  1.00  0.00     0.084 N 
HETATM   13  H   UNL     1     -42.422 -51.494  12.729  1.00  0.00     0.315 HD
BRANCH  12  14
HETATM   14  C   UNL     1     -43.846 -50.155  13.335  1.00  0.00     0.274 C 
BRANCH  14  15
HETATM   15  C   UNL     1     -44.501 -51.289  14.165  1.00  0.00     0.022 C 
HETATM   16  C   UNL     1     -44.268 -52.646  13.418  1.00  0.00     0.015 C 
HETATM   17  C   UNL     1     -45.694 -53.043  12.960  1.00  0.00     0.009 C 
HETATM   18  C   UNL     1     -46.429 -51.705  12.830  1.00  0.00     0.017 C 
HETATM   19  C   UNL     1     -46.395 -53.544  14.192  1.00  0.00    -0.026 C 
HETATM   20  C   UNL     1     -46.053 -51.250  14.243  1.00  0.00     0.014 C 
HETATM   21  C   UNL     1     -46.576 -52.475  14.990  1.00  0.00    -0.025 C 
ENDBRANCH  14  15
ENDBRANCH  12  14
ENDBRANCH   1  12
TORSDOF 6
ENDMDL
MODEL 6
REMARK VINA RESULT:      -5.4      2.824      3.692
REMARK  6 active torsions:
REMARK  status: ('A' for Active; 'I' for Inactive)
REMARK    1  A    between atoms: C_2  and  N_4 
REMARK    2  A    between atoms: C_9  and  C_10 
REMARK    3  A    between atoms: C_10  and  C_11 
REMARK    4  A    between atoms: C_11  and  N_12 
REMARK    5  A    between atoms: N_12  and  C_13 
REMARK    6  A    between atoms: C_13  and  C_14 
ROOT
HETATM    1  C   UNL     1     -41.855 -49.621  12.078  1.00  0.00     0.277 C 
ENDROOT
BRANCH   1   2
HETATM    2  C   UNL     1     -41.129 -49.151  10.810  1.00  0.00     0.106 C 
BRANCH   2   3
HETATM    3  C   UNL     1     -40.985 -47.658  10.776  1.00  0.00     0.088 A 
HETATM    4  N   UNL     1     -41.951 -46.783  10.317  1.00  0.00    -0.289 N 
HETATM    5  C   UNL     1     -41.449 -45.510  10.426  1.00  0.00     0.114 A 
HETATM    6  C   UNL     1     -40.186 -45.661  10.942  1.00  0.00     0.107 A 
HETATM    7  N   UNL     1     -39.911 -46.990  11.144  1.00  0.00    -0.354 N 
ATOM      8  HN  UNL     1     -39.043 -47.384  11.509  1.00  0.00     0.166 HD
BRANCH   4   9
HETATM    9  C   UNL     1     -43.244 -47.135   9.766  1.00  0.00     0.465 C 
HETATM   10  F   UNL     1     -43.117 -48.024   8.749  1.00  0.00    -0.191 F 
HETATM   11  F   UNL     1     -44.046 -47.722  10.695  1.00  0.00    -0.191 F 
ENDBRANCH   4   9
ENDBRANCH   2   3
ENDBRANCH   1   2
BRANCH   1  12
HETATM   12  N   UNL     1     -42.179 -51.064  12.019  1.00  0.00     0.084 N 
HETATM   13  H   UNL     1     -41.308 -51.581  11.892  1.00  0.00     0.315 HD
BRANCH  12  14
HETATM   14  C   UNL     1     -42.812 -51.477  13.276  1.00  0.00     0.274 C 
BRANCH  14  15
HETATM   15  C   UNL     1     -44.274 -50.996  13.465  1.00  0.00     0.022 C 
HETATM   16  C   UNL     1     -44.520 -50.754  14.993  1.00  0.00     0.015 C 
HETATM   17  C   UNL     1     -45.526 -51.872  15.367  1.00  0.00     0.009 C 
HETATM   18  C   UNL     1     -45.240 -52.984  14.352  1.00  0.00     0.017 C 
HETATM   19  C   UNL     1     -46.854 -51.428  14.817  1.00  0.00    -0.026 C 
HETATM   20  C   UNL     1     -45.371 -52.050  13.145  1.00  0.00     0.014 C 
HETATM   21  C   UNL     1     -46.753 -51.492  13.476  1.00  0.00    -0.025 C 
ENDBRANCH  14  15
ENDBRANCH  12  14
ENDBRANCH   1  12
TORSDOF 6
ENDMDL
MODEL 7
REMARK VINA RESULT:      -5.4      3.469      4.697
REMARK  6 active torsions:
REMARK  status: ('A' for Active; 'I' for Inactive)
REMARK    1  A    between atoms: C_2  and  N_4 
REMARK    2  A    between atoms: C_9  and  C_10 
REMARK    3  A    between atoms: C_10  and  C_11 
REMARK    4  A    between atoms: C_11  and  N_12 
REMARK    5  A    between atoms: N_12  and  C_13 
REMARK    6  A    between atoms: C_13  and  C_14 
ROOT
HETATM    1  C   UNL     1     -41.022 -52.767  12.390  1.00  0.00     0.277 C 
ENDROOT
BRANCH   1   2
HETATM    2  C   UNL     1     -41.034 -54.258  12.757  1.00  0.00     0.106 C 
BRANCH   2   3
HETATM    3  C   UNL     1     -40.266 -54.524  14.018  1.00  0.00     0.088 A 
HETATM    4  N   UNL     1     -40.834 -54.704  15.265  1.00  0.00    -0.289 N 
HETATM    5  C   UNL     1     -39.817 -54.903  16.165  1.00  0.00     0.114 A 
HETATM    6  C   UNL     1     -38.661 -54.825  15.427  1.00  0.00     0.107 A 
HETATM    7  N   UNL     1     -38.953 -54.583  14.109  1.00  0.00    -0.354 N 
ATOM      8  HN  UNL     1     -38.283 -54.471  13.348  1.00  0.00     0.166 HD
BRANCH   4   9
HETATM    9  C   UNL     1     -42.246 -54.642  15.589  1.00  0.00     0.465 C 
HETATM   10  F   UNL     1     -42.915 -55.700  15.065  1.00  0.00    -0.191 F 
HETATM   11  F   UNL     1     -42.457 -54.677  16.932  1.00  0.00    -0.191 F 
ENDBRANCH   4   9
ENDBRANCH   2   3
ENDBRANCH   1   2
BRANCH   1  12
HETATM   12  N   UNL     1     -42.327 -52.328  11.846  1.00  0.00     0.084 N 
HETATM   13  H   UNL     1     -42.924 -53.149  11.749  1.00  0.00     0.315 HD
BRANCH  12  14
HETATM   14  C   UNL     1     -42.949 -51.377  12.772  1.00  0.00     0.274 C 
BRANCH  14  15
HETATM   15  C   UNL     1     -43.947 -52.000  13.782  1.00  0.00     0.022 C 
HETATM   16  C   UNL     1     -44.605 -53.257  13.116  1.00  0.00     0.015 C 
HETATM   17  C   UNL     1     -46.079 -52.820  12.924  1.00  0.00     0.009 C 
HETATM   18  C   UNL     1     -46.002 -51.293  12.808  1.00  0.00     0.017 C 
HETATM   19  C   UNL     1     -46.708 -52.891  14.287  1.00  0.00    -0.026 C 
HETATM   20  C   UNL     1     -45.200 -51.138  14.102  1.00  0.00     0.014 C 
HETATM   21  C   UNL     1     -46.151 -51.906  15.017  1.00  0.00    -0.025 C 
ENDBRANCH  14  15
ENDBRANCH  12  14
ENDBRANCH   1  12
TORSDOF 6
ENDMDL
MODEL 8
REMARK VINA RESULT:      -5.3      1.515      2.158
REMARK  6 active torsions:
REMARK  status: ('A' for Active; 'I' for Inactive)
REMARK    1  A    between atoms: C_2  and  N_4 
REMARK    2  A    between atoms: C_9  and  C_10 
REMARK    3  A    between atoms: C_10  and  C_11 
REMARK    4  A    between atoms: C_11  and  N_12 
REMARK    5  A    between atoms: N_12  and  C_13 
REMARK    6  A    between atoms: C_13  and  C_14 
ROOT
HETATM    1  C   UNL     1     -41.832 -50.610  12.204  1.00  0.00     0.277 C 
ENDROOT
BRANCH   1   2
HETATM    2  C   UNL     1     -40.597 -50.053  11.483  1.00  0.00     0.106 C 
BRANCH   2   3
HETATM    3  C   UNL     1     -39.679 -49.339  12.431  1.00  0.00     0.088 A 
HETATM    4  N   UNL     1     -38.313 -49.533  12.503  1.00  0.00    -0.289 N 
HETATM    5  C   UNL     1     -37.825 -48.721  13.496  1.00  0.00     0.114 A 
HETATM    6  C   UNL     1     -38.922 -48.066  13.999  1.00  0.00     0.107 A 
HETATM    7  N   UNL     1     -40.057 -48.463  13.340  1.00  0.00    -0.354 N 
ATOM      8  HN  UNL     1     -41.010 -48.143  13.519  1.00  0.00     0.166 HD
BRANCH   4   9
HETATM    9  C   UNL     1     -37.529 -50.464  11.715  1.00  0.00     0.465 C 
HETATM   10  F   UNL     1     -36.741 -49.811  10.825  1.00  0.00    -0.191 F 
HETATM   11  F   UNL     1     -36.698 -51.209  12.493  1.00  0.00    -0.191 F 
ENDBRANCH   4   9
ENDBRANCH   2   3
ENDBRANCH   1   2
BRANCH   1  12
HETATM   12  N   UNL     1     -42.117 -52.006  11.801  1.00  0.00     0.084 N 
HETATM   13  H   UNL     1     -41.237 -52.523  11.801  1.00  0.00     0.315 HD
BRANCH  12  14
HETATM   14  C   UNL     1     -43.040 -52.616  12.764  1.00  0.00     0.274 C 
BRANCH  14  15
HETATM   15  C   UNL     1     -44.262 -51.742  13.146  1.00  0.00     0.022 C 
HETATM   16  C   UNL     1     -44.310 -51.615  14.707  1.00  0.00     0.015 C 
HETATM   17  C   UNL     1     -45.582 -52.413  15.086  1.00  0.00     0.009 C 
HETATM   18  C   UNL     1     -45.730 -53.436  13.953  1.00  0.00     0.017 C 
HETATM   19  C   UNL     1     -46.743 -51.531  14.719  1.00  0.00    -0.026 C 
HETATM   20  C   UNL     1     -45.653 -52.374  12.853  1.00  0.00     0.014 C 
HETATM   21  C   UNL     1     -46.765 -51.467  13.374  1.00  0.00    -0.025 C 
ENDBRANCH  14  15
ENDBRANCH  12  14
ENDBRANCH   1  12
TORSDOF 6
ENDMDL
MODEL 9
REMARK VINA RESULT:      -5.3      3.442      6.870
REMARK  6 active torsions:
REMARK  status: ('A' for Active; 'I' for Inactive)
REMARK    1  A    between atoms: C_2  and  N_4 
REMARK    2  A    between atoms: C_9  and  C_10 
REMARK    3  A    between atoms: C_10  and  C_11 
REMARK    4  A    between atoms: C_11  and  N_12 
REMARK    5  A    between atoms: N_12  and  C_13 
REMARK    6  A    between atoms: C_13  and  C_14 
ROOT
HETATM    1  C   UNL     1     -42.233 -52.817  12.656  1.00  0.00     0.277 C 
ENDROOT
BRANCH   1   2
HETATM    2  C   UNL     1     -43.534 -53.512  12.230  1.00  0.00     0.106 C 
BRANCH   2   3
HETATM    3  C   UNL     1     -44.735 -52.870  12.860  1.00  0.00     0.088 A 
HETATM    4  N   UNL     1     -45.534 -53.463  13.819  1.00  0.00    -0.289 N 
HETATM    5  C   UNL     1     -46.536 -52.581  14.135  1.00  0.00     0.114 A 
HETATM    6  C   UNL     1     -46.312 -51.481  13.344  1.00  0.00     0.107 A 
HETATM    7  N   UNL     1     -45.205 -51.677  12.558  1.00  0.00    -0.354 N 
ATOM      8  HN  UNL     1     -44.820 -51.025  11.874  1.00  0.00     0.166 HD
BRANCH   4   9
HETATM    9  C   UNL     1     -45.384 -54.799  14.363  1.00  0.00     0.465 C 
HETATM   10  F   UNL     1     -45.678 -55.742  13.432  1.00  0.00    -0.191 F 
HETATM   11  F   UNL     1     -44.108 -55.040  14.767  1.00  0.00    -0.191 F 
ENDBRANCH   4   9
ENDBRANCH   2   3
ENDBRANCH   1   2
BRANCH   1  12
HETATM   12  N   UNL     1     -41.450 -52.358  11.486  1.00  0.00     0.084 N 
HETATM   13  H   UNL     1     -42.063 -52.367  10.670  1.00  0.00     0.315 HD
BRANCH  12  14
HETATM   14  C   UNL     1     -40.971 -50.993  11.722  1.00  0.00     0.274 C 
BRANCH  14  15
HETATM   15  C   UNL     1     -39.910 -50.852  12.844  1.00  0.00     0.022 C 
HETATM   16  C   UNL     1     -40.075 -49.443  13.507  1.00  0.00     0.015 C 
HETATM   17  C   UNL     1     -38.780 -48.703  13.084  1.00  0.00     0.009 C 
HETATM   18  C   UNL     1     -38.379 -49.378  11.768  1.00  0.00     0.017 C 
HETATM   19  C   UNL     1     -37.686 -49.268  13.947  1.00  0.00    -0.026 C 
HETATM   20  C   UNL     1     -38.433 -50.788  12.362  1.00  0.00     0.014 C 
HETATM   21  C   UNL     1     -37.501 -50.540  13.546  1.00  0.00    -0.025 C 
ENDBRANCH  14  15
ENDBRANCH  12  14
ENDBRANCH   1  12
TORSDOF 6
ENDMDL
