MODEL 1
REMARK VINA RESULT:      -6.0      0.000      0.000
REMARK  4 active torsions:
REMARK  status: ('A' for Active; 'I' for Inactive)
REMARK    1  A    between atoms: C_2  and  N_4 
REMARK    2  A    between atoms: C_6  and  N_7 
REMARK       I    between atoms: N_7  and  C_8 
REMARK       I    between atoms: C_8  and  N_10 
REMARK    3  A    between atoms: N_10  and  C_11 
REMARK    4  A    between atoms: C_11  and  C_12 
ROOT
HETATM    1  N   UNL     1     -41.955 -49.333  11.013  1.00  0.00    -0.306 N 
HETATM    2  C   UNL     1     -42.497 -49.729  12.217  1.00  0.00     0.320 C 
HETATM    3  O   UNL     1     -42.857 -48.991  13.126  1.00  0.00    -0.247 OA
HETATM    4  N   UNL     1     -42.587 -51.100  12.329  1.00  0.00    -0.341 N 
HETATM    5  H   UNL     1     -41.821 -50.024  10.293  1.00  0.00     0.171 HD
HETATM    6  H   UNL     1     -42.041 -51.682  11.712  1.00  0.00     0.164 HD
ENDROOT
BRANCH   1   7
HETATM    7  C   UNL     1     -41.679 -48.013  10.696  1.00  0.00     0.070 A 
HETATM    8  C   UNL     1     -40.557 -47.291  11.019  1.00  0.00     0.141 A 
HETATM    9  N   UNL     1     -40.728 -46.042  10.502  1.00  0.00    -0.297 N 
HETATM   10  N   UNL     1     -41.897 -45.897   9.846  1.00  0.00    -0.307 N 
HETATM   11  C   UNL     1     -42.470 -47.101   9.963  1.00  0.00     0.138 A 
ATOM     12  HN  UNL     1     -42.259 -45.068   9.374  1.00  0.00     0.186 HD
BRANCH   9  13
HETATM   13  C   UNL     1     -39.772 -44.945  10.618  1.00  0.00     0.099 C 
HETATM   14  C   UNL     1     -38.950 -44.776   9.343  1.00  0.00     0.034 C 
HETATM   15  C   UNL     1     -40.453 -43.647  11.038  1.00  0.00     0.034 C 
ENDBRANCH   9  13
ENDBRANCH   1   7
BRANCH   4  16
HETATM   16  C   UNL     1     -43.009 -51.697  13.589  1.00  0.00     0.144 C 
BRANCH  16  17
HETATM   17  C   UNL     1     -44.454 -52.256  13.598  1.00  0.00     0.020 C 
HETATM   18  C   UNL     1     -44.567 -53.340  12.513  1.00  0.00     0.028 C 
HETATM   19  C   UNL     1     -45.567 -51.207  13.418  1.00  0.00     0.022 C 
HETATM   20  C   UNL     1     -46.829 -51.591  14.203  1.00  0.00     0.012 C 
HETATM   21  C   UNL     1     -46.625 -52.881  14.976  1.00  0.00     0.075 C 
HETATM   22  S   UNL     1     -44.846 -52.983  15.232  1.00  0.00    -0.158 SA
ENDBRANCH  16  17
ENDBRANCH   4  16
TORSDOF 4
ENDMDL
MODEL 2
REMARK VINA RESULT:      -5.8      1.820      2.267
REMARK  4 active torsions:
REMARK  status: ('A' for Active; 'I' for Inactive)
REMARK    1  A    between atoms: C_2  and  N_4 
REMARK    2  A    between atoms: C_6  and  N_7 
REMARK       I    between atoms: N_7  and  C_8 
REMARK       I    between atoms: C_8  and  N_10 
REMARK    3  A    between atoms: N_10  and  C_11 
REMARK    4  A    between atoms: C_11  and  C_12 
ROOT
HETATM    1  N   UNL     1     -41.652 -50.854  11.414  1.00  0.00    -0.306 N 
HETATM    2  C   UNL     1     -42.075 -51.610  12.486  1.00  0.00     0.320 C 
HETATM    3  O   UNL     1     -41.783 -51.426  13.661  1.00  0.00    -0.247 OA
HETATM    4  N   UNL     1     -42.881 -52.661  12.104  1.00  0.00    -0.341 N 
HETATM    5  H   UNL     1     -42.063 -51.022  10.511  1.00  0.00     0.171 HD
HETATM    6  H   UNL     1     -42.879 -52.959  11.141  1.00  0.00     0.164 HD
ENDROOT
BRANCH   1   7
HETATM    7  C   UNL     1     -40.763 -49.798  11.527  1.00  0.00     0.070 A 
HETATM    8  C   UNL     1     -41.061 -48.464  11.661  1.00  0.00     0.141 A 
HETATM    9  N   UNL     1     -39.874 -47.798  11.732  1.00  0.00    -0.297 N 
HETATM   10  N   UNL     1     -38.804 -48.617  11.662  1.00  0.00    -0.307 N 
HETATM   11  C   UNL     1     -39.351 -49.832  11.542  1.00  0.00     0.138 A 
ATOM     12  HN  UNL     1     -37.815 -48.369  11.692  1.00  0.00     0.186 HD
BRANCH   9  13
HETATM   13  C   UNL     1     -39.726 -46.353  11.874  1.00  0.00     0.099 C 
HETATM   14  C   UNL     1     -40.044 -45.623  10.573  1.00  0.00     0.034 C 
HETATM   15  C   UNL     1     -40.542 -45.817  13.047  1.00  0.00     0.034 C 
ENDBRANCH   9  13
ENDBRANCH   1   7
BRANCH   4  16
HETATM   16  C   UNL     1     -43.306 -53.643  13.093  1.00  0.00     0.144 C 
BRANCH  16  17
HETATM   17  C   UNL     1     -44.767 -53.486  13.587  1.00  0.00     0.020 C 
HETATM   18  C   UNL     1     -45.400 -54.883  13.698  1.00  0.00     0.028 C 
HETATM   19  C   UNL     1     -45.656 -52.567  12.729  1.00  0.00     0.022 C 
HETATM   20  C   UNL     1     -46.685 -51.822  13.591  1.00  0.00     0.012 C 
HETATM   21  C   UNL     1     -46.522 -52.163  15.061  1.00  0.00     0.075 C 
HETATM   22  S   UNL     1     -44.801 -52.667  15.223  1.00  0.00    -0.158 SA
ENDBRANCH  16  17
ENDBRANCH   4  16
TORSDOF 4
ENDMDL
MODEL 3
REMARK VINA RESULT:      -5.5      2.246      2.578
REMARK  4 active torsions:
REMARK  status: ('A' for Active; 'I' for Inactive)
REMARK    1  A    between atoms: C_2  and  N_4 
REMARK    2  A    between atoms: C_6  and  N_7 
REMARK       I    between atoms: N_7  and  C_8 
REMARK       I    between atoms: C_8  and  N_10 
REMARK    3  A    between atoms: N_10  and  C_11 
REMARK    4  A    between atoms: C_11  and  C_12 
ROOT
HETATM    1  N   UNL     1     -42.115 -49.243  11.219  1.00  0.00    -0.306 N 
HETATM    2  C   UNL     1     -41.194 -50.212  11.553  1.00  0.00     0.320 C 
HETATM    3  O   UNL     1     -39.978 -50.072  11.594  1.00  0.00    -0.247 OA
HETATM    4  N   UNL     1     -41.785 -51.427  11.831  1.00  0.00    -0.341 N 
HETATM    5  H   UNL     1     -43.094 -49.440  11.348  1.00  0.00     0.171 HD
HETATM    6  H   UNL     1     -42.731 -51.597  11.525  1.00  0.00     0.164 HD
ENDROOT
BRANCH   1   7
HETATM    7  C   UNL     1     -41.767 -47.965  10.812  1.00  0.00     0.070 A 
HETATM    8  C   UNL     1     -40.665 -47.238  11.189  1.00  0.00     0.141 A 
HETATM    9  N   UNL     1     -40.741 -46.041  10.542  1.00  0.00    -0.297 N 
HETATM   10  N   UNL     1     -41.826 -45.937   9.749  1.00  0.00    -0.307 N 
HETATM   11  C   UNL     1     -42.445 -47.112   9.913  1.00  0.00     0.138 A 
ATOM     12  HN  UNL     1     -42.109 -45.151   9.164  1.00  0.00     0.186 HD
BRANCH   9  13
HETATM   13  C   UNL     1     -39.770 -44.957  10.661  1.00  0.00     0.099 C 
HETATM   14  C   UNL     1     -38.976 -44.767   9.372  1.00  0.00     0.034 C 
HETATM   15  C   UNL     1     -40.428 -43.662  11.126  1.00  0.00     0.034 C 
ENDBRANCH   9  13
ENDBRANCH   1   7
BRANCH   4  16
HETATM   16  C   UNL     1     -40.952 -52.599  12.069  1.00  0.00     0.144 C 
BRANCH  16  17
HETATM   17  C   UNL     1     -41.246 -53.354  13.389  1.00  0.00     0.020 C 
HETATM   18  C   UNL     1     -40.064 -54.291  13.692  1.00  0.00     0.028 C 
HETATM   19  C   UNL     1     -42.568 -54.143  13.417  1.00  0.00     0.022 C 
HETATM   20  C   UNL     1     -43.184 -54.154  14.822  1.00  0.00     0.012 C 
HETATM   21  C   UNL     1     -42.343 -53.351  15.797  1.00  0.00     0.075 C 
HETATM   22  S   UNL     1     -41.456 -52.169  14.768  1.00  0.00    -0.158 SA
ENDBRANCH  16  17
ENDBRANCH   4  16
TORSDOF 4
ENDMDL
MODEL 4
REMARK VINA RESULT:      -5.5      2.968      3.992
REMARK  4 active torsions:
REMARK  status: ('A' for Active; 'I' for Inactive)
REMARK    1  A    between atoms: C_2  and  N_4 
REMARK    2  A    between atoms: C_6  and  N_7 
REMARK       I    between atoms: N_7  and  C_8 
REMARK       I    between atoms: C_8  and  N_10 
REMARK    3  A    between atoms: N_10  and  C_11 
REMARK    4  A    between atoms: C_11  and  C_12 
ROOT
HETATM    1  N   UNL     1     -41.031 -48.813  12.655  1.00  0.00    -0.306 N 
HETATM    2  C   UNL     1     -40.163 -49.877  12.535  1.00  0.00     0.320 C 
HETATM    3  O   UNL     1     -39.629 -50.263  11.503  1.00  0.00    -0.247 OA
HETATM    4  N   UNL     1     -39.949 -50.520  13.736  1.00  0.00    -0.341 N 
HETATM    5  H   UNL     1     -41.301 -48.510  13.576  1.00  0.00     0.171 HD
HETATM    6  H   UNL     1     -40.596 -50.373  14.496  1.00  0.00     0.164 HD
ENDROOT
BRANCH   1   7
HETATM    7  C   UNL     1     -41.473 -48.063  11.577  1.00  0.00     0.070 A 
HETATM    8  C   UNL     1     -42.628 -48.236  10.855  1.00  0.00     0.141 A 
HETATM    9  N   UNL     1     -42.642 -47.271   9.893  1.00  0.00    -0.297 N 
HETATM   10  N   UNL     1     -41.565 -46.461   9.942  1.00  0.00    -0.307 N 
HETATM   11  C   UNL     1     -40.859 -46.944  10.972  1.00  0.00     0.138 A 
ATOM     12  HN  UNL     1     -41.340 -45.670   9.339  1.00  0.00     0.186 HD
BRANCH   9  13
HETATM   13  C   UNL     1     -43.692 -47.092   8.895  1.00  0.00     0.099 C 
HETATM   14  C   UNL     1     -43.418 -47.905   7.634  1.00  0.00     0.034 C 
HETATM   15  C   UNL     1     -45.073 -47.381   9.475  1.00  0.00     0.034 C 
ENDBRANCH   9  13
ENDBRANCH   1   7
BRANCH   4  16
HETATM   16  C   UNL     1     -39.168 -51.749  13.769  1.00  0.00     0.144 C 
BRANCH  16  17
HETATM   17  C   UNL     1     -39.993 -53.045  13.968  1.00  0.00     0.020 C 
HETATM   18  C   UNL     1     -39.028 -54.197  14.296  1.00  0.00     0.028 C 
HETATM   19  C   UNL     1     -40.901 -53.435  12.787  1.00  0.00     0.022 C 
HETATM   20  C   UNL     1     -42.186 -54.120  13.271  1.00  0.00     0.012 C 
HETATM   21  C   UNL     1     -42.233 -54.193  14.787  1.00  0.00     0.075 C 
HETATM   22  S   UNL     1     -41.186 -52.837  15.340  1.00  0.00    -0.158 SA
ENDBRANCH  16  17
ENDBRANCH   4  16
TORSDOF 4
ENDMDL
MODEL 5
REMARK VINA RESULT:      -5.5      1.519      1.887
REMARK  4 active torsions:
REMARK  status: ('A' for Active; 'I' for Inactive)
REMARK    1  A    between atoms: C_2  and  N_4 
REMARK    2  A    between atoms: C_6  and  N_7 
REMARK       I    between atoms: N_7  and  C_8 
REMARK       I    between atoms: C_8  and  N_10 
REMARK    3  A    between atoms: N_10  and  C_11 
REMARK    4  A    between atoms: C_11  and  C_12 
ROOT
HETATM    1  N   UNL     1     -42.876 -49.047  11.821  1.00  0.00    -0.306 N 
HETATM    2  C   UNL     1     -42.131 -50.179  12.069  1.00  0.00     0.320 C 
HETATM    3  O   UNL     1     -40.942 -50.333  11.818  1.00  0.00    -0.247 OA
HETATM    4  N   UNL     1     -42.880 -51.190  12.634  1.00  0.00    -0.341 N 
HETATM    5  H   UNL     1     -43.810 -48.992  12.192  1.00  0.00     0.171 HD
HETATM    6  H   UNL     1     -43.885 -51.151  12.573  1.00  0.00     0.164 HD
ENDROOT
BRANCH   1   7
HETATM    7  C   UNL     1     -42.375 -47.928  11.178  1.00  0.00     0.070 A 
HETATM    8  C   UNL     1     -41.560 -46.955  11.702  1.00  0.00     0.141 A 
HETATM    9  N   UNL     1     -41.328 -46.054  10.707  1.00  0.00    -0.297 N 
HETATM   10  N   UNL     1     -41.936 -46.378   9.548  1.00  0.00    -0.307 N 
HETATM   11  C   UNL     1     -42.568 -47.522   9.839  1.00  0.00     0.138 A 
ATOM     12  HN  UNL     1     -41.919 -45.873   8.662  1.00  0.00     0.186 HD
BRANCH   9  13
HETATM   13  C   UNL     1     -40.510 -44.851  10.835  1.00  0.00     0.099 C 
HETATM   14  C   UNL     1     -40.038 -44.638  12.270  1.00  0.00     0.034 C 
HETATM   15  C   UNL     1     -39.350 -44.852   9.843  1.00  0.00     0.034 C 
ENDBRANCH   9  13
ENDBRANCH   1   7
BRANCH   4  16
HETATM   16  C   UNL     1     -42.285 -52.505  12.836  1.00  0.00     0.144 C 
BRANCH  16  17
HETATM   17  C   UNL     1     -43.144 -53.493  13.664  1.00  0.00     0.020 C 
HETATM   18  C   UNL     1     -42.208 -54.505  14.346  1.00  0.00     0.028 C 
HETATM   19  C   UNL     1     -44.241 -54.233  12.876  1.00  0.00     0.022 C 
HETATM   20  C   UNL     1     -45.475 -54.496  13.749  1.00  0.00     0.012 C 
HETATM   21  C   UNL     1     -45.297 -53.922  15.143  1.00  0.00     0.075 C 
HETATM   22  S   UNL     1     -44.102 -52.591  14.937  1.00  0.00    -0.158 SA
ENDBRANCH  16  17
ENDBRANCH   4  16
TORSDOF 4
ENDMDL
MODEL 6
REMARK VINA RESULT:      -5.4      2.790      7.868
REMARK  4 active torsions:
REMARK  status: ('A' for Active; 'I' for Inactive)
REMARK    1  A    between atoms: C_2  and  N_4 
REMARK    2  A    between atoms: C_6  and  N_7 
REMARK       I    between atoms: N_7  and  C_8 
REMARK       I    between atoms: C_8  and  N_10 
REMARK    3  A    between atoms: N_10  and  C_11 
REMARK    4  A    between atoms: C_11  and  C_12 
ROOT
HETATM    1  N   UNL     1     -41.157 -51.278  11.394  1.00  0.00    -0.306 N 
HETATM    2  C   UNL     1     -40.498 -50.194  11.934  1.00  0.00     0.320 C 
HETATM    3  O   UNL     1     -40.147 -50.068  13.100  1.00  0.00    -0.247 OA
HETATM    4  N   UNL     1     -40.273 -49.199  11.006  1.00  0.00    -0.341 N 
HETATM    5  H   UNL     1     -41.275 -51.324  10.396  1.00  0.00     0.171 HD
HETATM    6  H   UNL     1     -40.803 -49.196  10.148  1.00  0.00     0.164 HD
ENDROOT
BRANCH   1   7
HETATM    7  C   UNL     1     -41.576 -52.367  12.141  1.00  0.00     0.070 A 
HETATM    8  C   UNL     1     -42.836 -52.611  12.631  1.00  0.00     0.141 A 
HETATM    9  N   UNL     1     -42.776 -53.794  13.304  1.00  0.00    -0.297 N 
HETATM   10  N   UNL     1     -41.549 -54.354  13.281  1.00  0.00    -0.307 N 
HETATM   11  C   UNL     1     -40.824 -53.483  12.568  1.00  0.00     0.138 A 
ATOM     12  HN  UNL     1     -41.246 -55.231  13.705  1.00  0.00     0.186 HD
BRANCH   9  13
HETATM   13  C   UNL     1     -43.896 -54.430  13.990  1.00  0.00     0.099 C 
HETATM   14  C   UNL     1     -43.903 -54.107  15.481  1.00  0.00     0.034 C 
HETATM   15  C   UNL     1     -45.227 -54.093  13.324  1.00  0.00     0.034 C 
ENDBRANCH   9  13
ENDBRANCH   1   7
BRANCH   4  16
HETATM   16  C   UNL     1     -39.711 -47.925  11.434  1.00  0.00     0.144 C 
BRANCH  16  17
HETATM   17  C   UNL     1     -40.627 -46.696  11.210  1.00  0.00     0.020 C 
HETATM   18  C   UNL     1     -41.831 -47.131  10.355  1.00  0.00     0.028 C 
HETATM   19  C   UNL     1     -39.943 -45.471  10.576  1.00  0.00     0.022 C 
HETATM   20  C   UNL     1     -40.545 -44.161  11.101  1.00  0.00     0.012 C 
HETATM   21  C   UNL     1     -41.627 -44.426  12.132  1.00  0.00     0.075 C 
HETATM   22  S   UNL     1     -41.220 -46.042  12.813  1.00  0.00    -0.158 SA
ENDBRANCH  16  17
ENDBRANCH   4  16
TORSDOF 4
ENDMDL
MODEL 7
REMARK VINA RESULT:      -5.4      2.895      3.662
REMARK  4 active torsions:
REMARK  status: ('A' for Active; 'I' for Inactive)
REMARK    1  A    between atoms: C_2  and  N_4 
REMARK    2  A    between atoms: C_6  and  N_7 
REMARK       I    between atoms: N_7  and  C_8 
REMARK       I    between atoms: C_8  and  N_10 
REMARK    3  A    between atoms: N_10  and  C_11 
REMARK    4  A    between atoms: C_11  and  C_12 
ROOT
HETATM    1  N   UNL     1     -42.358 -51.648  11.888  1.00  0.00    -0.306 N 
HETATM    2  C   UNL     1     -42.828 -52.285  13.016  1.00  0.00     0.320 C 
HETATM    3  O   UNL     1     -42.444 -52.102  14.165  1.00  0.00    -0.247 OA
HETATM    4  N   UNL     1     -43.806 -53.214  12.728  1.00  0.00    -0.341 N 
HETATM    5  H   UNL     1     -42.842 -51.787  11.017  1.00  0.00     0.171 HD
HETATM    6  H   UNL     1     -43.905 -53.547  11.781  1.00  0.00     0.164 HD
ENDROOT
BRANCH   1   7
HETATM    7  C   UNL     1     -41.314 -50.738  11.904  1.00  0.00     0.070 A 
HETATM    8  C   UNL     1     -39.981 -50.996  12.112  1.00  0.00     0.141 A 
HETATM    9  N   UNL     1     -39.331 -49.800  12.042  1.00  0.00    -0.297 N 
HETATM   10  N   UNL     1     -40.157 -48.764  11.790  1.00  0.00    -0.307 N 
HETATM   11  C   UNL     1     -41.361 -49.341  11.702  1.00  0.00     0.138 A 
ATOM     12  HN  UNL     1     -39.920 -47.777  11.690  1.00  0.00     0.186 HD
BRANCH   9  13
HETATM   13  C   UNL     1     -37.894 -49.613  12.211  1.00  0.00     0.099 C 
HETATM   14  C   UNL     1     -37.367 -50.355  13.435  1.00  0.00     0.034 C 
HETATM   15  C   UNL     1     -37.126 -49.979  10.944  1.00  0.00     0.034 C 
ENDBRANCH   9  13
ENDBRANCH   1   7
BRANCH   4  16
HETATM   16  C   UNL     1     -44.317 -54.078  13.784  1.00  0.00     0.144 C 
BRANCH  16  17
HETATM   17  C   UNL     1     -45.593 -53.559  14.494  1.00  0.00     0.020 C 
HETATM   18  C   UNL     1     -46.584 -54.727  14.638  1.00  0.00     0.028 C 
HETATM   19  C   UNL     1     -46.282 -52.359  13.818  1.00  0.00     0.022 C 
HETATM   20  C   UNL     1     -46.930 -51.431  14.853  1.00  0.00     0.012 C 
HETATM   21  C   UNL     1     -46.684 -51.925  16.267  1.00  0.00     0.075 C 
HETATM   22  S   UNL     1     -45.177 -52.902  16.151  1.00  0.00    -0.158 SA
ENDBRANCH  16  17
ENDBRANCH   4  16
TORSDOF 4
ENDMDL
MODEL 8
REMARK VINA RESULT:      -5.2      4.999      7.277
REMARK  4 active torsions:
REMARK  status: ('A' for Active; 'I' for Inactive)
REMARK    1  A    between atoms: C_2  and  N_4 
REMARK    2  A    between atoms: C_6  and  N_7 
REMARK       I    between atoms: N_7  and  C_8 
REMARK       I    between atoms: C_8  and  N_10 
REMARK    3  A    between atoms: N_10  and  C_11 
REMARK    4  A    between atoms: C_11  and  C_12 
ROOT
HETATM    1  N   UNL     1     -42.107 -45.939   9.484  1.00  0.00    -0.306 N 
HETATM    2  C   UNL     1     -41.308 -46.327  10.537  1.00  0.00     0.320 C 
HETATM    3  O   UNL     1     -41.303 -47.427  11.075  1.00  0.00    -0.247 OA
HETATM    4  N   UNL     1     -40.483 -45.312  10.975  1.00  0.00    -0.341 N 
HETATM    5  H   UNL     1     -41.927 -45.052   9.042  1.00  0.00     0.171 HD
HETATM    6  H   UNL     1     -40.695 -44.360  10.719  1.00  0.00     0.164 HD
ENDROOT
BRANCH   1   7
HETATM    7  C   UNL     1     -43.082 -46.748   8.925  1.00  0.00     0.070 A 
HETATM    8  C   UNL     1     -44.310 -47.065   9.450  1.00  0.00     0.141 A 
HETATM    9  N   UNL     1     -44.924 -47.889   8.556  1.00  0.00    -0.297 N 
HETATM   10  N   UNL     1     -44.175 -48.131   7.461  1.00  0.00    -0.307 N 
HETATM   11  C   UNL     1     -43.057 -47.431   7.688  1.00  0.00     0.138 A 
ATOM     12  HN  UNL     1     -44.404 -48.709   6.652  1.00  0.00     0.186 HD
BRANCH   9  13
HETATM   13  C   UNL     1     -46.252 -48.471   8.721  1.00  0.00     0.099 C 
HETATM   14  C   UNL     1     -47.286 -47.417   9.107  1.00  0.00     0.034 C 
HETATM   15  C   UNL     1     -46.675 -49.264   7.488  1.00  0.00     0.034 C 
ENDBRANCH   9  13
ENDBRANCH   1   7
BRANCH   4  16
HETATM   16  C   UNL     1     -39.670 -45.506  12.168  1.00  0.00     0.144 C 
BRANCH  16  17
HETATM   17  C   UNL     1     -40.130 -44.702  13.411  1.00  0.00     0.020 C 
HETATM   18  C   UNL     1     -39.273 -45.128  14.616  1.00  0.00     0.028 C 
HETATM   19  C   UNL     1     -41.626 -44.821  13.756  1.00  0.00     0.022 C 
HETATM   20  C   UNL     1     -42.166 -43.518  14.358  1.00  0.00     0.012 C 
HETATM   21  C   UNL     1     -41.090 -42.449  14.415  1.00  0.00     0.075 C 
HETATM   22  S   UNL     1     -39.926 -42.907  13.120  1.00  0.00    -0.158 SA
ENDBRANCH  16  17
ENDBRANCH   4  16
TORSDOF 4
ENDMDL
MODEL 9
REMARK VINA RESULT:      -5.1      2.870      3.563
REMARK  4 active torsions:
REMARK  status: ('A' for Active; 'I' for Inactive)
REMARK    1  A    between atoms: C_2  and  N_4 
REMARK    2  A    between atoms: C_6  and  N_7 
REMARK       I    between atoms: N_7  and  C_8 
REMARK       I    between atoms: C_8  and  N_10 
REMARK    3  A    between atoms: N_10  and  C_11 
REMARK    4  A    between atoms: C_11  and  C_12 
ROOT
HETATM    1  N   UNL     1     -41.219 -51.609  11.930  1.00  0.00    -0.306 N 
HETATM    2  C   UNL     1     -41.912 -52.213  12.956  1.00  0.00     0.320 C 
HETATM    3  O   UNL     1     -41.911 -51.870  14.132  1.00  0.00    -0.247 OA
HETATM    4  N   UNL     1     -42.631 -53.311  12.532  1.00  0.00    -0.341 N 
HETATM    5  H   UNL     1     -41.403 -51.900  10.985  1.00  0.00     0.171 HD
HETATM    6  H   UNL     1     -42.402 -53.737  11.647  1.00  0.00     0.164 HD
ENDROOT
BRANCH   1   7
HETATM    7  C   UNL     1     -40.355 -50.542  12.116  1.00  0.00     0.070 A 
HETATM    8  C   UNL     1     -39.372 -50.417  13.067  1.00  0.00     0.141 A 
HETATM    9  N   UNL     1     -38.783 -49.204  12.869  1.00  0.00    -0.297 N 
HETATM   10  N   UNL     1     -39.314 -48.521  11.835  1.00  0.00    -0.307 N 
HETATM   11  C   UNL     1     -40.267 -49.342  11.377  1.00  0.00     0.138 A 
ATOM     12  HN  UNL     1     -39.052 -47.599  11.485  1.00  0.00     0.186 HD
BRANCH   9  13
HETATM   13  C   UNL     1     -37.687 -48.661  13.666  1.00  0.00     0.099 C 
HETATM   14  C   UNL     1     -38.006 -47.264  14.187  1.00  0.00     0.034 C 
HETATM   15  C   UNL     1     -37.281 -49.613  14.787  1.00  0.00     0.034 C 
ENDBRANCH   9  13
ENDBRANCH   1   7
BRANCH   4  16
HETATM   16  C   UNL     1     -43.313 -54.151  13.508  1.00  0.00     0.144 C 
BRANCH  16  17
HETATM   17  C   UNL     1     -44.826 -53.866  13.674  1.00  0.00     0.020 C 
HETATM   18  C   UNL     1     -45.577 -55.208  13.724  1.00  0.00     0.028 C 
HETATM   19  C   UNL     1     -45.447 -52.951  12.602  1.00  0.00     0.022 C 
HETATM   20  C   UNL     1     -46.569 -52.084  13.187  1.00  0.00     0.012 C 
HETATM   21  C   UNL     1     -46.739 -52.334  14.675  1.00  0.00     0.075 C 
HETATM   22  S   UNL     1     -45.133 -52.937  15.221  1.00  0.00    -0.158 SA
ENDBRANCH  16  17
ENDBRANCH   4  16
TORSDOF 4
ENDMDL
