MODEL 1
REMARK VINA RESULT:      -5.0      0.000      0.000
REMARK  4 active torsions:
REMARK  status: ('A' for Active; 'I' for Inactive)
REMARK    1  A    between atoms: N_3  and  C_4 
REMARK    2  A    between atoms: C_10  and  C_11 
REMARK    3  A    between atoms: C_11  and  C_12 
REMARK    4  A    between atoms: C_12  and  O_14 
ROOT
HETATM    1  C   UNL     2     -44.130 -48.146   7.737  1.00  0.00     0.105 A 
HETATM    2  N   UNL     2     -45.210 -48.733   7.150  1.00  0.00    -0.352 N 
ATOM      3  HN  UNL     2     -45.085 -49.188   6.245  1.00  0.00     0.166 HD
HETATM    4  C   UNL     2     -46.442 -48.738   7.716  1.00  0.00     0.089 A 
HETATM    5  C   UNL     2     -46.642 -48.125   8.948  1.00  0.00     0.018 A 
HETATM    6  C   UNL     2     -45.568 -47.507   9.586  1.00  0.00     0.013 A 
HETATM    7  C   UNL     2     -44.289 -47.501   8.997  1.00  0.00    -0.005 A 
ENDROOT
BRANCH   7   8
HETATM    8  C   UNL     2     -43.168 -46.829   9.768  1.00  0.00     0.152 C 
BRANCH   8   9
HETATM    9  C   UNL     2     -42.322 -47.833  10.507  1.00  0.00     0.143 C 
HETATM   10  O   UNL     2     -42.450 -47.960  11.715  1.00  0.00    -0.650 OA
BRANCH   9  11
HETATM   11  O   UNL     2     -41.431 -48.607   9.853  1.00  0.00    -0.776 OA
HETATM   12  H   UNL     2     -40.874 -49.247  10.319  1.00  0.00     0.167 HD
ENDBRANCH   9  11
ENDBRANCH   8   9
ENDBRANCH   7   8
BRANCH   1  13
HETATM   13  N   UNL     2     -42.885 -48.228   7.059  1.00  0.00    -0.385 N 
HETATM   14  H   UNL     2     -42.864 -48.128   6.033  1.00  0.00     0.157 HD
HETATM   15  H   UNL     2     -41.993 -48.415   7.528  1.00  0.00     0.157 HD
ENDBRANCH   1  13
TORSDOF 4
ENDMDL
MODEL 2
REMARK VINA RESULT:      -4.6      7.282      8.193
REMARK  4 active torsions:
REMARK  status: ('A' for Active; 'I' for Inactive)
REMARK    1  A    between atoms: N_3  and  C_4 
REMARK    2  A    between atoms: C_10  and  C_11 
REMARK    3  A    between atoms: C_11  and  C_12 
REMARK    4  A    between atoms: C_12  and  O_14 
ROOT
HETATM    1  C   UNL     2     -44.327 -53.024  12.572  1.00  0.00     0.105 A 
HETATM    2  N   UNL     2     -43.212 -52.289  12.301  1.00  0.00    -0.352 N 
ATOM      3  HN  UNL     2     -43.306 -51.456  11.719  1.00  0.00     0.166 HD
HETATM    4  C   UNL     2     -41.983 -52.617  12.772  1.00  0.00     0.089 A 
HETATM    5  C   UNL     2     -41.823 -53.746  13.567  1.00  0.00     0.018 A 
HETATM    6  C   UNL     2     -42.935 -54.532  13.869  1.00  0.00     0.013 A 
HETATM    7  C   UNL     2     -44.210 -54.192  13.378  1.00  0.00    -0.005 A 
ENDROOT
BRANCH   7   8
HETATM    8  C   UNL     2     -45.372 -55.086  13.772  1.00  0.00     0.152 C 
BRANCH   8   9
HETATM    9  C   UNL     2     -46.258 -54.426  14.797  1.00  0.00     0.143 C 
HETATM   10  O   UNL     2     -46.026 -54.577  15.987  1.00  0.00    -0.650 OA
BRANCH   9  11
HETATM   11  O   UNL     2     -47.300 -53.655  14.421  1.00  0.00    -0.776 OA
HETATM   12  H   UNL     2     -48.195 -53.812  14.754  1.00  0.00     0.167 HD
ENDBRANCH   9  11
ENDBRANCH   8   9
ENDBRANCH   7   8
BRANCH   1  13
HETATM   13  N   UNL     2     -45.562 -52.565  12.043  1.00  0.00    -0.385 N 
HETATM   14  H   UNL     2     -46.093 -53.175  11.403  1.00  0.00     0.157 HD
HETATM   15  H   UNL     2     -45.954 -51.637  12.237  1.00  0.00     0.157 HD
ENDBRANCH   1  13
TORSDOF 4
ENDMDL
MODEL 3
REMARK VINA RESULT:      -4.6      4.266      5.817
REMARK  4 active torsions:
REMARK  status: ('A' for Active; 'I' for Inactive)
REMARK    1  A    between atoms: N_3  and  C_4 
REMARK    2  A    between atoms: C_10  and  C_11 
REMARK    3  A    between atoms: C_11  and  C_12 
REMARK    4  A    between atoms: C_12  and  O_14 
ROOT
HETATM    1  C   UNL     2     -40.633 -49.885  11.288  1.00  0.00     0.105 A 
HETATM    2  N   UNL     2     -41.625 -49.177  10.678  1.00  0.00    -0.352 N 
ATOM      3  HN  UNL     2     -42.405 -49.688  10.265  1.00  0.00     0.166 HD
HETATM    4  C   UNL     2     -41.618 -47.823  10.597  1.00  0.00     0.089 A 
HETATM    5  C   UNL     2     -40.567 -47.100  11.149  1.00  0.00     0.018 A 
HETATM    6  C   UNL     2     -39.527 -47.781  11.780  1.00  0.00     0.013 A 
HETATM    7  C   UNL     2     -39.534 -49.186  11.863  1.00  0.00    -0.005 A 
ENDROOT
BRANCH   7   8
HETATM    8  C   UNL     2     -38.376 -49.849  12.587  1.00  0.00     0.152 C 
BRANCH   8   9
HETATM    9  C   UNL     2     -37.450 -50.552  11.629  1.00  0.00     0.143 C 
HETATM   10  O   UNL     2     -36.858 -51.559  11.987  1.00  0.00    -0.650 OA
BRANCH   9  11
HETATM   11  O   UNL     2     -37.273 -50.094  10.372  1.00  0.00    -0.776 OA
HETATM   12  H   UNL     2     -38.012 -49.762   9.843  1.00  0.00     0.167 HD
ENDBRANCH   9  11
ENDBRANCH   8   9
ENDBRANCH   7   8
BRANCH   1  13
HETATM   13  N   UNL     2     -40.764 -51.298  11.331  1.00  0.00    -0.385 N 
HETATM   14  H   UNL     2     -40.437 -51.859  10.530  1.00  0.00     0.157 HD
HETATM   15  H   UNL     2     -41.198 -51.804  12.110  1.00  0.00     0.157 HD
ENDBRANCH   1  13
TORSDOF 4
ENDMDL
MODEL 4
REMARK VINA RESULT:      -4.5      7.122      7.828
REMARK  4 active torsions:
REMARK  status: ('A' for Active; 'I' for Inactive)
REMARK    1  A    between atoms: N_3  and  C_4 
REMARK    2  A    between atoms: C_10  and  C_11 
REMARK    3  A    between atoms: C_11  and  C_12 
REMARK    4  A    between atoms: C_12  and  O_14 
ROOT
HETATM    1  C   UNL     2     -41.919 -52.981  12.233  1.00  0.00     0.105 A 
HETATM    2  N   UNL     2     -43.217 -53.247  11.913  1.00  0.00    -0.352 N 
ATOM      3  HN  UNL     2     -43.567 -52.944  11.005  1.00  0.00     0.166 HD
HETATM    4  C   UNL     2     -44.062 -53.897  12.752  1.00  0.00     0.089 A 
HETATM    5  C   UNL     2     -43.613 -54.322  13.997  1.00  0.00     0.018 A 
HETATM    6  C   UNL     2     -42.294 -54.069  14.370  1.00  0.00     0.013 A 
HETATM    7  C   UNL     2     -41.418 -53.393  13.500  1.00  0.00    -0.005 A 
ENDROOT
BRANCH   7   8
HETATM    8  C   UNL     2     -39.991 -53.180  13.972  1.00  0.00     0.152 C 
BRANCH   8   9
HETATM    9  C   UNL     2     -39.302 -54.487  14.267  1.00  0.00     0.143 C 
HETATM   10  O   UNL     2     -39.140 -54.839  15.426  1.00  0.00    -0.650 OA
BRANCH   9  11
HETATM   11  O   UNL     2     -38.870 -55.286  13.269  1.00  0.00    -0.776 OA
HETATM   12  H   UNL     2     -39.412 -56.011  12.927  1.00  0.00     0.167 HD
ENDBRANCH   9  11
ENDBRANCH   8   9
ENDBRANCH   7   8
BRANCH   1  13
HETATM   13  N   UNL     2     -41.125 -52.317  11.262  1.00  0.00    -0.385 N 
HETATM   14  H   UNL     2     -41.272 -51.310  11.095  1.00  0.00     0.157 HD
HETATM   15  H   UNL     2     -40.422 -52.788  10.683  1.00  0.00     0.157 HD
ENDBRANCH   1  13
TORSDOF 4
ENDMDL
MODEL 5
REMARK VINA RESULT:      -4.4      5.839      7.180
REMARK  4 active torsions:
REMARK  status: ('A' for Active; 'I' for Inactive)
REMARK    1  A    between atoms: N_3  and  C_4 
REMARK    2  A    between atoms: C_10  and  C_11 
REMARK    3  A    between atoms: C_11  and  C_12 
REMARK    4  A    between atoms: C_12  and  O_14 
ROOT
HETATM    1  C   UNL     2     -39.720 -50.075  11.270  1.00  0.00     0.105 A 
HETATM    2  N   UNL     2     -38.501 -49.587  10.907  1.00  0.00    -0.352 N 
ATOM      3  HN  UNL     2     -38.446 -48.960  10.104  1.00  0.00     0.166 HD
HETATM    4  C   UNL     2     -37.358 -49.899  11.566  1.00  0.00     0.089 A 
HETATM    5  C   UNL     2     -37.400 -50.752  12.663  1.00  0.00     0.018 A 
HETATM    6  C   UNL     2     -38.625 -51.280  13.071  1.00  0.00     0.013 A 
HETATM    7  C   UNL     2     -39.811 -50.957  12.385  1.00  0.00    -0.005 A 
ENDROOT
BRANCH   7   8
HETATM    8  C   UNL     2     -41.105 -51.553  12.907  1.00  0.00     0.152 C 
BRANCH   8   9
HETATM    9  C   UNL     2     -41.258 -52.995  12.496  1.00  0.00     0.143 C 
HETATM   10  O   UNL     2     -41.928 -53.753  13.181  1.00  0.00    -0.650 OA
BRANCH   9  11
HETATM   11  O   UNL     2     -40.675 -53.463  11.371  1.00  0.00    -0.776 OA
HETATM   12  H   UNL     2     -40.704 -54.401  11.136  1.00  0.00     0.167 HD
ENDBRANCH   9  11
ENDBRANCH   8   9
ENDBRANCH   7   8
BRANCH   1  13
HETATM   13  N   UNL     2     -40.848 -49.655  10.518  1.00  0.00    -0.385 N 
HETATM   14  H   UNL     2     -41.784 -49.699  10.947  1.00  0.00     0.157 HD
HETATM   15  H   UNL     2     -40.795 -49.334   9.545  1.00  0.00     0.157 HD
ENDBRANCH   1  13
TORSDOF 4
ENDMDL
MODEL 6
REMARK VINA RESULT:      -4.4      3.550      4.556
REMARK  4 active torsions:
REMARK  status: ('A' for Active; 'I' for Inactive)
REMARK    1  A    between atoms: N_3  and  C_4 
REMARK    2  A    between atoms: C_10  and  C_11 
REMARK    3  A    between atoms: C_11  and  C_12 
REMARK    4  A    between atoms: C_12  and  O_14 
ROOT
HETATM    1  C   UNL     2     -41.157 -49.258  10.790  1.00  0.00     0.105 A 
HETATM    2  N   UNL     2     -41.536 -48.173  10.058  1.00  0.00    -0.352 N 
ATOM      3  HN  UNL     2     -40.975 -47.912   9.247  1.00  0.00     0.166 HD
HETATM    4  C   UNL     2     -42.627 -47.426  10.361  1.00  0.00     0.089 A 
HETATM    5  C   UNL     2     -43.410 -47.757  11.461  1.00  0.00     0.018 A 
HETATM    6  C   UNL     2     -43.060 -48.857  12.243  1.00  0.00     0.013 A 
HETATM    7  C   UNL     2     -41.927 -49.631  11.928  1.00  0.00    -0.005 A 
ENDROOT
BRANCH   7   8
HETATM    8  C   UNL     2     -41.628 -50.826  12.815  1.00  0.00     0.152 C 
BRANCH   8   9
HETATM    9  C   UNL     2     -42.031 -52.120  12.158  1.00  0.00     0.143 C 
HETATM   10  O   UNL     2     -43.065 -52.676  12.497  1.00  0.00    -0.650 OA
BRANCH   9  11
HETATM   11  O   UNL     2     -41.274 -52.672  11.187  1.00  0.00    -0.776 OA
HETATM   12  H   UNL     2     -41.412 -53.582  10.889  1.00  0.00     0.167 HD
ENDBRANCH   9  11
ENDBRANCH   8   9
ENDBRANCH   7   8
BRANCH   1  13
HETATM   13  N   UNL     2     -40.011 -49.976  10.358  1.00  0.00    -0.385 N 
HETATM   14  H   UNL     2     -39.077 -49.561  10.494  1.00  0.00     0.157 HD
HETATM   15  H   UNL     2     -40.055 -50.883   9.883  1.00  0.00     0.157 HD
ENDBRANCH   1  13
TORSDOF 4
ENDMDL
MODEL 7
REMARK VINA RESULT:      -4.3      6.921      7.964
REMARK  4 active torsions:
REMARK  status: ('A' for Active; 'I' for Inactive)
REMARK    1  A    between atoms: N_3  and  C_4 
REMARK    2  A    between atoms: C_10  and  C_11 
REMARK    3  A    between atoms: C_11  and  C_12 
REMARK    4  A    between atoms: C_12  and  O_14 
ROOT
HETATM    1  C   UNL     2     -43.102 -52.322  12.886  1.00  0.00     0.105 A 
HETATM    2  N   UNL     2     -41.974 -52.076  12.162  1.00  0.00    -0.352 N 
ATOM      3  HN  UNL     2     -41.950 -51.252  11.561  1.00  0.00     0.166 HD
HETATM    4  C   UNL     2     -40.883 -52.880  12.206  1.00  0.00     0.089 A 
HETATM    5  C   UNL     2     -40.887 -54.011  13.014  1.00  0.00     0.018 A 
HETATM    6  C   UNL     2     -42.020 -54.306  13.771  1.00  0.00     0.013 A 
HETATM    7  C   UNL     2     -43.153 -53.472  13.724  1.00  0.00    -0.005 A 
ENDROOT
BRANCH   7   8
HETATM    8  C   UNL     2     -44.336 -53.850  14.596  1.00  0.00     0.152 C 
BRANCH   8   9
HETATM    9  C   UNL     2     -45.430 -54.507  13.795  1.00  0.00     0.143 C 
HETATM   10  O   UNL     2     -45.596 -55.715  13.873  1.00  0.00    -0.650 OA
BRANCH   9  11
HETATM   11  O   UNL     2     -46.242 -53.780  12.999  1.00  0.00    -0.776 OA
HETATM   12  H   UNL     2     -47.018 -54.169  12.571  1.00  0.00     0.167 HD
ENDBRANCH   9  11
ENDBRANCH   8   9
ENDBRANCH   7   8
BRANCH   1  13
HETATM   13  N   UNL     2     -44.171 -51.393  12.776  1.00  0.00    -0.385 N 
HETATM   14  H   UNL     2     -44.126 -50.510  13.306  1.00  0.00     0.157 HD
HETATM   15  H   UNL     2     -45.013 -51.560  12.217  1.00  0.00     0.157 HD
ENDBRANCH   1  13
TORSDOF 4
ENDMDL
MODEL 8
REMARK VINA RESULT:      -4.0      2.845      3.395
REMARK  4 active torsions:
REMARK  status: ('A' for Active; 'I' for Inactive)
REMARK    1  A    between atoms: N_3  and  C_4 
REMARK    2  A    between atoms: C_10  and  C_11 
REMARK    3  A    between atoms: C_11  and  C_12 
REMARK    4  A    between atoms: C_12  and  O_14 
ROOT
HETATM    1  C   UNL     2     -43.216 -47.298  11.029  1.00  0.00     0.105 A 
HETATM    2  N   UNL     2     -44.232 -47.971  10.419  1.00  0.00    -0.352 N 
ATOM      3  HN  UNL     2     -44.500 -48.885  10.784  1.00  0.00     0.166 HD
HETATM    4  C   UNL     2     -44.901 -47.477   9.348  1.00  0.00     0.089 A 
HETATM    5  C   UNL     2     -44.557 -46.234   8.828  1.00  0.00     0.018 A 
HETATM    6  C   UNL     2     -43.521 -45.510   9.416  1.00  0.00     0.013 A 
HETATM    7  C   UNL     2     -42.826 -46.024  10.527  1.00  0.00    -0.005 A 
ENDROOT
BRANCH   7   8
HETATM    8  C   UNL     2     -41.728 -45.163  11.124  1.00  0.00     0.152 C 
BRANCH   8   9
HETATM    9  C   UNL     2     -40.420 -45.349  10.398  1.00  0.00     0.143 C 
HETATM   10  O   UNL     2     -39.928 -44.413   9.787  1.00  0.00    -0.650 OA
BRANCH   9  11
HETATM   11  O   UNL     2     -39.772 -46.533  10.425  1.00  0.00    -0.776 OA
HETATM   12  H   UNL     2     -38.808 -46.584  10.478  1.00  0.00     0.167 HD
ENDBRANCH   9  11
ENDBRANCH   8   9
ENDBRANCH   7   8
BRANCH   1  13
HETATM   13  N   UNL     2     -42.608 -47.908  12.159  1.00  0.00    -0.385 N 
HETATM   14  H   UNL     2     -42.103 -48.798  12.039  1.00  0.00     0.157 HD
HETATM   15  H   UNL     2     -42.666 -47.527  13.109  1.00  0.00     0.157 HD
ENDBRANCH   1  13
TORSDOF 4
ENDMDL
MODEL 9
REMARK VINA RESULT:      -4.0      6.670      7.200
REMARK  4 active torsions:
REMARK  status: ('A' for Active; 'I' for Inactive)
REMARK    1  A    between atoms: N_3  and  C_4 
REMARK    2  A    between atoms: C_10  and  C_11 
REMARK    3  A    between atoms: C_11  and  C_12 
REMARK    4  A    between atoms: C_12  and  O_14 
ROOT
HETATM    1  C   UNL     2     -43.267 -52.365  12.804  1.00  0.00     0.105 A 
HETATM    2  N   UNL     2     -44.552 -52.458  12.359  1.00  0.00    -0.352 N 
ATOM      3  HN  UNL     2     -44.891 -51.757  11.701  1.00  0.00     0.166 HD
HETATM    4  C   UNL     2     -45.398 -53.441  12.755  1.00  0.00     0.089 A 
HETATM    5  C   UNL     2     -44.964 -54.410  13.653  1.00  0.00     0.018 A 
HETATM    6  C   UNL     2     -43.658 -54.355  14.140  1.00  0.00     0.013 A 
HETATM    7  C   UNL     2     -42.781 -53.333  13.729  1.00  0.00    -0.005 A 
ENDROOT
BRANCH   7   8
HETATM    8  C   UNL     2     -41.369 -53.358  14.286  1.00  0.00     0.152 C 
BRANCH   8   9
HETATM    9  C   UNL     2     -40.390 -53.929  13.293  1.00  0.00     0.143 C 
HETATM   10  O   UNL     2     -39.191 -53.799  13.481  1.00  0.00    -0.650 OA
BRANCH   9  11
HETATM   11  O   UNL     2     -40.818 -54.597  12.201  1.00  0.00    -0.776 OA
HETATM   12  H   UNL     2     -40.204 -54.904  11.519  1.00  0.00     0.167 HD
ENDBRANCH   9  11
ENDBRANCH   8   9
ENDBRANCH   7   8
BRANCH   1  13
HETATM   13  N   UNL     2     -42.469 -51.305  12.298  1.00  0.00    -0.385 N 
HETATM   14  H   UNL     2     -41.621 -51.024  12.812  1.00  0.00     0.157 HD
HETATM   15  H   UNL     2     -42.704 -50.771  11.455  1.00  0.00     0.157 HD
ENDBRANCH   1  13
TORSDOF 4
ENDMDL
