MODEL 1
REMARK VINA RESULT:      -6.1      0.000      0.000
REMARK  3 active torsions:
REMARK  status: ('A' for Active; 'I' for Inactive)
REMARK       I    between atoms: C_2  and  N_3 
REMARK       I    between atoms: C_2  and  N_13 
REMARK    1  A    between atoms: N_3  and  C_4 
REMARK    2  A    between atoms: C_4  and  C_5 
REMARK    3  A    between atoms: C_5  and  C_6 
ROOT
HETATM    1  O   UNL     1     -41.258 -52.159  11.793  1.00  0.00    -0.247 OA
HETATM    2  C   UNL     1     -42.078 -51.428  12.348  1.00  0.00     0.318 C 
HETATM    3  N   UNL     1     -42.075 -50.077  12.145  1.00  0.00    -0.343 N 
HETATM    4  N   UNL     1     -43.043 -51.896  13.236  1.00  0.00    -0.334 N 
HETATM    5  C   UNL     1     -44.136 -51.098  13.800  1.00  0.00     0.127 C 
HETATM    6  C   UNL     1     -45.350 -51.132  12.876  1.00  0.00     0.020 C 
HETATM    7  C   UNL     1     -46.308 -52.278  13.196  1.00  0.00     0.002 C 
HETATM    8  C   UNL     1     -45.671 -53.610  13.602  1.00  0.00     0.002 C 
HETATM    9  C   UNL     1     -44.390 -53.977  12.850  1.00  0.00     0.020 C 
HETATM   10  C   UNL     1     -43.133 -53.339  13.456  1.00  0.00     0.127 C 
HETATM   11  H   UNL     1     -42.786 -49.516  12.569  1.00  0.00     0.164 HD
ENDROOT
BRANCH   3  12
HETATM   12  C   UNL     1     -41.188 -49.396  11.217  1.00  0.00     0.130 C 
BRANCH  12  13
HETATM   13  C   UNL     1     -41.660 -47.956  11.046  1.00  0.00     0.076 C 
BRANCH  13  14
HETATM   14  C   UNL     1     -42.815 -47.814  10.100  1.00  0.00     0.010 A 
HETATM   15  C   UNL     1     -44.097 -47.585  10.584  1.00  0.00     0.025 A 
HETATM   16  C   UNL     1     -45.151 -47.528   9.676  1.00  0.00     0.003 A 
HETATM   17  C   UNL     1     -44.898 -47.701   8.322  1.00  0.00     0.017 A 
HETATM   18  C   UNL     1     -43.590 -47.912   7.925  1.00  0.00     0.088 A 
HETATM   19  N   UNL     1     -42.546 -47.973   8.781  1.00  0.00    -0.369 N 
ATOM     20  HN  UNL     1     -41.595 -48.132   8.447  1.00  0.00     0.165 HD
ENDBRANCH  13  14
ENDBRANCH  12  13
ENDBRANCH   3  12
TORSDOF 3
ENDMDL
MODEL 2
REMARK VINA RESULT:      -5.7      1.557      2.081
REMARK  3 active torsions:
REMARK  status: ('A' for Active; 'I' for Inactive)
REMARK       I    between atoms: C_2  and  N_3 
REMARK       I    between atoms: C_2  and  N_13 
REMARK    1  A    between atoms: N_3  and  C_4 
REMARK    2  A    between atoms: C_4  and  C_5 
REMARK    3  A    between atoms: C_5  and  C_6 
ROOT
HETATM    1  O   UNL     1     -39.203 -51.204  12.217  1.00  0.00    -0.247 OA
HETATM    2  C   UNL     1     -40.388 -51.065  12.519  1.00  0.00     0.318 C 
HETATM    3  N   UNL     1     -41.181 -50.156  11.879  1.00  0.00    -0.343 N 
HETATM    4  N   UNL     1     -41.007 -51.785  13.537  1.00  0.00    -0.334 N 
HETATM    5  C   UNL     1     -42.444 -51.773  13.833  1.00  0.00     0.127 C 
HETATM    6  C   UNL     1     -43.164 -52.833  13.005  1.00  0.00     0.020 C 
HETATM    7  C   UNL     1     -43.249 -54.184  13.714  1.00  0.00     0.002 C 
HETATM    8  C   UNL     1     -42.020 -54.610  14.522  1.00  0.00     0.002 C 
HETATM    9  C   UNL     1     -40.670 -54.244  13.901  1.00  0.00     0.020 C 
HETATM   10  C   UNL     1     -40.227 -52.812  14.227  1.00  0.00     0.127 C 
HETATM   11  H   UNL     1     -42.152 -50.103  12.112  1.00  0.00     0.164 HD
ENDROOT
BRANCH   3  12
HETATM   12  C   UNL     1     -40.745 -49.346  10.754  1.00  0.00     0.130 C 
BRANCH  12  13
HETATM   13  C   UNL     1     -41.378 -47.963  10.863  1.00  0.00     0.076 C 
BRANCH  13  14
HETATM   14  C   UNL     1     -42.618 -47.807  10.033  1.00  0.00     0.010 A 
HETATM   15  C   UNL     1     -43.845 -47.570  10.639  1.00  0.00     0.025 A 
HETATM   16  C   UNL     1     -44.981 -47.500   9.837  1.00  0.00     0.003 A 
HETATM   17  C   UNL     1     -44.860 -47.667   8.464  1.00  0.00     0.017 A 
HETATM   18  C   UNL     1     -43.599 -47.886   7.943  1.00  0.00     0.088 A 
HETATM   19  N   UNL     1     -42.478 -47.960   8.694  1.00  0.00    -0.369 N 
ATOM     20  HN  UNL     1     -41.565 -48.125   8.269  1.00  0.00     0.165 HD
ENDBRANCH  13  14
ENDBRANCH  12  13
ENDBRANCH   3  12
TORSDOF 3
ENDMDL
MODEL 3
REMARK VINA RESULT:      -5.6      3.947      6.416
REMARK  3 active torsions:
REMARK  status: ('A' for Active; 'I' for Inactive)
REMARK       I    between atoms: C_2  and  N_3 
REMARK       I    between atoms: C_2  and  N_13 
REMARK    1  A    between atoms: N_3  and  C_4 
REMARK    2  A    between atoms: C_4  and  C_5 
REMARK    3  A    between atoms: C_5  and  C_6 
ROOT
HETATM    1  O   UNL     1     -42.616 -54.652  14.480  1.00  0.00    -0.247 OA
HETATM    2  C   UNL     1     -42.390 -54.063  13.424  1.00  0.00     0.318 C 
HETATM    3  N   UNL     1     -43.381 -53.833  12.513  1.00  0.00    -0.343 N 
HETATM    4  N   UNL     1     -41.125 -53.612  13.055  1.00  0.00    -0.334 N 
HETATM    5  C   UNL     1     -40.829 -52.772  11.890  1.00  0.00     0.127 C 
HETATM    6  C   UNL     1     -40.960 -51.296  12.253  1.00  0.00     0.020 C 
HETATM    7  C   UNL     1     -39.650 -50.689  12.753  1.00  0.00     0.002 C 
HETATM    8  C   UNL     1     -38.781 -51.579  13.646  1.00  0.00     0.002 C 
HETATM    9  C   UNL     1     -39.548 -52.463  14.632  1.00  0.00     0.020 C 
HETATM   10  C   UNL     1     -40.030 -53.779  14.009  1.00  0.00     0.127 C 
HETATM   11  H   UNL     1     -43.177 -53.307  11.687  1.00  0.00     0.164 HD
ENDROOT
BRANCH   3  12
HETATM   12  C   UNL     1     -44.778 -54.174  12.728  1.00  0.00     0.130 C 
BRANCH  12  13
HETATM   13  C   UNL     1     -45.579 -52.889  12.917  1.00  0.00     0.076 C 
BRANCH  13  14
HETATM   14  C   UNL     1     -46.015 -52.661  14.334  1.00  0.00     0.010 A 
HETATM   15  C   UNL     1     -46.829 -51.583  14.656  1.00  0.00     0.025 A 
HETATM   16  C   UNL     1     -47.154 -51.369  15.992  1.00  0.00     0.003 A 
HETATM   17  C   UNL     1     -46.661 -52.231  16.963  1.00  0.00     0.017 A 
HETATM   18  C   UNL     1     -45.868 -53.287  16.553  1.00  0.00     0.088 A 
HETATM   19  N   UNL     1     -45.533 -53.521  15.265  1.00  0.00    -0.369 N 
ATOM     20  HN  UNL     1     -44.944 -54.312  15.005  1.00  0.00     0.165 HD
ENDBRANCH  13  14
ENDBRANCH  12  13
ENDBRANCH   3  12
TORSDOF 3
ENDMDL
MODEL 4
REMARK VINA RESULT:      -5.6      3.062      5.121
REMARK  3 active torsions:
REMARK  status: ('A' for Active; 'I' for Inactive)
REMARK       I    between atoms: C_2  and  N_3 
REMARK       I    between atoms: C_2  and  N_13 
REMARK    1  A    between atoms: N_3  and  C_4 
REMARK    2  A    between atoms: C_4  and  C_5 
REMARK    3  A    between atoms: C_5  and  C_6 
ROOT
HETATM    1  O   UNL     1     -43.914 -50.101  14.545  1.00  0.00    -0.247 OA
HETATM    2  C   UNL     1     -44.083 -50.880  13.608  1.00  0.00     0.318 C 
HETATM    3  N   UNL     1     -43.258 -50.870  12.520  1.00  0.00    -0.343 N 
HETATM    4  N   UNL     1     -45.124 -51.803  13.558  1.00  0.00    -0.334 N 
HETATM    5  C   UNL     1     -45.280 -52.854  12.548  1.00  0.00     0.127 C 
HETATM    6  C   UNL     1     -44.535 -54.116  12.975  1.00  0.00     0.020 C 
HETATM    7  C   UNL     1     -45.403 -55.071  13.792  1.00  0.00     0.002 C 
HETATM    8  C   UNL     1     -46.372 -54.431  14.790  1.00  0.00     0.002 C 
HETATM    9  C   UNL     1     -45.837 -53.196  15.519  1.00  0.00     0.020 C 
HETATM   10  C   UNL     1     -46.012 -51.901  14.716  1.00  0.00     0.127 C 
HETATM   11  H   UNL     1     -43.390 -51.550  11.798  1.00  0.00     0.164 HD
ENDROOT
BRANCH   3  12
HETATM   12  C   UNL     1     -42.082 -50.025  12.398  1.00  0.00     0.130 C 
BRANCH  12  13
HETATM   13  C   UNL     1     -40.949 -50.835  11.777  1.00  0.00     0.076 C 
BRANCH  13  14
HETATM   14  C   UNL     1     -40.565 -52.039  12.585  1.00  0.00     0.010 A 
HETATM   15  C   UNL     1     -39.676 -51.921  13.645  1.00  0.00     0.025 A 
HETATM   16  C   UNL     1     -39.294 -53.074  14.325  1.00  0.00     0.003 A 
HETATM   17  C   UNL     1     -39.806 -54.303  13.930  1.00  0.00     0.017 A 
HETATM   18  C   UNL     1     -40.695 -54.328  12.872  1.00  0.00     0.088 A 
HETATM   19  N   UNL     1     -41.085 -53.228  12.192  1.00  0.00    -0.369 N 
ATOM     20  HN  UNL     1     -41.743 -53.290  11.415  1.00  0.00     0.165 HD
ENDBRANCH  13  14
ENDBRANCH  12  13
ENDBRANCH   3  12
TORSDOF 3
ENDMDL
MODEL 5
REMARK VINA RESULT:      -5.6      3.349      4.810
REMARK  3 active torsions:
REMARK  status: ('A' for Active; 'I' for Inactive)
REMARK       I    between atoms: C_2  and  N_3 
REMARK       I    between atoms: C_2  and  N_13 
REMARK    1  A    between atoms: N_3  and  C_4 
REMARK    2  A    between atoms: C_4  and  C_5 
REMARK    3  A    between atoms: C_5  and  C_6 
ROOT
HETATM    1  O   UNL     1     -42.673 -52.743  12.018  1.00  0.00    -0.247 OA
HETATM    2  C   UNL     1     -42.988 -53.147  13.137  1.00  0.00     0.318 C 
HETATM    3  N   UNL     1     -42.052 -53.629  14.006  1.00  0.00    -0.343 N 
HETATM    4  N   UNL     1     -44.301 -53.174  13.598  1.00  0.00    -0.334 N 
HETATM    5  C   UNL     1     -44.714 -53.494  14.969  1.00  0.00     0.127 C 
HETATM    6  C   UNL     1     -44.717 -52.235  15.830  1.00  0.00     0.020 C 
HETATM    7  C   UNL     1     -46.063 -51.513  15.823  1.00  0.00     0.002 C 
HETATM    8  C   UNL     1     -46.813 -51.478  14.489  1.00  0.00     0.002 C 
HETATM    9  C   UNL     1     -45.934 -51.301  13.249  1.00  0.00     0.020 C 
HETATM   10  C   UNL     1     -45.346 -52.621  12.736  1.00  0.00     0.127 C 
HETATM   11  H   UNL     1     -42.332 -53.902  14.927  1.00  0.00     0.164 HD
ENDROOT
BRANCH   3  12
HETATM   12  C   UNL     1     -40.623 -53.637  13.741  1.00  0.00     0.130 C 
BRANCH  12  13
HETATM   13  C   UNL     1     -39.999 -52.384  14.347  1.00  0.00     0.076 C 
BRANCH  13  14
HETATM   14  C   UNL     1     -39.386 -51.471  13.328  1.00  0.00     0.010 A 
HETATM   15  C   UNL     1     -38.013 -51.258  13.308  1.00  0.00     0.025 A 
HETATM   16  C   UNL     1     -37.493 -50.351  12.389  1.00  0.00     0.003 A 
HETATM   17  C   UNL     1     -38.351 -49.686  11.523  1.00  0.00     0.017 A 
HETATM   18  C   UNL     1     -39.703 -49.967  11.603  1.00  0.00     0.088 A 
HETATM   19  N   UNL     1     -40.238 -50.841  12.483  1.00  0.00    -0.369 N 
ATOM     20  HN  UNL     1     -41.242 -51.019  12.509  1.00  0.00     0.165 HD
ENDBRANCH  13  14
ENDBRANCH  12  13
ENDBRANCH   3  12
TORSDOF 3
ENDMDL
MODEL 6
REMARK VINA RESULT:      -5.6      2.986      4.605
REMARK  3 active torsions:
REMARK  status: ('A' for Active; 'I' for Inactive)
REMARK       I    between atoms: C_2  and  N_3 
REMARK       I    between atoms: C_2  and  N_13 
REMARK    1  A    between atoms: N_3  and  C_4 
REMARK    2  A    between atoms: C_4  and  C_5 
REMARK    3  A    between atoms: C_5  and  C_6 
ROOT
HETATM    1  O   UNL     1     -43.979 -50.061  14.868  1.00  0.00    -0.247 OA
HETATM    2  C   UNL     1     -44.152 -50.752  13.865  1.00  0.00     0.318 C 
HETATM    3  N   UNL     1     -43.358 -50.616  12.763  1.00  0.00    -0.343 N 
HETATM    4  N   UNL     1     -45.170 -51.696  13.753  1.00  0.00    -0.334 N 
HETATM    5  C   UNL     1     -45.325 -52.652  12.652  1.00  0.00     0.127 C 
HETATM    6  C   UNL     1     -44.535 -53.925  12.939  1.00  0.00     0.020 C 
HETATM    7  C   UNL     1     -45.355 -54.979  13.682  1.00  0.00     0.002 C 
HETATM    8  C   UNL     1     -46.312 -54.464  14.760  1.00  0.00     0.002 C 
HETATM    9  C   UNL     1     -45.791 -53.288  15.590  1.00  0.00     0.020 C 
HETATM   10  C   UNL     1     -46.023 -51.929  14.918  1.00  0.00     0.127 C 
HETATM   11  H   UNL     1     -43.491 -51.228  11.983  1.00  0.00     0.164 HD
ENDROOT
BRANCH   3  12
HETATM   12  C   UNL     1     -42.209 -49.728  12.694  1.00  0.00     0.130 C 
BRANCH  12  13
HETATM   13  C   UNL     1     -41.340 -50.132  11.507  1.00  0.00     0.076 C 
BRANCH  13  14
HETATM   14  C   UNL     1     -39.911 -50.401  11.878  1.00  0.00     0.010 A 
HETATM   15  C   UNL     1     -39.605 -51.117  13.028  1.00  0.00     0.025 A 
HETATM   16  C   UNL     1     -38.267 -51.285  13.371  1.00  0.00     0.003 A 
HETATM   17  C   UNL     1     -37.279 -50.738  12.563  1.00  0.00     0.017 A 
HETATM   18  C   UNL     1     -37.672 -50.051  11.429  1.00  0.00     0.088 A 
HETATM   19  N   UNL     1     -38.962 -49.869  11.069  1.00  0.00    -0.369 N 
ATOM     20  HN  UNL     1     -39.210 -49.354  10.224  1.00  0.00     0.165 HD
ENDBRANCH  13  14
ENDBRANCH  12  13
ENDBRANCH   3  12
TORSDOF 3
ENDMDL
MODEL 7
REMARK VINA RESULT:      -5.5      1.702      2.802
REMARK  3 active torsions:
REMARK  status: ('A' for Active; 'I' for Inactive)
REMARK       I    between atoms: C_2  and  N_3 
REMARK       I    between atoms: C_2  and  N_13 
REMARK    1  A    between atoms: N_3  and  C_4 
REMARK    2  A    between atoms: C_4  and  C_5 
REMARK    3  A    between atoms: C_5  and  C_6 
ROOT
HETATM    1  O   UNL     1     -43.294 -50.337  12.860  1.00  0.00    -0.247 OA
HETATM    2  C   UNL     1     -42.535 -51.304  12.893  1.00  0.00     0.318 C 
HETATM    3  N   UNL     1     -41.180 -51.141  12.941  1.00  0.00    -0.343 N 
HETATM    4  N   UNL     1     -42.976 -52.624  12.855  1.00  0.00    -0.334 N 
HETATM    5  C   UNL     1     -42.132 -53.808  13.048  1.00  0.00     0.127 C 
HETATM    6  C   UNL     1     -42.041 -54.158  14.530  1.00  0.00     0.020 C 
HETATM    7  C   UNL     1     -43.132 -55.129  14.980  1.00  0.00     0.002 C 
HETATM    8  C   UNL     1     -44.521 -54.926  14.369  1.00  0.00     0.002 C 
HETATM    9  C   UNL     1     -44.940 -53.468  14.168  1.00  0.00     0.020 C 
HETATM   10  C   UNL     1     -44.418 -52.868  12.857  1.00  0.00     0.127 C 
HETATM   11  H   UNL     1     -40.591 -51.947  13.018  1.00  0.00     0.164 HD
ENDROOT
BRANCH   3  12
HETATM   12  C   UNL     1     -40.519 -49.851  13.042  1.00  0.00     0.130 C 
BRANCH  12  13
HETATM   13  C   UNL     1     -40.060 -49.418  11.653  1.00  0.00     0.076 C 
BRANCH  13  14
HETATM   14  C   UNL     1     -40.895 -48.318  11.065  1.00  0.00     0.010 A 
HETATM   15  C   UNL     1     -40.494 -46.993  11.179  1.00  0.00     0.025 A 
HETATM   16  C   UNL     1     -41.331 -46.000  10.679  1.00  0.00     0.003 A 
HETATM   17  C   UNL     1     -42.535 -46.354  10.085  1.00  0.00     0.017 A 
HETATM   18  C   UNL     1     -42.850 -47.698  10.003  1.00  0.00     0.088 A 
HETATM   19  N   UNL     1     -42.060 -48.685  10.478  1.00  0.00    -0.369 N 
ATOM     20  HN  UNL     1     -42.330 -49.666  10.398  1.00  0.00     0.165 HD
ENDBRANCH  13  14
ENDBRANCH  12  13
ENDBRANCH   3  12
TORSDOF 3
ENDMDL
MODEL 8
REMARK VINA RESULT:      -5.5      2.452      5.734
REMARK  3 active torsions:
REMARK  status: ('A' for Active; 'I' for Inactive)
REMARK       I    between atoms: C_2  and  N_3 
REMARK       I    between atoms: C_2  and  N_13 
REMARK    1  A    between atoms: N_3  and  C_4 
REMARK    2  A    between atoms: C_4  and  C_5 
REMARK    3  A    between atoms: C_5  and  C_6 
ROOT
HETATM    1  O   UNL     1     -39.606 -51.794  12.537  1.00  0.00    -0.247 OA
HETATM    2  C   UNL     1     -40.473 -51.108  11.997  1.00  0.00     0.318 C 
HETATM    3  N   UNL     1     -41.719 -51.607  11.748  1.00  0.00    -0.343 N 
HETATM    4  N   UNL     1     -40.259 -49.799  11.572  1.00  0.00    -0.334 N 
HETATM    5  C   UNL     1     -41.293 -48.889  11.070  1.00  0.00     0.127 C 
HETATM    6  C   UNL     1     -41.938 -48.129  12.225  1.00  0.00     0.020 C 
HETATM    7  C   UNL     1     -41.233 -46.810  12.536  1.00  0.00     0.002 C 
HETATM    8  C   UNL     1     -39.705 -46.811  12.435  1.00  0.00     0.002 C 
HETATM    9  C   UNL     1     -39.019 -48.088  12.925  1.00  0.00     0.020 C 
HETATM   10  C   UNL     1     -38.961 -49.187  11.857  1.00  0.00     0.127 C 
HETATM   11  H   UNL     1     -42.418 -51.008  11.354  1.00  0.00     0.164 HD
ENDROOT
BRANCH   3  12
HETATM   12  C   UNL     1     -42.164 -52.928  12.160  1.00  0.00     0.130 C 
BRANCH  12  13
HETATM   13  C   UNL     1     -42.778 -52.834  13.553  1.00  0.00     0.076 C 
BRANCH  13  14
HETATM   14  C   UNL     1     -44.195 -52.340  13.547  1.00  0.00     0.010 A 
HETATM   15  C   UNL     1     -44.684 -51.595  14.612  1.00  0.00     0.025 A 
HETATM   16  C   UNL     1     -46.023 -51.214  14.599  1.00  0.00     0.003 A 
HETATM   17  C   UNL     1     -46.829 -51.586  13.531  1.00  0.00     0.017 A 
HETATM   18  C   UNL     1     -46.257 -52.317  12.507  1.00  0.00     0.088 A 
HETATM   19  N   UNL     1     -44.962 -52.702  12.490  1.00  0.00    -0.369 N 
ATOM     20  HN  UNL     1     -44.579 -53.242  11.715  1.00  0.00     0.165 HD
ENDBRANCH  13  14
ENDBRANCH  12  13
ENDBRANCH   3  12
TORSDOF 3
ENDMDL
MODEL 9
REMARK VINA RESULT:      -5.4      2.396      3.374
REMARK  3 active torsions:
REMARK  status: ('A' for Active; 'I' for Inactive)
REMARK       I    between atoms: C_2  and  N_3 
REMARK       I    between atoms: C_2  and  N_13 
REMARK    1  A    between atoms: N_3  and  C_4 
REMARK    2  A    between atoms: C_4  and  C_5 
REMARK    3  A    between atoms: C_5  and  C_6 
ROOT
HETATM    1  O   UNL     1     -39.927 -50.217  11.439  1.00  0.00    -0.247 OA
HETATM    2  C   UNL     1     -41.065 -50.289  11.899  1.00  0.00     0.318 C 
HETATM    3  N   UNL     1     -42.057 -49.453  11.471  1.00  0.00    -0.343 N 
HETATM    4  N   UNL     1     -41.432 -51.189  12.895  1.00  0.00    -0.334 N 
HETATM    5  C   UNL     1     -42.801 -51.424  13.366  1.00  0.00     0.127 C 
HETATM    6  C   UNL     1     -43.478 -52.496  12.516  1.00  0.00     0.020 C 
HETATM    7  C   UNL     1     -43.276 -53.907  13.067  1.00  0.00     0.002 C 
HETATM    8  C   UNL     1     -41.900 -54.218  13.662  1.00  0.00     0.002 C 
HETATM    9  C   UNL     1     -40.713 -53.592  12.926  1.00  0.00     0.020 C 
HETATM   10  C   UNL     1     -40.430 -52.149  13.359  1.00  0.00     0.127 C 
HETATM   11  H   UNL     1     -42.985 -49.570  11.827  1.00  0.00     0.164 HD
ENDROOT
BRANCH   3  12
HETATM   12  C   UNL     1     -41.897 -48.481  10.403  1.00  0.00     0.130 C 
BRANCH  12  13
HETATM   13  C   UNL     1     -42.620 -47.194  10.790  1.00  0.00     0.076 C 
BRANCH  13  14
HETATM   14  C   UNL     1     -41.718 -45.997  10.844  1.00  0.00     0.010 A 
HETATM   15  C   UNL     1     -42.158 -44.809  11.413  1.00  0.00     0.025 A 
HETATM   16  C   UNL     1     -41.315 -43.702  11.382  1.00  0.00     0.003 A 
HETATM   17  C   UNL     1     -40.064 -43.812  10.787  1.00  0.00     0.017 A 
HETATM   18  C   UNL     1     -39.701 -45.035  10.256  1.00  0.00     0.088 A 
HETATM   19  N   UNL     1     -40.497 -46.127  10.270  1.00  0.00    -0.369 N 
ATOM     20  HN  UNL     1     -40.191 -47.012   9.865  1.00  0.00     0.165 HD
ENDBRANCH  13  14
ENDBRANCH  12  13
ENDBRANCH   3  12
TORSDOF 3
ENDMDL
