MODEL 1
REMARK VINA RESULT:      -5.9      0.000      0.000
REMARK  4 active torsions:
REMARK  status: ('A' for Active; 'I' for Inactive)
REMARK    1  A    between atoms: N_4  and  C_5 
REMARK    2  A    between atoms: C_5  and  O_6 
REMARK    3  A    between atoms: O_6  and  C_7 
REMARK    4  A    between atoms: C_7  and  C_8 
ROOT
HETATM    1  C   UNL     1     -45.327 -47.428   9.435  1.00  0.00     0.056 C 
HETATM    2  C   UNL     1     -43.937 -47.369   9.975  1.00  0.00     0.022 A 
HETATM    3  C   UNL     1     -43.479 -48.143  10.968  1.00  0.00     0.110 A 
HETATM    4  N   UNL     1     -42.183 -48.056  11.440  1.00  0.00    -0.287 N 
HETATM    5  C   UNL     1     -41.285 -47.129  10.934  1.00  0.00     0.331 A 
HETATM    6  O   UNL     1     -40.154 -46.951  11.381  1.00  0.00    -0.246 OA
HETATM    7  N   UNL     1     -41.739 -46.378   9.883  1.00  0.00    -0.275 N 
HETATM    8  C   UNL     1     -43.008 -46.382   9.381  1.00  0.00     0.256 A 
HETATM    9  O   UNL     1     -43.361 -45.605   8.501  1.00  0.00    -0.267 OA
HETATM   10  H   UNL     1     -41.102 -45.691   9.511  1.00  0.00     0.173 HD
ENDROOT
BRANCH   4  11
HETATM   11  C   UNL     1     -41.751 -48.841  12.587  1.00  0.00     0.303 C 
BRANCH  11  12
HETATM   12  O   UNL     1     -42.539 -50.019  12.699  1.00  0.00    -0.367 OA
BRANCH  12  13
HETATM   13  C   UNL     1     -42.714 -50.410  14.059  1.00  0.00     0.208 C 
BRANCH  13  14
HETATM   14  C   UNL     1     -44.156 -50.789  14.294  1.00  0.00    -0.035 A 
HETATM   15  C   UNL     1     -44.717 -50.749  15.579  1.00  0.00     0.009 A 
HETATM   16  C   UNL     1     -46.053 -51.093  15.785  1.00  0.00     0.001 A 
HETATM   17  C   UNL     1     -46.851 -51.464  14.705  1.00  0.00     0.000 A 
HETATM   18  C   UNL     1     -46.314 -51.484  13.419  1.00  0.00     0.001 A 
HETATM   19  C   UNL     1     -44.976 -51.143  13.212  1.00  0.00     0.009 A 
ENDBRANCH  13  14
ENDBRANCH  12  13
ENDBRANCH  11  12
ENDBRANCH   4  11
TORSDOF 4
ENDMDL
MODEL 2
REMARK VINA RESULT:      -5.7      4.686      6.954
REMARK  4 active torsions:
REMARK  status: ('A' for Active; 'I' for Inactive)
REMARK    1  A    between atoms: N_4  and  C_5 
REMARK    2  A    between atoms: C_5  and  O_6 
REMARK    3  A    between atoms: O_6  and  C_7 
REMARK    4  A    between atoms: C_7  and  C_8 
ROOT
HETATM    1  C   UNL     1     -45.053 -54.946  14.319  1.00  0.00     0.056 C 
HETATM    2  C   UNL     1     -43.936 -54.224  13.643  1.00  0.00     0.022 A 
HETATM    3  C   UNL     1     -42.654 -54.286  14.026  1.00  0.00     0.110 A 
HETATM    4  N   UNL     1     -41.649 -53.599  13.373  1.00  0.00    -0.287 N 
HETATM    5  C   UNL     1     -41.917 -52.770  12.294  1.00  0.00     0.331 A 
HETATM    6  O   UNL     1     -41.074 -52.070  11.738  1.00  0.00    -0.246 OA
HETATM    7  N   UNL     1     -43.218 -52.752  11.870  1.00  0.00    -0.275 N 
HETATM    8  C   UNL     1     -44.270 -53.374  12.477  1.00  0.00     0.256 A 
HETATM    9  O   UNL     1     -45.424 -53.227  12.090  1.00  0.00    -0.267 OA
HETATM   10  H   UNL     1     -43.432 -52.146  11.094  1.00  0.00     0.173 HD
ENDROOT
BRANCH   4  11
HETATM   11  C   UNL     1     -40.284 -53.609  13.880  1.00  0.00     0.303 C 
BRANCH  11  12
HETATM   12  O   UNL     1     -40.138 -52.642  14.911  1.00  0.00    -0.367 OA
BRANCH  12  13
HETATM   13  C   UNL     1     -38.816 -52.110  14.953  1.00  0.00     0.208 C 
BRANCH  13  14
HETATM   14  C   UNL     1     -38.662 -51.055  13.885  1.00  0.00    -0.035 A 
HETATM   15  C   UNL     1     -39.463 -49.903  13.883  1.00  0.00     0.009 A 
HETATM   16  C   UNL     1     -39.308 -48.929  12.896  1.00  0.00     0.001 A 
HETATM   17  C   UNL     1     -38.337 -49.084  11.910  1.00  0.00     0.000 A 
HETATM   18  C   UNL     1     -37.516 -50.211  11.915  1.00  0.00     0.001 A 
HETATM   19  C   UNL     1     -37.673 -51.189  12.900  1.00  0.00     0.009 A 
ENDBRANCH  13  14
ENDBRANCH  12  13
ENDBRANCH  11  12
ENDBRANCH   4  11
TORSDOF 4
ENDMDL
MODEL 3
REMARK VINA RESULT:      -5.7      5.429      6.715
REMARK  4 active torsions:
REMARK  status: ('A' for Active; 'I' for Inactive)
REMARK    1  A    between atoms: N_4  and  C_5 
REMARK    2  A    between atoms: C_5  and  O_6 
REMARK    3  A    between atoms: O_6  and  C_7 
REMARK    4  A    between atoms: C_7  and  C_8 
ROOT
HETATM    1  C   UNL     1     -40.923 -54.787  15.413  1.00  0.00     0.056 C 
HETATM    2  C   UNL     1     -42.077 -54.425  14.538  1.00  0.00     0.022 A 
HETATM    3  C   UNL     1     -43.355 -54.715  14.815  1.00  0.00     0.110 A 
HETATM    4  N   UNL     1     -44.395 -54.363  13.977  1.00  0.00    -0.287 N 
HETATM    5  C   UNL     1     -44.171 -53.714  12.772  1.00  0.00     0.331 A 
HETATM    6  O   UNL     1     -45.050 -53.461  11.952  1.00  0.00    -0.246 OA
HETATM    7  N   UNL     1     -42.871 -53.370  12.518  1.00  0.00    -0.275 N 
HETATM    8  C   UNL     1     -41.787 -53.706  13.276  1.00  0.00     0.256 A 
HETATM    9  O   UNL     1     -40.641 -53.444  12.927  1.00  0.00    -0.267 OA
HETATM   10  H   UNL     1     -42.688 -52.908  11.642  1.00  0.00     0.173 HD
ENDROOT
BRANCH   4  11
HETATM   11  C   UNL     1     -45.760 -54.784  14.260  1.00  0.00     0.303 C 
BRANCH  11  12
HETATM   12  O   UNL     1     -46.291 -54.027  15.339  1.00  0.00    -0.367 OA
BRANCH  12  13
HETATM   13  C   UNL     1     -46.904 -52.821  14.887  1.00  0.00     0.208 C 
BRANCH  13  14
HETATM   14  C   UNL     1     -46.735 -51.746  15.933  1.00  0.00    -0.035 A 
HETATM   15  C   UNL     1     -47.784 -51.406  16.800  1.00  0.00     0.009 A 
HETATM   16  C   UNL     1     -47.615 -50.418  17.770  1.00  0.00     0.001 A 
HETATM   17  C   UNL     1     -46.389 -49.769  17.898  1.00  0.00     0.000 A 
HETATM   18  C   UNL     1     -45.330 -50.114  17.060  1.00  0.00     0.001 A 
HETATM   19  C   UNL     1     -45.499 -51.101  16.086  1.00  0.00     0.009 A 
ENDBRANCH  13  14
ENDBRANCH  12  13
ENDBRANCH  11  12
ENDBRANCH   4  11
TORSDOF 4
ENDMDL
MODEL 4
REMARK VINA RESULT:      -5.7      2.322      5.868
REMARK  4 active torsions:
REMARK  status: ('A' for Active; 'I' for Inactive)
REMARK    1  A    between atoms: N_4  and  C_5 
REMARK    2  A    between atoms: C_5  and  O_6 
REMARK    3  A    between atoms: O_6  and  C_7 
REMARK    4  A    between atoms: C_7  and  C_8 
ROOT
HETATM    1  C   UNL     1     -46.265 -51.555  13.805  1.00  0.00     0.056 C 
HETATM    2  C   UNL     1     -44.872 -51.660  13.279  1.00  0.00     0.022 A 
HETATM    3  C   UNL     1     -43.962 -50.680  13.349  1.00  0.00     0.110 A 
HETATM    4  N   UNL     1     -42.682 -50.818  12.848  1.00  0.00    -0.287 N 
HETATM    5  C   UNL     1     -42.273 -51.976  12.206  1.00  0.00     0.331 A 
HETATM    6  O   UNL     1     -41.178 -52.113  11.665  1.00  0.00    -0.246 OA
HETATM    7  N   UNL     1     -43.185 -52.995  12.185  1.00  0.00    -0.275 N 
HETATM    8  C   UNL     1     -44.475 -52.930  12.628  1.00  0.00     0.256 A 
HETATM    9  O   UNL     1     -45.261 -53.859  12.483  1.00  0.00    -0.267 OA
HETATM   10  H   UNL     1     -42.908 -53.841  11.713  1.00  0.00     0.173 HD
ENDROOT
BRANCH   4  11
HETATM   11  C   UNL     1     -41.753 -49.696  12.850  1.00  0.00     0.303 C 
BRANCH  11  12
HETATM   12  O   UNL     1     -42.454 -48.481  12.622  1.00  0.00    -0.367 OA
BRANCH  12  13
HETATM   13  C   UNL     1     -41.933 -47.775  11.498  1.00  0.00     0.208 C 
BRANCH  13  14
HETATM   14  C   UNL     1     -42.975 -47.722  10.407  1.00  0.00    -0.035 A 
HETATM   15  C   UNL     1     -42.609 -47.726   9.053  1.00  0.00     0.009 A 
HETATM   16  C   UNL     1     -43.580 -47.686   8.052  1.00  0.00     0.001 A 
HETATM   17  C   UNL     1     -44.931 -47.661   8.392  1.00  0.00     0.000 A 
HETATM   18  C   UNL     1     -45.310 -47.683   9.733  1.00  0.00     0.001 A 
HETATM   19  C   UNL     1     -44.338 -47.719  10.736  1.00  0.00     0.009 A 
ENDBRANCH  13  14
ENDBRANCH  12  13
ENDBRANCH  11  12
ENDBRANCH   4  11
TORSDOF 4
ENDMDL
MODEL 5
REMARK VINA RESULT:      -5.5      2.827      6.348
REMARK  4 active torsions:
REMARK  status: ('A' for Active; 'I' for Inactive)
REMARK    1  A    between atoms: N_4  and  C_5 
REMARK    2  A    between atoms: C_5  and  O_6 
REMARK    3  A    between atoms: O_6  and  C_7 
REMARK    4  A    between atoms: C_7  and  C_8 
ROOT
HETATM    1  C   UNL     1     -45.631 -51.576  13.297  1.00  0.00     0.056 C 
HETATM    2  C   UNL     1     -44.229 -52.033  13.070  1.00  0.00     0.022 A 
HETATM    3  C   UNL     1     -43.151 -51.244  13.174  1.00  0.00     0.110 A 
HETATM    4  N   UNL     1     -41.868 -51.707  12.953  1.00  0.00    -0.287 N 
HETATM    5  C   UNL     1     -41.623 -53.017  12.574  1.00  0.00     0.331 A 
HETATM    6  O   UNL     1     -40.512 -53.452  12.279  1.00  0.00    -0.246 OA
HETATM    7  N   UNL     1     -42.719 -53.834  12.523  1.00  0.00    -0.275 N 
HETATM    8  C   UNL     1     -44.018 -53.450  12.695  1.00  0.00     0.256 A 
HETATM    9  O   UNL     1     -44.953 -54.225  12.534  1.00  0.00    -0.267 OA
HETATM   10  H   UNL     1     -42.560 -54.788  12.237  1.00  0.00     0.173 HD
ENDROOT
BRANCH   4  11
HETATM   11  C   UNL     1     -40.731 -50.798  12.975  1.00  0.00     0.303 C 
BRANCH  11  12
HETATM   12  O   UNL     1     -40.560 -50.198  11.698  1.00  0.00    -0.367 OA
BRANCH  12  13
HETATM   13  C   UNL     1     -39.992 -48.894  11.799  1.00  0.00     0.208 C 
BRANCH  13  14
HETATM   14  C   UNL     1     -40.898 -47.895  11.122  1.00  0.00    -0.035 A 
HETATM   15  C   UNL     1     -42.196 -48.247  10.721  1.00  0.00     0.009 A 
HETATM   16  C   UNL     1     -43.029 -47.313  10.105  1.00  0.00     0.001 A 
HETATM   17  C   UNL     1     -42.582 -46.010   9.897  1.00  0.00     0.000 A 
HETATM   18  C   UNL     1     -41.305 -45.639  10.314  1.00  0.00     0.001 A 
HETATM   19  C   UNL     1     -40.468 -46.574  10.928  1.00  0.00     0.009 A 
ENDBRANCH  13  14
ENDBRANCH  12  13
ENDBRANCH  11  12
ENDBRANCH   4  11
TORSDOF 4
ENDMDL
MODEL 6
REMARK VINA RESULT:      -5.4      5.265      7.658
REMARK  4 active torsions:
REMARK  status: ('A' for Active; 'I' for Inactive)
REMARK    1  A    between atoms: N_4  and  C_5 
REMARK    2  A    between atoms: C_5  and  O_6 
REMARK    3  A    between atoms: O_6  and  C_7 
REMARK    4  A    between atoms: C_7  and  C_8 
ROOT
HETATM    1  C   UNL     1     -41.428 -56.515  17.252  1.00  0.00     0.056 C 
HETATM    2  C   UNL     1     -40.720 -55.675  16.241  1.00  0.00     0.022 A 
HETATM    3  C   UNL     1     -41.325 -54.800  15.429  1.00  0.00     0.110 A 
HETATM    4  N   UNL     1     -40.632 -54.042  14.504  1.00  0.00    -0.287 N 
HETATM    5  C   UNL     1     -39.262 -54.171  14.339  1.00  0.00     0.331 A 
HETATM    6  O   UNL     1     -38.615 -53.588  13.472  1.00  0.00    -0.246 OA
HETATM    7  N   UNL     1     -38.639 -55.025  15.208  1.00  0.00    -0.275 N 
HETATM    8  C   UNL     1     -39.252 -55.830  16.124  1.00  0.00     0.256 A 
HETATM    9  O   UNL     1     -38.629 -56.642  16.798  1.00  0.00    -0.267 OA
HETATM   10  H   UNL     1     -37.644 -55.140  15.093  1.00  0.00     0.173 HD
ENDROOT
BRANCH   4  11
HETATM   11  C   UNL     1     -41.335 -53.176  13.569  1.00  0.00     0.303 C 
BRANCH  11  12
HETATM   12  O   UNL     1     -42.594 -53.741  13.230  1.00  0.00    -0.367 OA
BRANCH  12  13
HETATM   13  C   UNL     1     -43.467 -52.776  12.646  1.00  0.00     0.208 C 
BRANCH  13  14
HETATM   14  C   UNL     1     -44.753 -52.717  13.433  1.00  0.00    -0.035 A 
HETATM   15  C   UNL     1     -45.299 -53.870  14.019  1.00  0.00     0.009 A 
HETATM   16  C   UNL     1     -46.484 -53.803  14.751  1.00  0.00     0.001 A 
HETATM   17  C   UNL     1     -47.129 -52.581  14.924  1.00  0.00     0.000 A 
HETATM   18  C   UNL     1     -46.585 -51.424  14.371  1.00  0.00     0.001 A 
HETATM   19  C   UNL     1     -45.400 -51.489  13.633  1.00  0.00     0.009 A 
ENDBRANCH  13  14
ENDBRANCH  12  13
ENDBRANCH  11  12
ENDBRANCH   4  11
TORSDOF 4
ENDMDL
MODEL 7
REMARK VINA RESULT:      -5.4      5.594      7.381
REMARK  4 active torsions:
REMARK  status: ('A' for Active; 'I' for Inactive)
REMARK    1  A    between atoms: N_4  and  C_5 
REMARK    2  A    between atoms: C_5  and  O_6 
REMARK    3  A    between atoms: O_6  and  C_7 
REMARK    4  A    between atoms: C_7  and  C_8 
ROOT
HETATM    1  C   UNL     1     -44.423 -54.976  14.284  1.00  0.00     0.056 C 
HETATM    2  C   UNL     1     -43.438 -54.103  13.580  1.00  0.00     0.022 A 
HETATM    3  C   UNL     1     -42.147 -53.995  13.919  1.00  0.00     0.110 A 
HETATM    4  N   UNL     1     -41.267 -53.173  13.242  1.00  0.00    -0.287 N 
HETATM    5  C   UNL     1     -41.681 -52.379  12.184  1.00  0.00     0.331 A 
HETATM    6  O   UNL     1     -40.960 -51.567  11.609  1.00  0.00    -0.246 OA
HETATM    7  N   UNL     1     -42.987 -52.534  11.804  1.00  0.00    -0.275 N 
HETATM    8  C   UNL     1     -43.924 -53.297  12.437  1.00  0.00     0.256 A 
HETATM    9  O   UNL     1     -45.100 -53.304  12.092  1.00  0.00    -0.267 OA
HETATM   10  H   UNL     1     -43.308 -51.955  11.043  1.00  0.00     0.173 HD
ENDROOT
BRANCH   4  11
HETATM   11  C   UNL     1     -39.896 -53.003  13.702  1.00  0.00     0.303 C 
BRANCH  11  12
HETATM   12  O   UNL     1     -39.398 -54.231  14.217  1.00  0.00    -0.367 OA
BRANCH  12  13
HETATM   13  C   UNL     1     -38.903 -54.084  15.546  1.00  0.00     0.208 C 
BRANCH  13  14
HETATM   14  C   UNL     1     -39.137 -55.361  16.316  1.00  0.00    -0.035 A 
HETATM   15  C   UNL     1     -38.088 -56.005  16.990  1.00  0.00     0.009 A 
HETATM   16  C   UNL     1     -38.316 -57.180  17.706  1.00  0.00     0.001 A 
HETATM   17  C   UNL     1     -39.599 -57.717  17.773  1.00  0.00     0.000 A 
HETATM   18  C   UNL     1     -40.656 -57.075  17.129  1.00  0.00     0.001 A 
HETATM   19  C   UNL     1     -40.428 -55.900  16.409  1.00  0.00     0.009 A 
ENDBRANCH  13  14
ENDBRANCH  12  13
ENDBRANCH  11  12
ENDBRANCH   4  11
TORSDOF 4
ENDMDL
MODEL 8
REMARK VINA RESULT:      -5.3      4.194      6.886
REMARK  4 active torsions:
REMARK  status: ('A' for Active; 'I' for Inactive)
REMARK    1  A    between atoms: N_4  and  C_5 
REMARK    2  A    between atoms: C_5  and  O_6 
REMARK    3  A    between atoms: O_6  and  C_7 
REMARK    4  A    between atoms: C_7  and  C_8 
ROOT
HETATM    1  C   UNL     1     -42.044 -55.860  16.404  1.00  0.00     0.056 C 
HETATM    2  C   UNL     1     -41.178 -54.948  15.600  1.00  0.00     0.022 A 
HETATM    3  C   UNL     1     -41.633 -53.916  14.878  1.00  0.00     0.110 A 
HETATM    4  N   UNL     1     -40.797 -53.096  14.145  1.00  0.00    -0.287 N 
HETATM    5  C   UNL     1     -39.430 -53.318  14.085  1.00  0.00     0.331 A 
HETATM    6  O   UNL     1     -38.659 -52.674  13.377  1.00  0.00    -0.246 OA
HETATM    7  N   UNL     1     -38.962 -54.338  14.867  1.00  0.00    -0.275 N 
HETATM    8  C   UNL     1     -39.721 -55.210  15.592  1.00  0.00     0.256 A 
HETATM    9  O   UNL     1     -39.229 -56.162  16.189  1.00  0.00    -0.267 OA
HETATM   10  H   UNL     1     -37.971 -54.521  14.826  1.00  0.00     0.173 HD
ENDROOT
BRANCH   4  11
HETATM   11  C   UNL     1     -41.338 -52.047  13.292  1.00  0.00     0.303 C 
BRANCH  11  12
HETATM   12  O   UNL     1     -41.934 -51.030  14.085  1.00  0.00    -0.367 OA
BRANCH  12  13
HETATM   13  C   UNL     1     -42.988 -50.367  13.389  1.00  0.00     0.208 C 
BRANCH  13  14
HETATM   14  C   UNL     1     -44.314 -50.741  14.007  1.00  0.00    -0.035 A 
HETATM   15  C   UNL     1     -45.352 -51.275  13.229  1.00  0.00     0.009 A 
HETATM   16  C   UNL     1     -46.571 -51.625  13.810  1.00  0.00     0.001 A 
HETATM   17  C   UNL     1     -46.761 -51.463  15.180  1.00  0.00     0.000 A 
HETATM   18  C   UNL     1     -45.730 -50.958  15.970  1.00  0.00     0.001 A 
HETATM   19  C   UNL     1     -44.510 -50.603  15.389  1.00  0.00     0.009 A 
ENDBRANCH  13  14
ENDBRANCH  12  13
ENDBRANCH  11  12
ENDBRANCH   4  11
TORSDOF 4
ENDMDL
MODEL 9
REMARK VINA RESULT:      -5.3      3.052      4.058
REMARK  4 active torsions:
REMARK  status: ('A' for Active; 'I' for Inactive)
REMARK    1  A    between atoms: N_4  and  C_5 
REMARK    2  A    between atoms: C_5  and  O_6 
REMARK    3  A    between atoms: O_6  and  C_7 
REMARK    4  A    between atoms: C_7  and  C_8 
ROOT
HETATM    1  C   UNL     1     -41.851 -48.172  13.310  1.00  0.00     0.056 C 
HETATM    2  C   UNL     1     -41.543 -49.604  13.021  1.00  0.00     0.022 A 
HETATM    3  C   UNL     1     -41.602 -50.587  13.929  1.00  0.00     0.110 A 
HETATM    4  N   UNL     1     -41.308 -51.901  13.620  1.00  0.00    -0.287 N 
HETATM    5  C   UNL     1     -40.895 -52.276  12.351  1.00  0.00     0.331 A 
HETATM    6  O   UNL     1     -40.536 -53.412  12.051  1.00  0.00    -0.246 OA
HETATM    7  N   UNL     1     -40.889 -51.279  11.413  1.00  0.00    -0.275 N 
HETATM    8  C   UNL     1     -41.135 -49.957  11.642  1.00  0.00     0.256 A 
HETATM    9  O   UNL     1     -41.012 -49.109  10.765  1.00  0.00    -0.267 OA
HETATM   10  H   UNL     1     -40.581 -51.532  10.487  1.00  0.00     0.173 HD
ENDROOT
BRANCH   4  11
HETATM   11  C   UNL     1     -41.284 -52.925  14.655  1.00  0.00     0.303 C 
BRANCH  11  12
HETATM   12  O   UNL     1     -42.467 -52.856  15.439  1.00  0.00    -0.367 OA
BRANCH  12  13
HETATM   13  C   UNL     1     -43.458 -53.775  14.983  1.00  0.00     0.208 C 
BRANCH  13  14
HETATM   14  C   UNL     1     -44.599 -53.015  14.351  1.00  0.00    -0.035 A 
HETATM   15  C   UNL     1     -45.373 -52.114  15.099  1.00  0.00     0.009 A 
HETATM   16  C   UNL     1     -46.419 -51.410  14.504  1.00  0.00     0.001 A 
HETATM   17  C   UNL     1     -46.695 -51.582  13.150  1.00  0.00     0.000 A 
HETATM   18  C   UNL     1     -45.918 -52.454  12.389  1.00  0.00     0.001 A 
HETATM   19  C   UNL     1     -44.872 -53.163  12.984  1.00  0.00     0.009 A 
ENDBRANCH  13  14
ENDBRANCH  12  13
ENDBRANCH  11  12
ENDBRANCH   4  11
TORSDOF 4
ENDMDL
