MODEL 1
REMARK VINA RESULT:      -5.7      0.000      0.000
REMARK  5 active torsions:
REMARK  status: ('A' for Active; 'I' for Inactive)
REMARK    1  A    between atoms: C_2  and  C_4 
REMARK    2  A    between atoms: C_8  and  C_9 
REMARK    3  A    between atoms: C_9  and  C_10 
REMARK    4  A    between atoms: C_10  and  N_11 
REMARK    5  A    between atoms: N_11  and  C_12 
ROOT
HETATM    1  C   UNL     1     -42.883 -47.865   9.859  1.00  0.00     0.107 A 
HETATM    2  N   UNL     1     -41.625 -48.323   9.886  1.00  0.00    -0.247 N 
ATOM      3  HN  UNL     1     -40.916 -48.272   9.155  1.00  0.00     0.196 HD
HETATM    4  O   UNL     1     -41.520 -48.886  11.160  1.00  0.00    -0.223 OA
HETATM    5  C   UNL     1     -42.733 -48.708  11.767  1.00  0.00     0.149 A 
HETATM    6  N   UNL     1     -43.611 -48.116  10.992  1.00  0.00    -0.327 N 
ATOM      7  HN  UNL     1     -44.589 -47.898  11.184  1.00  0.00     0.169 HD
ENDROOT
BRANCH   5   8
HETATM    8  C   UNL     1     -42.858 -49.237  13.151  1.00  0.00     0.117 C 
BRANCH   8   9
HETATM    9  C   UNL     1     -42.697 -50.762  13.252  1.00  0.00     0.278 C 
BRANCH   9  10
HETATM   10  N   UNL     1     -43.807 -51.418  13.943  1.00  0.00     0.089 N 
HETATM   11  H   UNL     1     -44.315 -50.765  14.537  1.00  0.00     0.316 HD
BRANCH  10  12
HETATM   12  C   UNL     1     -44.729 -52.169  13.075  1.00  0.00     0.229 C 
HETATM   13  C   UNL     1     -46.102 -51.469  13.085  1.00  0.00     0.037 C 
HETATM   14  C   UNL     1     -46.785 -51.460  14.455  1.00  0.00     0.012 C 
HETATM   15  C   UNL     1     -46.996 -52.836  15.082  1.00  0.00     0.074 C 
HETATM   16  S   UNL     1     -45.541 -53.920  15.124  1.00  0.00    -0.167 SA
HETATM   17  C   UNL     1     -44.934 -53.657  13.428  1.00  0.00     0.109 C 
ENDBRANCH  10  12
ENDBRANCH   9  10
ENDBRANCH   8   9
ENDBRANCH   5   8
BRANCH   1  18
HETATM   18  C   UNL     1     -43.449 -47.122   8.694  1.00  0.00     0.047 C 
HETATM   19  C   UNL     1     -43.433 -47.968   7.420  1.00  0.00     0.017 C 
HETATM   20  C   UNL     1     -44.871 -46.643   8.992  1.00  0.00     0.017 C 
ENDBRANCH   1  18
TORSDOF 5
ENDMDL
MODEL 2
REMARK VINA RESULT:      -5.7      3.418      4.110
REMARK  5 active torsions:
REMARK  status: ('A' for Active; 'I' for Inactive)
REMARK    1  A    between atoms: C_2  and  C_4 
REMARK    2  A    between atoms: C_8  and  C_9 
REMARK    3  A    between atoms: C_9  and  C_10 
REMARK    4  A    between atoms: C_10  and  N_11 
REMARK    5  A    between atoms: N_11  and  C_12 
ROOT
HETATM    1  C   UNL     1     -39.840 -50.972  12.267  1.00  0.00     0.107 A 
HETATM    2  N   UNL     1     -40.744 -51.058  11.285  1.00  0.00    -0.247 N 
ATOM      3  HN  UNL     1     -40.932 -50.392  10.536  1.00  0.00     0.196 HD
HETATM    4  O   UNL     1     -41.370 -52.282  11.536  1.00  0.00    -0.223 OA
HETATM    5  C   UNL     1     -40.773 -52.804  12.650  1.00  0.00     0.149 A 
HETATM    6  N   UNL     1     -39.851 -52.017  13.153  1.00  0.00    -0.327 N 
ATOM      7  HN  UNL     1     -39.285 -52.150  13.991  1.00  0.00     0.169 HD
ENDROOT
BRANCH   5   8
HETATM    8  C   UNL     1     -41.283 -54.122  13.112  1.00  0.00     0.117 C 
BRANCH   8   9
HETATM    9  C   UNL     1     -42.551 -54.031  13.976  1.00  0.00     0.278 C 
BRANCH   9  10
HETATM   10  N   UNL     1     -43.539 -53.083  13.459  1.00  0.00     0.089 N 
HETATM   11  H   UNL     1     -43.126 -52.451  12.776  1.00  0.00     0.316 HD
BRANCH  10  12
HETATM   12  C   UNL     1     -44.776 -53.687  12.940  1.00  0.00     0.229 C 
HETATM   13  C   UNL     1     -45.760 -52.563  12.565  1.00  0.00     0.037 C 
HETATM   14  C   UNL     1     -46.217 -51.715  13.755  1.00  0.00     0.012 C 
HETATM   15  C   UNL     1     -46.866 -52.496  14.895  1.00  0.00     0.074 C 
HETATM   16  S   UNL     1     -45.948 -53.946  15.485  1.00  0.00    -0.167 SA
HETATM   17  C   UNL     1     -45.495 -54.676  13.880  1.00  0.00     0.109 C 
ENDBRANCH  10  12
ENDBRANCH   9  10
ENDBRANCH   8   9
ENDBRANCH   5   8
BRANCH   1  18
HETATM   18  C   UNL     1     -38.878 -49.836  12.385  1.00  0.00     0.047 C 
HETATM   19  C   UNL     1     -37.634 -50.054  11.522  1.00  0.00     0.017 C 
HETATM   20  C   UNL     1     -39.551 -48.511  12.017  1.00  0.00     0.017 C 
ENDBRANCH   1  18
TORSDOF 5
ENDMDL
MODEL 3
REMARK VINA RESULT:      -5.5      1.715      2.566
REMARK  5 active torsions:
REMARK  status: ('A' for Active; 'I' for Inactive)
REMARK    1  A    between atoms: C_2  and  C_4 
REMARK    2  A    between atoms: C_8  and  C_9 
REMARK    3  A    between atoms: C_9  and  C_10 
REMARK    4  A    between atoms: C_10  and  N_11 
REMARK    5  A    between atoms: N_11  and  C_12 
ROOT
HETATM    1  C   UNL     1     -43.091 -47.631   9.900  1.00  0.00     0.107 A 
HETATM    2  N   UNL     1     -43.383 -47.278  11.158  1.00  0.00    -0.247 N 
ATOM      3  HN  UNL     1     -44.141 -46.683  11.490  1.00  0.00     0.196 HD
HETATM    4  O   UNL     1     -42.395 -47.925  11.905  1.00  0.00    -0.223 OA
HETATM    5  C   UNL     1     -41.608 -48.600  11.012  1.00  0.00     0.149 A 
HETATM    6  N   UNL     1     -41.979 -48.419   9.766  1.00  0.00    -0.327 N 
ATOM      7  HN  UNL     1     -41.548 -48.776   8.913  1.00  0.00     0.169 HD
ENDROOT
BRANCH   5   8
HETATM    8  C   UNL     1     -40.476 -49.371  11.588  1.00  0.00     0.117 C 
BRANCH   8   9
HETATM    9  C   UNL     1     -40.811 -50.840  11.890  1.00  0.00     0.278 C 
BRANCH   9  10
HETATM   10  N   UNL     1     -42.246 -51.092  12.025  1.00  0.00     0.089 N 
HETATM   11  H   UNL     1     -42.548 -51.857  11.424  1.00  0.00     0.316 HD
BRANCH  10  12
HETATM   12  C   UNL     1     -42.722 -51.285  13.404  1.00  0.00     0.229 C 
HETATM   13  C   UNL     1     -42.073 -52.557  13.982  1.00  0.00     0.037 C 
HETATM   14  C   UNL     1     -42.472 -53.843  13.253  1.00  0.00     0.012 C 
HETATM   15  C   UNL     1     -43.974 -54.113  13.192  1.00  0.00     0.074 C 
HETATM   16  S   UNL     1     -45.005 -52.732  12.621  1.00  0.00    -0.167 SA
HETATM   17  C   UNL     1     -44.250 -51.387  13.587  1.00  0.00     0.109 C 
ENDBRANCH  10  12
ENDBRANCH   9  10
ENDBRANCH   8   9
ENDBRANCH   5   8
BRANCH   1  18
HETATM   18  C   UNL     1     -43.920 -47.214   8.730  1.00  0.00     0.047 C 
HETATM   19  C   UNL     1     -43.534 -47.976   7.462  1.00  0.00     0.017 C 
HETATM   20  C   UNL     1     -45.411 -47.398   9.025  1.00  0.00     0.017 C 
ENDBRANCH   1  18
TORSDOF 5
ENDMDL
MODEL 4
REMARK VINA RESULT:      -5.2      2.613      3.365
REMARK  5 active torsions:
REMARK  status: ('A' for Active; 'I' for Inactive)
REMARK    1  A    between atoms: C_2  and  C_4 
REMARK    2  A    between atoms: C_8  and  C_9 
REMARK    3  A    between atoms: C_9  and  C_10 
REMARK    4  A    between atoms: C_10  and  N_11 
REMARK    5  A    between atoms: N_11  and  C_12 
ROOT
HETATM    1  C   UNL     1     -42.986 -47.972  10.082  1.00  0.00     0.107 A 
HETATM    2  N   UNL     1     -43.443 -48.320  11.291  1.00  0.00    -0.247 N 
ATOM      3  HN  UNL     1     -44.374 -48.177  11.683  1.00  0.00     0.196 HD
HETATM    4  O   UNL     1     -42.334 -48.928  11.886  1.00  0.00    -0.223 OA
HETATM    5  C   UNL     1     -41.322 -48.878  10.967  1.00  0.00     0.149 A 
HETATM    6  N   UNL     1     -41.668 -48.269   9.858  1.00  0.00    -0.327 N 
ATOM      7  HN  UNL     1     -41.099 -48.067   9.036  1.00  0.00     0.169 HD
ENDROOT
BRANCH   5   8
HETATM    8  C   UNL     1     -40.026 -49.473  11.387  1.00  0.00     0.117 C 
BRANCH   8   9
HETATM    9  C   UNL     1     -40.111 -50.309  12.673  1.00  0.00     0.278 C 
BRANCH   9  10
HETATM   10  N   UNL     1     -40.780 -51.597  12.485  1.00  0.00     0.089 N 
HETATM   11  H   UNL     1     -40.802 -51.865  11.503  1.00  0.00     0.316 HD
BRANCH  10  12
HETATM   12  C   UNL     1     -40.268 -52.697  13.320  1.00  0.00     0.229 C 
HETATM   13  C   UNL     1     -41.002 -53.996  12.937  1.00  0.00     0.037 C 
HETATM   14  C   UNL     1     -42.507 -53.966  13.219  1.00  0.00     0.012 C 
HETATM   15  C   UNL     1     -42.888 -53.665  14.667  1.00  0.00     0.074 C 
HETATM   16  S   UNL     1     -42.090 -52.214  15.411  1.00  0.00    -0.167 SA
HETATM   17  C   UNL     1     -40.383 -52.500  14.846  1.00  0.00     0.109 C 
ENDBRANCH  10  12
ENDBRANCH   9  10
ENDBRANCH   8   9
ENDBRANCH   5   8
BRANCH   1  18
HETATM   18  C   UNL     1     -43.847 -47.325   9.047  1.00  0.00     0.047 C 
HETATM   19  C   UNL     1     -43.727 -45.801   9.083  1.00  0.00     0.017 C 
HETATM   20  C   UNL     1     -43.507 -47.849   7.650  1.00  0.00     0.017 C 
ENDBRANCH   1  18
TORSDOF 5
ENDMDL
MODEL 5
REMARK VINA RESULT:      -5.2      5.111      6.975
REMARK  5 active torsions:
REMARK  status: ('A' for Active; 'I' for Inactive)
REMARK    1  A    between atoms: C_2  and  C_4 
REMARK    2  A    between atoms: C_8  and  C_9 
REMARK    3  A    between atoms: C_9  and  C_10 
REMARK    4  A    between atoms: C_10  and  N_11 
REMARK    5  A    between atoms: N_11  and  C_12 
ROOT
HETATM    1  C   UNL     1     -45.886 -53.455  14.529  1.00  0.00     0.107 A 
HETATM    2  N   UNL     1     -45.803 -54.578  13.805  1.00  0.00    -0.247 N 
ATOM      3  HN  UNL     1     -46.379 -54.868  13.016  1.00  0.00     0.196 HD
HETATM    4  O   UNL     1     -44.733 -55.256  14.395  1.00  0.00    -0.223 OA
HETATM    5  C   UNL     1     -44.285 -54.466  15.418  1.00  0.00     0.149 A 
HETATM    6  N   UNL     1     -44.986 -53.365  15.558  1.00  0.00    -0.327 N 
ATOM      7  HN  UNL     1     -44.887 -52.629  16.257  1.00  0.00     0.169 HD
ENDROOT
BRANCH   5   8
HETATM    8  C   UNL     1     -43.136 -54.993  16.199  1.00  0.00     0.117 C 
BRANCH   8   9
HETATM    9  C   UNL     1     -41.778 -54.828  15.498  1.00  0.00     0.278 C 
BRANCH   9  10
HETATM   10  N   UNL     1     -41.793 -53.826  14.432  1.00  0.00     0.089 N 
HETATM   11  H   UNL     1     -41.676 -52.885  14.803  1.00  0.00     0.316 HD
BRANCH  10  12
HETATM   12  C   UNL     1     -40.857 -54.076  13.324  1.00  0.00     0.229 C 
HETATM   13  C   UNL     1     -39.421 -54.103  13.882  1.00  0.00     0.037 C 
HETATM   14  C   UNL     1     -38.962 -52.771  14.480  1.00  0.00     0.012 C 
HETATM   15  C   UNL     1     -39.036 -51.576  13.532  1.00  0.00     0.074 C 
HETATM   16  S   UNL     1     -40.612 -51.352  12.660  1.00  0.00    -0.167 SA
HETATM   17  C   UNL     1     -40.910 -53.074  12.152  1.00  0.00     0.109 C 
ENDBRANCH  10  12
ENDBRANCH   9  10
ENDBRANCH   8   9
ENDBRANCH   5   8
BRANCH   1  18
HETATM   18  C   UNL     1     -46.869 -52.371  14.231  1.00  0.00     0.047 C 
HETATM   19  C   UNL     1     -46.999 -51.388  15.396  1.00  0.00     0.017 C 
HETATM   20  C   UNL     1     -46.489 -51.626  12.950  1.00  0.00     0.017 C 
ENDBRANCH   1  18
TORSDOF 5
ENDMDL
MODEL 6
REMARK VINA RESULT:      -5.2      3.083      6.303
REMARK  5 active torsions:
REMARK  status: ('A' for Active; 'I' for Inactive)
REMARK    1  A    between atoms: C_2  and  C_4 
REMARK    2  A    between atoms: C_8  and  C_9 
REMARK    3  A    between atoms: C_9  and  C_10 
REMARK    4  A    between atoms: C_10  and  N_11 
REMARK    5  A    between atoms: N_11  and  C_12 
ROOT
HETATM    1  C   UNL     1     -44.894 -52.580  13.355  1.00  0.00     0.107 A 
HETATM    2  N   UNL     1     -44.252 -53.332  14.257  1.00  0.00    -0.247 N 
ATOM      3  HN  UNL     1     -44.633 -53.799  15.080  1.00  0.00     0.196 HD
HETATM    4  O   UNL     1     -42.933 -53.323  13.796  1.00  0.00    -0.223 OA
HETATM    5  C   UNL     1     -42.920 -52.561  12.661  1.00  0.00     0.149 A 
HETATM    6  N   UNL     1     -44.096 -52.056  12.372  1.00  0.00    -0.327 N 
ATOM      7  HN  UNL     1     -44.353 -51.430  11.608  1.00  0.00     0.169 HD
ENDROOT
BRANCH   5   8
HETATM    8  C   UNL     1     -41.604 -52.407  11.988  1.00  0.00     0.117 C 
BRANCH   8   9
HETATM    9  C   UNL     1     -40.971 -51.018  12.167  1.00  0.00     0.278 C 
BRANCH   9  10
HETATM   10  N   UNL     1     -41.652 -49.968  11.409  1.00  0.00     0.089 N 
HETATM   11  H   UNL     1     -42.348 -50.357  10.776  1.00  0.00     0.316 HD
BRANCH  10  12
HETATM   12  C   UNL     1     -42.224 -48.881  12.219  1.00  0.00     0.229 C 
HETATM   13  C   UNL     1     -43.226 -48.090  11.356  1.00  0.00     0.037 C 
HETATM   14  C   UNL     1     -42.590 -47.383  10.157  1.00  0.00     0.012 C 
HETATM   15  C   UNL     1     -41.459 -46.416  10.501  1.00  0.00     0.074 C 
HETATM   16  S   UNL     1     -40.164 -47.068  11.594  1.00  0.00    -0.167 SA
HETATM   17  C   UNL     1     -41.215 -47.888  12.833  1.00  0.00     0.109 C 
ENDBRANCH  10  12
ENDBRANCH   9  10
ENDBRANCH   8   9
ENDBRANCH   5   8
BRANCH   1  18
HETATM   18  C   UNL     1     -46.367 -52.341  13.401  1.00  0.00     0.047 C 
HETATM   19  C   UNL     1     -46.757 -51.428  14.565  1.00  0.00     0.017 C 
HETATM   20  C   UNL     1     -46.866 -51.754  12.079  1.00  0.00     0.017 C 
ENDBRANCH   1  18
TORSDOF 5
ENDMDL
MODEL 7
REMARK VINA RESULT:      -5.1      3.275      4.439
REMARK  5 active torsions:
REMARK  status: ('A' for Active; 'I' for Inactive)
REMARK    1  A    between atoms: C_2  and  C_4 
REMARK    2  A    between atoms: C_8  and  C_9 
REMARK    3  A    between atoms: C_9  and  C_10 
REMARK    4  A    between atoms: C_10  and  N_11 
REMARK    5  A    between atoms: N_11  and  C_12 
ROOT
HETATM    1  C   UNL     1     -40.626 -51.270  11.952  1.00  0.00     0.107 A 
HETATM    2  N   UNL     1     -41.077 -52.354  11.308  1.00  0.00    -0.247 N 
ATOM      3  HN  UNL     1     -41.545 -52.405  10.404  1.00  0.00     0.196 HD
HETATM    4  O   UNL     1     -40.748 -53.397  12.178  1.00  0.00    -0.223 OA
HETATM    5  C   UNL     1     -40.134 -52.827  13.259  1.00  0.00     0.149 A 
HETATM    6  N   UNL     1     -40.069 -51.519  13.178  1.00  0.00    -0.327 N 
ATOM      7  HN  UNL     1     -39.697 -50.854  13.857  1.00  0.00     0.169 HD
ENDROOT
BRANCH   5   8
HETATM    8  C   UNL     1     -39.692 -53.758  14.329  1.00  0.00     0.117 C 
BRANCH   8   9
HETATM    9  C   UNL     1     -40.840 -54.311  15.188  1.00  0.00     0.278 C 
BRANCH   9  10
HETATM   10  N   UNL     1     -42.039 -54.636  14.414  1.00  0.00     0.089 N 
HETATM   11  H   UNL     1     -41.981 -55.570  14.011  1.00  0.00     0.316 HD
BRANCH  10  12
HETATM   12  C   UNL     1     -43.314 -54.446  15.124  1.00  0.00     0.229 C 
HETATM   13  C   UNL     1     -44.465 -54.928  14.220  1.00  0.00     0.037 C 
HETATM   14  C   UNL     1     -44.620 -54.120  12.928  1.00  0.00     0.012 C 
HETATM   15  C   UNL     1     -44.822 -52.619  13.124  1.00  0.00     0.074 C 
HETATM   16  S   UNL     1     -43.641 -51.797  14.230  1.00  0.00    -0.167 SA
HETATM   17  C   UNL     1     -43.625 -53.008  15.589  1.00  0.00     0.109 C 
ENDBRANCH  10  12
ENDBRANCH   9  10
ENDBRANCH   8   9
ENDBRANCH   5   8
BRANCH   1  18
HETATM   18  C   UNL     1     -40.708 -49.894  11.375  1.00  0.00     0.047 C 
HETATM   19  C   UNL     1     -42.006 -49.190  11.771  1.00  0.00     0.017 C 
HETATM   20  C   UNL     1     -39.500 -49.054  11.799  1.00  0.00     0.017 C 
ENDBRANCH   1  18
TORSDOF 5
ENDMDL
MODEL 8
REMARK VINA RESULT:      -5.1      4.803      7.133
REMARK  5 active torsions:
REMARK  status: ('A' for Active; 'I' for Inactive)
REMARK    1  A    between atoms: C_2  and  C_4 
REMARK    2  A    between atoms: C_8  and  C_9 
REMARK    3  A    between atoms: C_9  and  C_10 
REMARK    4  A    between atoms: C_10  and  N_11 
REMARK    5  A    between atoms: N_11  and  C_12 
ROOT
HETATM    1  C   UNL     1     -43.221 -53.465  12.628  1.00  0.00     0.107 A 
HETATM    2  N   UNL     1     -42.586 -52.757  11.687  1.00  0.00    -0.247 N 
ATOM      3  HN  UNL     1     -42.987 -52.207  10.928  1.00  0.00     0.196 HD
HETATM    4  O   UNL     1     -41.238 -52.956  11.998  1.00  0.00    -0.223 OA
HETATM    5  C   UNL     1     -41.206 -53.768  13.097  1.00  0.00     0.149 A 
HETATM    6  N   UNL     1     -42.401 -54.134  13.498  1.00  0.00    -0.327 N 
ATOM      7  HN  UNL     1     -42.654 -54.759  14.263  1.00  0.00     0.169 HD
ENDROOT
BRANCH   5   8
HETATM    8  C   UNL     1     -39.857 -54.120  13.613  1.00  0.00     0.117 C 
BRANCH   8   9
HETATM    9  C   UNL     1     -39.120 -52.949  14.281  1.00  0.00     0.278 C 
BRANCH   9  10
HETATM   10  N   UNL     1     -39.202 -51.702  13.520  1.00  0.00     0.089 N 
HETATM   11  H   UNL     1     -39.790 -51.016  13.990  1.00  0.00     0.316 HD
BRANCH  10  12
HETATM   12  C   UNL     1     -37.907 -51.114  13.139  1.00  0.00     0.229 C 
HETATM   13  C   UNL     1     -37.367 -50.289  14.324  1.00  0.00     0.037 C 
HETATM   14  C   UNL     1     -38.241 -49.088  14.694  1.00  0.00     0.012 C 
HETATM   15  C   UNL     1     -38.497 -48.099  13.560  1.00  0.00     0.074 C 
HETATM   16  S   UNL     1     -39.067 -48.819  11.994  1.00  0.00    -0.167 SA
HETATM   17  C   UNL     1     -37.911 -50.221  11.881  1.00  0.00     0.109 C 
ENDBRANCH  10  12
ENDBRANCH   9  10
ENDBRANCH   8   9
ENDBRANCH   5   8
BRANCH   1  18
HETATM   18  C   UNL     1     -44.710 -53.513  12.738  1.00  0.00     0.047 C 
HETATM   19  C   UNL     1     -45.174 -54.644  13.657  1.00  0.00     0.017 C 
HETATM   20  C   UNL     1     -45.264 -52.173  13.228  1.00  0.00     0.017 C 
ENDBRANCH   1  18
TORSDOF 5
ENDMDL
MODEL 9
REMARK VINA RESULT:      -5.1      4.289      5.381
REMARK  5 active torsions:
REMARK  status: ('A' for Active; 'I' for Inactive)
REMARK    1  A    between atoms: C_2  and  C_4 
REMARK    2  A    between atoms: C_8  and  C_9 
REMARK    3  A    between atoms: C_9  and  C_10 
REMARK    4  A    between atoms: C_10  and  N_11 
REMARK    5  A    between atoms: N_11  and  C_12 
ROOT
HETATM    1  C   UNL     1     -43.266 -46.566   9.719  1.00  0.00     0.107 A 
HETATM    2  N   UNL     1     -43.639 -46.533  11.004  1.00  0.00    -0.247 N 
ATOM      3  HN  UNL     1     -44.557 -46.728  11.403  1.00  0.00     0.196 HD
HETATM    4  O   UNL     1     -42.464 -46.166  11.665  1.00  0.00    -0.223 OA
HETATM    5  C   UNL     1     -41.505 -46.015  10.702  1.00  0.00     0.149 A 
HETATM    6  N   UNL     1     -41.962 -46.217   9.489  1.00  0.00    -0.327 N 
ATOM      7  HN  UNL     1     -41.470 -46.135   8.599  1.00  0.00     0.169 HD
ENDROOT
BRANCH   5   8
HETATM    8  C   UNL     1     -40.154 -45.620  11.179  1.00  0.00     0.117 C 
BRANCH   8   9
HETATM    9  C   UNL     1     -39.758 -46.250  12.524  1.00  0.00     0.278 C 
BRANCH   9  10
HETATM   10  N   UNL     1     -40.202 -47.637  12.668  1.00  0.00     0.089 N 
HETATM   11  H   UNL     1     -40.086 -48.157  11.800  1.00  0.00     0.316 HD
BRANCH  10  12
HETATM   12  C   UNL     1     -39.618 -48.368  13.803  1.00  0.00     0.229 C 
HETATM   13  C   UNL     1     -38.110 -48.557  13.551  1.00  0.00     0.037 C 
HETATM   14  C   UNL     1     -37.788 -49.422  12.330  1.00  0.00     0.012 C 
HETATM   15  C   UNL     1     -38.402 -50.820  12.347  1.00  0.00     0.074 C 
HETATM   16  S   UNL     1     -40.178 -50.901  12.712  1.00  0.00    -0.167 SA
HETATM   17  C   UNL     1     -40.239 -49.745  14.117  1.00  0.00     0.109 C 
ENDBRANCH  10  12
ENDBRANCH   9  10
ENDBRANCH   8   9
ENDBRANCH   5   8
BRANCH   1  18
HETATM   18  C   UNL     1     -44.191 -46.969   8.618  1.00  0.00     0.047 C 
HETATM   19  C   UNL     1     -43.522 -47.935   7.640  1.00  0.00     0.017 C 
HETATM   20  C   UNL     1     -45.472 -47.590   9.181  1.00  0.00     0.017 C 
ENDBRANCH   1  18
TORSDOF 5
ENDMDL
