MODEL 1
REMARK VINA RESULT:      -5.7      0.000      0.000
REMARK  4 active torsions:
REMARK  status: ('A' for Active; 'I' for Inactive)
REMARK    1  A    between atoms: C_2  and  C_3 
REMARK    2  A    between atoms: C_3  and  N_4 
REMARK    3  A    between atoms: C_7  and  N_10 
REMARK       I    between atoms: N_10  and  C_11 
REMARK       I    between atoms: C_11  and  N_13 
REMARK    4  A    between atoms: N_13  and  C_14 
ROOT
HETATM    1  N   UNL     1     -43.497 -49.770  12.391  1.00  0.00    -0.338 N 
HETATM    2  C   UNL     1     -44.072 -50.676  13.252  1.00  0.00     0.322 C 
HETATM    3  O   UNL     1     -44.038 -50.548  14.471  1.00  0.00    -0.247 OA
HETATM    4  N   UNL     1     -44.614 -51.737  12.571  1.00  0.00    -0.294 N 
HETATM    5  H   UNL     1     -43.971 -49.669  11.504  1.00  0.00     0.164 HD
HETATM    6  H   UNL     1     -44.099 -52.020  11.750  1.00  0.00     0.172 HD
ENDROOT
BRANCH   1   7
HETATM    7  C   UNL     1     -42.754 -48.623  12.910  1.00  0.00     0.089 C 
HETATM    8  C   UNL     1     -43.051 -47.335  12.131  1.00  0.00     0.055 C 
HETATM    9  C   UNL     1     -42.309 -47.276  10.794  1.00  0.00     0.274 C 
HETATM   10  N   UNL     1     -40.863 -47.545  10.893  1.00  0.00     0.088 N 
HETATM   11  C   UNL     1     -40.638 -48.839  11.547  1.00  0.00     0.274 C 
HETATM   12  C   UNL     1     -41.258 -48.930  12.940  1.00  0.00     0.055 C 
BRANCH  10  13
HETATM   13  C   UNL     1     -40.144 -46.413  11.510  1.00  0.00     0.272 C 
BRANCH  13  14
HETATM   14  C   UNL     1     -40.376 -45.070  10.803  1.00  0.00     0.026 C 
HETATM   15  C   UNL     1     -39.297 -44.791   9.769  1.00  0.00     0.007 C 
ENDBRANCH  13  14
ENDBRANCH  10  13
ENDBRANCH   1   7
BRANCH   4  16
HETATM   16  C   UNL     1     -45.201 -52.816  13.244  1.00  0.00     0.123 A 
HETATM   17  C   UNL     1     -44.640 -54.083  13.231  1.00  0.00     0.051 A 
HETATM   18  C   UNL     1     -45.323 -55.119  13.850  1.00  0.00     0.022 A 
HETATM   19  C   UNL     1     -46.532 -54.831  14.448  1.00  0.00     0.107 A 
HETATM   20  N   UNL     1     -47.036 -53.582  14.497  1.00  0.00    -0.310 N 
HETATM   21  N   UNL     1     -46.348 -52.559  13.907  1.00  0.00    -0.286 N 
ATOM     22  HN  UNL     1     -47.922 -53.402  14.969  1.00  0.00     0.186 HD
ATOM     23  HN  UNL     1     -46.700 -51.604  13.969  1.00  0.00     0.188 HD
ENDBRANCH   4  16
TORSDOF 4
ENDMDL
MODEL 2
REMARK VINA RESULT:      -5.6      1.625      7.970
REMARK  4 active torsions:
REMARK  status: ('A' for Active; 'I' for Inactive)
REMARK    1  A    between atoms: C_2  and  C_3 
REMARK    2  A    between atoms: C_3  and  N_4 
REMARK    3  A    between atoms: C_7  and  N_10 
REMARK       I    between atoms: N_10  and  C_11 
REMARK       I    between atoms: C_11  and  N_13 
REMARK    4  A    between atoms: N_13  and  C_14 
ROOT
HETATM    1  N   UNL     1     -42.675 -50.906  12.141  1.00  0.00    -0.338 N 
HETATM    2  C   UNL     1     -42.038 -49.689  12.188  1.00  0.00     0.322 C 
HETATM    3  O   UNL     1     -41.418 -49.300  13.172  1.00  0.00    -0.247 OA
HETATM    4  N   UNL     1     -42.242 -48.973  11.035  1.00  0.00    -0.294 N 
HETATM    5  H   UNL     1     -42.702 -51.336  11.226  1.00  0.00     0.164 HD
HETATM    6  H   UNL     1     -43.155 -49.093  10.620  1.00  0.00     0.172 HD
ENDROOT
BRANCH   1   7
HETATM    7  C   UNL     1     -42.690 -51.780  13.313  1.00  0.00     0.089 C 
HETATM    8  C   UNL     1     -42.610 -53.265  12.934  1.00  0.00     0.055 C 
HETATM    9  C   UNL     1     -43.951 -53.816  12.442  1.00  0.00     0.274 C 
HETATM   10  N   UNL     1     -45.086 -53.531  13.338  1.00  0.00     0.088 N 
HETATM   11  C   UNL     1     -45.183 -52.087  13.578  1.00  0.00     0.274 C 
HETATM   12  C   UNL     1     -43.914 -51.486  14.179  1.00  0.00     0.055 C 
BRANCH  10  13
HETATM   13  C   UNL     1     -45.030 -54.354  14.561  1.00  0.00     0.272 C 
BRANCH  13  14
HETATM   14  C   UNL     1     -46.177 -54.084  15.546  1.00  0.00     0.026 C 
HETATM   15  C   UNL     1     -45.655 -53.822  16.949  1.00  0.00     0.007 C 
ENDBRANCH  13  14
ENDBRANCH  10  13
ENDBRANCH   1   7
BRANCH   4  16
HETATM   16  C   UNL     1     -41.739 -47.676  10.879  1.00  0.00     0.123 A 
HETATM   17  C   UNL     1     -42.562 -46.562  10.894  1.00  0.00     0.051 A 
HETATM   18  C   UNL     1     -42.002 -45.317  10.648  1.00  0.00     0.022 A 
HETATM   19  C   UNL     1     -40.646 -45.255  10.400  1.00  0.00     0.107 A 
HETATM   20  N   UNL     1     -39.852 -46.344  10.443  1.00  0.00    -0.310 N 
HETATM   21  N   UNL     1     -40.404 -47.565  10.710  1.00  0.00    -0.286 N 
ATOM     22  HN  UNL     1     -38.849 -46.256  10.279  1.00  0.00     0.186 HD
ATOM     23  HN  UNL     1     -39.810 -48.390  10.781  1.00  0.00     0.188 HD
ENDBRANCH   4  16
TORSDOF 4
ENDMDL
MODEL 3
REMARK VINA RESULT:      -5.6      3.176      4.094
REMARK  4 active torsions:
REMARK  status: ('A' for Active; 'I' for Inactive)
REMARK    1  A    between atoms: C_2  and  C_3 
REMARK    2  A    between atoms: C_3  and  N_4 
REMARK    3  A    between atoms: C_7  and  N_10 
REMARK       I    between atoms: N_10  and  C_11 
REMARK       I    between atoms: C_11  and  N_13 
REMARK    4  A    between atoms: N_13  and  C_14 
ROOT
HETATM    1  N   UNL     1     -41.726 -48.123  11.336  1.00  0.00    -0.338 N 
HETATM    2  C   UNL     1     -41.199 -49.351  11.663  1.00  0.00     0.322 C 
HETATM    3  O   UNL     1     -39.997 -49.588  11.631  1.00  0.00    -0.247 OA
HETATM    4  N   UNL     1     -42.187 -50.254  11.961  1.00  0.00    -0.294 N 
HETATM    5  H   UNL     1     -42.564 -47.873  11.842  1.00  0.00     0.164 HD
HETATM    6  H   UNL     1     -43.031 -50.154  11.415  1.00  0.00     0.172 HD
ENDROOT
BRANCH   1   7
HETATM    7  C   UNL     1     -40.858 -47.045  10.867  1.00  0.00     0.089 C 
HETATM    8  C   UNL     1     -40.178 -46.298  12.022  1.00  0.00     0.055 C 
HETATM    9  C   UNL     1     -41.119 -45.309  12.713  1.00  0.00     0.274 C 
HETATM   10  N   UNL     1     -41.813 -44.392  11.791  1.00  0.00     0.088 N 
HETATM   11  C   UNL     1     -42.537 -45.160  10.772  1.00  0.00     0.274 C 
HETATM   12  C   UNL     1     -41.637 -46.091   9.962  1.00  0.00     0.055 C 
BRANCH  10  13
HETATM   13  C   UNL     1     -40.896 -43.370  11.251  1.00  0.00     0.272 C 
BRANCH  13  14
HETATM   14  C   UNL     1     -40.952 -42.028  11.996  1.00  0.00     0.026 C 
HETATM   15  C   UNL     1     -39.751 -41.848  12.910  1.00  0.00     0.007 C 
ENDBRANCH  13  14
ENDBRANCH  10  13
ENDBRANCH   1   7
BRANCH   4  16
HETATM   16  C   UNL     1     -41.892 -51.589  12.266  1.00  0.00     0.123 A 
HETATM   17  C   UNL     1     -42.280 -52.173  13.461  1.00  0.00     0.051 A 
HETATM   18  C   UNL     1     -41.878 -53.474  13.727  1.00  0.00     0.022 A 
HETATM   19  C   UNL     1     -41.109 -54.120  12.782  1.00  0.00     0.107 A 
HETATM   20  N   UNL     1     -40.788 -53.555  11.601  1.00  0.00    -0.310 N 
HETATM   21  N   UNL     1     -41.206 -52.282  11.332  1.00  0.00    -0.286 N 
ATOM     22  HN  UNL     1     -40.237 -54.072  10.915  1.00  0.00     0.186 HD
ATOM     23  HN  UNL     1     -41.000 -51.856  10.429  1.00  0.00     0.188 HD
ENDBRANCH   4  16
TORSDOF 4
ENDMDL
MODEL 4
REMARK VINA RESULT:      -5.5      2.502      8.196
REMARK  4 active torsions:
REMARK  status: ('A' for Active; 'I' for Inactive)
REMARK    1  A    between atoms: C_2  and  C_3 
REMARK    2  A    between atoms: C_3  and  N_4 
REMARK    3  A    between atoms: C_7  and  N_10 
REMARK       I    between atoms: N_10  and  C_11 
REMARK       I    between atoms: C_11  and  N_13 
REMARK    4  A    between atoms: N_13  and  C_14 
ROOT
HETATM    1  N   UNL     1     -40.981 -50.172  12.686  1.00  0.00    -0.338 N 
HETATM    2  C   UNL     1     -41.047 -48.982  12.000  1.00  0.00     0.322 C 
HETATM    3  O   UNL     1     -41.807 -48.800  11.056  1.00  0.00    -0.247 OA
HETATM    4  N   UNL     1     -40.125 -48.082  12.474  1.00  0.00    -0.294 N 
HETATM    5  H   UNL     1     -40.753 -50.085  13.667  1.00  0.00     0.164 HD
HETATM    6  H   UNL     1     -39.251 -48.490  12.772  1.00  0.00     0.172 HD
ENDROOT
BRANCH   1   7
HETATM    7  C   UNL     1     -41.791 -51.315  12.267  1.00  0.00     0.089 C 
HETATM    8  C   UNL     1     -43.033 -51.504  13.147  1.00  0.00     0.055 C 
HETATM    9  C   UNL     1     -42.704 -52.164  14.488  1.00  0.00     0.274 C 
HETATM   10  N   UNL     1     -41.910 -53.401  14.374  1.00  0.00     0.088 N 
HETATM   11  C   UNL     1     -40.680 -53.138  13.617  1.00  0.00     0.274 C 
HETATM   12  C   UNL     1     -40.937 -52.581  12.218  1.00  0.00     0.055 C 
BRANCH  10  13
HETATM   13  C   UNL     1     -42.722 -54.519  13.855  1.00  0.00     0.272 C 
BRANCH  13  14
HETATM   14  C   UNL     1     -43.981 -54.810  14.685  1.00  0.00     0.026 C 
HETATM   15  C   UNL     1     -45.199 -55.007  13.798  1.00  0.00     0.007 C 
ENDBRANCH  13  14
ENDBRANCH  10  13
ENDBRANCH   1   7
BRANCH   4  16
HETATM   16  C   UNL     1     -39.967 -46.820  11.888  1.00  0.00     0.123 A 
HETATM   17  C   UNL     1     -39.900 -45.662  12.646  1.00  0.00     0.051 A 
HETATM   18  C   UNL     1     -39.827 -44.441  11.992  1.00  0.00     0.022 A 
HETATM   19  C   UNL     1     -39.824 -44.446  10.612  1.00  0.00     0.107 A 
HETATM   20  N   UNL     1     -39.834 -45.586   9.892  1.00  0.00    -0.310 N 
HETATM   21  N   UNL     1     -39.882 -46.787  10.542  1.00  0.00    -0.286 N 
ATOM     22  HN  UNL     1     -39.806 -45.552   8.873  1.00  0.00     0.186 HD
ATOM     23  HN  UNL     1     -39.853 -47.657  10.010  1.00  0.00     0.188 HD
ENDBRANCH   4  16
TORSDOF 4
ENDMDL
MODEL 5
REMARK VINA RESULT:      -5.4      1.383      1.802
REMARK  4 active torsions:
REMARK  status: ('A' for Active; 'I' for Inactive)
REMARK    1  A    between atoms: C_2  and  C_3 
REMARK    2  A    between atoms: C_3  and  N_4 
REMARK    3  A    between atoms: C_7  and  N_10 
REMARK       I    between atoms: N_10  and  C_11 
REMARK       I    between atoms: C_11  and  N_13 
REMARK    4  A    between atoms: N_13  and  C_14 
ROOT
HETATM    1  N   UNL     1     -43.266 -49.368  12.231  1.00  0.00    -0.338 N 
HETATM    2  C   UNL     1     -43.724 -50.365  13.060  1.00  0.00     0.322 C 
HETATM    3  O   UNL     1     -43.033 -50.871  13.937  1.00  0.00    -0.247 OA
HETATM    4  N   UNL     1     -45.002 -50.740  12.731  1.00  0.00    -0.294 N 
HETATM    5  H   UNL     1     -43.970 -48.708  11.931  1.00  0.00     0.164 HD
HETATM    6  H   UNL     1     -45.208 -50.718  11.742  1.00  0.00     0.172 HD
ENDROOT
BRANCH   1   7
HETATM    7  C   UNL     1     -41.883 -48.903  12.326  1.00  0.00     0.089 C 
HETATM    8  C   UNL     1     -41.756 -47.616  13.152  1.00  0.00     0.055 C 
HETATM    9  C   UNL     1     -42.175 -46.372  12.365  1.00  0.00     0.274 C 
HETATM   10  N   UNL     1     -41.534 -46.250  11.043  1.00  0.00     0.088 N 
HETATM   11  C   UNL     1     -41.780 -47.462  10.253  1.00  0.00     0.274 C 
HETATM   12  C   UNL     1     -41.282 -48.737  10.930  1.00  0.00     0.055 C 
BRANCH  10  13
HETATM   13  C   UNL     1     -40.112 -45.875  11.164  1.00  0.00     0.272 C 
BRANCH  13  14
HETATM   14  C   UNL     1     -39.887 -44.413  11.580  1.00  0.00     0.026 C 
HETATM   15  C   UNL     1     -39.016 -44.315  12.821  1.00  0.00     0.007 C 
ENDBRANCH  13  14
ENDBRANCH  10  13
ENDBRANCH   1   7
BRANCH   4  16
HETATM   16  C   UNL     1     -45.656 -51.782  13.400  1.00  0.00     0.123 A 
HETATM   17  C   UNL     1     -46.533 -51.547  14.447  1.00  0.00     0.051 A 
HETATM   18  C   UNL     1     -47.077 -52.634  15.115  1.00  0.00     0.022 A 
HETATM   19  C   UNL     1     -46.714 -53.898  14.699  1.00  0.00     0.107 A 
HETATM   20  N   UNL     1     -45.902 -54.107  13.643  1.00  0.00    -0.310 N 
HETATM   21  N   UNL     1     -45.387 -53.034  12.972  1.00  0.00    -0.286 N 
ATOM     22  HN  UNL     1     -45.674 -55.056  13.349  1.00  0.00     0.186 HD
ATOM     23  HN  UNL     1     -44.801 -53.178  12.150  1.00  0.00     0.188 HD
ENDBRANCH   4  16
TORSDOF 4
ENDMDL
MODEL 6
REMARK VINA RESULT:      -5.2      3.300      7.650
REMARK  4 active torsions:
REMARK  status: ('A' for Active; 'I' for Inactive)
REMARK    1  A    between atoms: C_2  and  C_3 
REMARK    2  A    between atoms: C_3  and  N_4 
REMARK    3  A    between atoms: C_7  and  N_10 
REMARK       I    between atoms: N_10  and  C_11 
REMARK       I    between atoms: C_11  and  N_13 
REMARK    4  A    between atoms: N_13  and  C_14 
ROOT
HETATM    1  N   UNL     1     -42.881 -51.311  14.217  1.00  0.00    -0.338 N 
HETATM    2  C   UNL     1     -41.813 -50.686  13.616  1.00  0.00     0.322 C 
HETATM    3  O   UNL     1     -41.831 -49.505  13.291  1.00  0.00    -0.247 OA
HETATM    4  N   UNL     1     -40.785 -51.566  13.387  1.00  0.00    -0.294 N 
HETATM    5  H   UNL     1     -42.633 -52.046  14.865  1.00  0.00     0.164 HD
HETATM    6  H   UNL     1     -41.076 -52.501  13.142  1.00  0.00     0.172 HD
ENDROOT
BRANCH   1   7
HETATM    7  C   UNL     1     -44.132 -50.588  14.442  1.00  0.00     0.089 C 
HETATM    8  C   UNL     1     -44.417 -50.366  15.933  1.00  0.00     0.055 C 
HETATM    9  C   UNL     1     -44.961 -51.622  16.617  1.00  0.00     0.274 C 
HETATM   10  N   UNL     1     -46.100 -52.245  15.920  1.00  0.00     0.088 N 
HETATM   11  C   UNL     1     -45.736 -52.537  14.529  1.00  0.00     0.274 C 
HETATM   12  C   UNL     1     -45.290 -51.304  13.747  1.00  0.00     0.055 C 
BRANCH  10  13
HETATM   13  C   UNL     1     -47.332 -51.448  16.077  1.00  0.00     0.272 C 
BRANCH  13  14
HETATM   14  C   UNL     1     -47.891 -51.443  17.508  1.00  0.00     0.026 C 
HETATM   15  C   UNL     1     -48.006 -50.031  18.056  1.00  0.00     0.007 C 
ENDBRANCH  13  14
ENDBRANCH  10  13
ENDBRANCH   1   7
BRANCH   4  16
HETATM   16  C   UNL     1     -39.614 -51.169  12.729  1.00  0.00     0.123 A 
HETATM   17  C   UNL     1     -38.358 -51.368  13.280  1.00  0.00     0.051 A 
HETATM   18  C   UNL     1     -37.251 -50.873  12.608  1.00  0.00     0.022 A 
HETATM   19  C   UNL     1     -37.460 -50.204  11.420  1.00  0.00     0.107 A 
HETATM   20  N   UNL     1     -38.685 -50.068  10.872  1.00  0.00    -0.310 N 
HETATM   21  N   UNL     1     -39.771 -50.579  11.525  1.00  0.00    -0.286 N 
ATOM     22  HN  UNL     1     -38.799 -49.588   9.979  1.00  0.00     0.186 HD
ATOM     23  HN  UNL     1     -40.698 -50.514  11.105  1.00  0.00     0.188 HD
ENDBRANCH   4  16
TORSDOF 4
ENDMDL
MODEL 7
REMARK VINA RESULT:      -5.2      4.214      8.064
REMARK  4 active torsions:
REMARK  status: ('A' for Active; 'I' for Inactive)
REMARK    1  A    between atoms: C_2  and  C_3 
REMARK    2  A    between atoms: C_3  and  N_4 
REMARK    3  A    between atoms: C_7  and  N_10 
REMARK       I    between atoms: N_10  and  C_11 
REMARK       I    between atoms: C_11  and  N_13 
REMARK    4  A    between atoms: N_13  and  C_14 
ROOT
HETATM    1  N   UNL     1     -40.644 -52.035  13.759  1.00  0.00    -0.338 N 
HETATM    2  C   UNL     1     -41.257 -51.426  12.689  1.00  0.00     0.322 C 
HETATM    3  O   UNL     1     -41.666 -52.049  11.715  1.00  0.00    -0.247 OA
HETATM    4  N   UNL     1     -41.286 -50.063  12.840  1.00  0.00    -0.294 N 
HETATM    5  H   UNL     1     -40.801 -51.584  14.651  1.00  0.00     0.164 HD
HETATM    6  H   UNL     1     -40.475 -49.670  13.296  1.00  0.00     0.172 HD
ENDROOT
BRANCH   1   7
HETATM    7  C   UNL     1     -40.396 -53.475  13.750  1.00  0.00     0.089 C 
HETATM    8  C   UNL     1     -41.489 -54.260  14.487  1.00  0.00     0.055 C 
HETATM    9  C   UNL     1     -41.335 -54.191  16.007  1.00  0.00     0.274 C 
HETATM   10  N   UNL     1     -39.986 -54.530  16.494  1.00  0.00     0.088 N 
HETATM   11  C   UNL     1     -38.989 -53.674  15.839  1.00  0.00     0.274 C 
HETATM   12  C   UNL     1     -39.009 -53.778  14.315  1.00  0.00     0.055 C 
BRANCH  10  13
HETATM   13  C   UNL     1     -39.718 -55.977  16.385  1.00  0.00     0.272 C 
BRANCH  13  14
HETATM   14  C   UNL     1     -40.727 -56.854  17.141  1.00  0.00     0.026 C 
HETATM   15  C   UNL     1     -40.333 -57.025  18.599  1.00  0.00     0.007 C 
ENDBRANCH  13  14
ENDBRANCH  10  13
ENDBRANCH   1   7
BRANCH   4  16
HETATM   16  C   UNL     1     -41.809 -49.227  11.845  1.00  0.00     0.123 A 
HETATM   17  C   UNL     1     -42.945 -48.462  12.051  1.00  0.00     0.051 A 
HETATM   18  C   UNL     1     -43.451 -47.723  10.992  1.00  0.00     0.022 A 
HETATM   19  C   UNL     1     -42.791 -47.789   9.783  1.00  0.00     0.107 A 
HETATM   20  N   UNL     1     -41.656 -48.497   9.616  1.00  0.00    -0.310 N 
HETATM   21  N   UNL     1     -41.147 -49.204  10.669  1.00  0.00    -0.286 N 
ATOM     22  HN  UNL     1     -41.181 -48.504   8.713  1.00  0.00     0.186 HD
ATOM     23  HN  UNL     1     -40.269 -49.713  10.566  1.00  0.00     0.188 HD
ENDBRANCH   4  16
TORSDOF 4
ENDMDL
MODEL 8
REMARK VINA RESULT:      -5.0      3.558      4.552
REMARK  4 active torsions:
REMARK  status: ('A' for Active; 'I' for Inactive)
REMARK    1  A    between atoms: C_2  and  C_3 
REMARK    2  A    between atoms: C_3  and  N_4 
REMARK    3  A    between atoms: C_7  and  N_10 
REMARK       I    between atoms: N_10  and  C_11 
REMARK       I    between atoms: C_11  and  N_13 
REMARK    4  A    between atoms: N_13  and  C_14 
ROOT
HETATM    1  N   UNL     1     -40.497 -47.483  12.276  1.00  0.00    -0.338 N 
HETATM    2  C   UNL     1     -41.029 -48.749  12.197  1.00  0.00     0.322 C 
HETATM    3  O   UNL     1     -42.212 -48.959  11.954  1.00  0.00    -0.247 OA
HETATM    4  N   UNL     1     -40.086 -49.705  12.479  1.00  0.00    -0.294 N 
HETATM    5  H   UNL     1     -39.533 -47.409  11.980  1.00  0.00     0.164 HD
HETATM    6  H   UNL     1     -39.415 -49.442  13.187  1.00  0.00     0.172 HD
ENDROOT
BRANCH   1   7
HETATM    7  C   UNL     1     -41.355 -46.309  12.132  1.00  0.00     0.089 C 
HETATM    8  C   UNL     1     -41.321 -45.733  10.710  1.00  0.00     0.055 C 
HETATM    9  C   UNL     1     -40.060 -44.909  10.443  1.00  0.00     0.274 C 
HETATM   10  N   UNL     1     -39.781 -43.883  11.464  1.00  0.00     0.088 N 
HETATM   11  C   UNL     1     -39.714 -44.504  12.792  1.00  0.00     0.274 C 
HETATM   12  C   UNL     1     -40.989 -45.253  13.175  1.00  0.00     0.055 C 
BRANCH  10  13
HETATM   13  C   UNL     1     -40.721 -42.750  11.364  1.00  0.00     0.272 C 
BRANCH  13  14
HETATM   14  C   UNL     1     -40.333 -41.542  12.229  1.00  0.00     0.026 C 
HETATM   15  C   UNL     1     -41.153 -40.314  11.871  1.00  0.00     0.007 C 
ENDBRANCH  13  14
ENDBRANCH  10  13
ENDBRANCH   1   7
BRANCH   4  16
HETATM   16  C   UNL     1     -40.412 -51.067  12.519  1.00  0.00     0.123 A 
HETATM   17  C   UNL     1     -40.180 -51.845  13.641  1.00  0.00     0.051 A 
HETATM   18  C   UNL     1     -40.452 -53.204  13.576  1.00  0.00     0.022 A 
HETATM   19  C   UNL     1     -40.942 -53.710  12.390  1.00  0.00     0.107 A 
HETATM   20  N   UNL     1     -41.213 -52.927  11.326  1.00  0.00    -0.310 N 
HETATM   21  N   UNL     1     -40.966 -51.586  11.402  1.00  0.00    -0.286 N 
ATOM     22  HN  UNL     1     -41.597 -53.333  10.473  1.00  0.00     0.186 HD
ATOM     23  HN  UNL     1     -41.201 -50.977  10.618  1.00  0.00     0.188 HD
ENDBRANCH   4  16
TORSDOF 4
ENDMDL
MODEL 9
REMARK VINA RESULT:      -5.0      3.595      7.684
REMARK  4 active torsions:
REMARK  status: ('A' for Active; 'I' for Inactive)
REMARK    1  A    between atoms: C_2  and  C_3 
REMARK    2  A    between atoms: C_3  and  N_4 
REMARK    3  A    between atoms: C_7  and  N_10 
REMARK       I    between atoms: N_10  and  C_11 
REMARK       I    between atoms: C_11  and  N_13 
REMARK    4  A    between atoms: N_13  and  C_14 
ROOT
HETATM    1  N   UNL     1     -41.274 -51.300  12.439  1.00  0.00    -0.338 N 
HETATM    2  C   UNL     1     -41.808 -50.073  12.119  1.00  0.00     0.322 C 
HETATM    3  O   UNL     1     -42.802 -49.617  12.672  1.00  0.00    -0.247 OA
HETATM    4  N   UNL     1     -41.124 -49.486  11.085  1.00  0.00    -0.294 N 
HETATM    5  H   UNL     1     -40.270 -51.365  12.338  1.00  0.00     0.164 HD
HETATM    6  H   UNL     1     -40.782 -50.128  10.385  1.00  0.00     0.172 HD
ENDROOT
BRANCH   1   7
HETATM    7  C   UNL     1     -41.923 -52.154  13.432  1.00  0.00     0.089 C 
HETATM    8  C   UNL     1     -41.410 -51.890  14.853  1.00  0.00     0.055 C 
HETATM    9  C   UNL     1     -40.047 -52.536  15.113  1.00  0.00     0.274 C 
HETATM   10  N   UNL     1     -39.977 -53.964  14.754  1.00  0.00     0.088 N 
HETATM   11  C   UNL     1     -40.372 -54.147  13.352  1.00  0.00     0.274 C 
HETATM   12  C   UNL     1     -41.774 -53.625  13.045  1.00  0.00     0.055 C 
BRANCH  10  13
HETATM   13  C   UNL     1     -40.721 -54.800  15.715  1.00  0.00     0.272 C 
BRANCH  13  14
HETATM   14  C   UNL     1     -39.851 -55.375  16.842  1.00  0.00     0.026 C 
HETATM   15  C   UNL     1     -38.487 -55.805  16.329  1.00  0.00     0.007 C 
ENDBRANCH  13  14
ENDBRANCH  10  13
ENDBRANCH   1   7
BRANCH   4  16
HETATM   16  C   UNL     1     -41.524 -48.257  10.546  1.00  0.00     0.123 A 
HETATM   17  C   UNL     1     -41.050 -47.050  11.036  1.00  0.00     0.051 A 
HETATM   18  C   UNL     1     -41.556 -45.872  10.507  1.00  0.00     0.022 A 
HETATM   19  C   UNL     1     -42.511 -45.965   9.516  1.00  0.00     0.107 A 
HETATM   20  N   UNL     1     -42.920 -47.148   9.014  1.00  0.00    -0.310 N 
HETATM   21  N   UNL     1     -42.401 -48.306   9.521  1.00  0.00    -0.286 N 
ATOM     22  HN  UNL     1     -43.611 -47.178   8.264  1.00  0.00     0.186 HD
ATOM     23  HN  UNL     1     -42.675 -49.205   9.126  1.00  0.00     0.188 HD
ENDBRANCH   4  16
TORSDOF 4
ENDMDL
