MODEL 1
REMARK VINA RESULT:      -6.0      0.000      0.000
REMARK  3 active torsions:
REMARK  status: ('A' for Active; 'I' for Inactive)
REMARK    1  A    between atoms: N_2  and  C_4 
REMARK    2  A    between atoms: C_11  and  N_12 
REMARK       I    between atoms: N_12  and  C_13 
REMARK       I    between atoms: C_13  and  N_15 
REMARK    3  A    between atoms: N_15  and  C_16 
ROOT
HETATM    1  C   UNL     1     -39.192 -50.752  12.568  1.00  0.00     0.132 A 
HETATM    2  N   UNL     1     -38.831 -51.647  13.523  1.00  0.00    -0.337 N 
ATOM      3  HN  UNL     1     -37.966 -51.525  14.048  1.00  0.00     0.168 HD
HETATM    4  C   UNL     1     -39.635 -52.693  13.763  1.00  0.00     0.182 A 
HETATM    5  N   UNL     1     -40.763 -52.976  13.117  1.00  0.00    -0.360 N 
ATOM      6  HN  UNL     1     -41.325 -53.799  13.330  1.00  0.00     0.166 HD
HETATM    7  C   UNL     1     -41.106 -52.091  12.160  1.00  0.00     0.122 A 
HETATM    8  C   UNL     1     -40.380 -50.947  11.837  1.00  0.00     0.096 A 
ENDROOT
BRANCH   8   9
HETATM    9  N   UNL     1     -40.790 -50.080  10.794  1.00  0.00    -0.304 N 
HETATM   10  C   UNL     1     -41.666 -49.032  10.928  1.00  0.00     0.321 C 
HETATM   11  O   UNL     1     -42.209 -48.693  11.971  1.00  0.00    -0.247 OA
HETATM   12  N   UNL     1     -41.865 -48.344   9.749  1.00  0.00    -0.334 N 
HETATM   13  H   UNL     1     -41.257 -48.556   8.974  1.00  0.00     0.165 HD
HETATM   14  H   UNL     1     -40.344 -50.228   9.903  1.00  0.00     0.171 HD
BRANCH  12  15
HETATM   15  C   UNL     1     -42.751 -47.149   9.679  1.00  0.00     0.031 C 
HETATM   16  C   UNL     1     -42.079 -45.948  10.334  1.00  0.00     0.038 C 
HETATM   17  C   UNL     1     -44.201 -47.431  10.180  1.00  0.00     0.031 C 
HETATM   18  C   UNL     1     -44.713 -46.588   8.993  1.00  0.00     0.005 C 
HETATM   19  C   UNL     1     -43.390 -46.913   8.275  1.00  0.00     0.031 C 
ENDBRANCH  12  15
ENDBRANCH   8   9
BRANCH   1  20
HETATM   20  N   UNL     1     -38.302 -49.682  12.349  1.00  0.00    -0.374 N 
HETATM   21  C   UNL     1     -37.322 -49.917  11.280  1.00  0.00     0.150 C 
HETATM   22  C   UNL     1     -37.845 -48.850  13.455  1.00  0.00     0.150 C 
ENDBRANCH   1  20
TORSDOF 3
ENDMDL
MODEL 2
REMARK VINA RESULT:      -6.0      0.980      2.583
REMARK  3 active torsions:
REMARK  status: ('A' for Active; 'I' for Inactive)
REMARK    1  A    between atoms: N_2  and  C_4 
REMARK    2  A    between atoms: C_11  and  N_12 
REMARK       I    between atoms: N_12  and  C_13 
REMARK       I    between atoms: C_13  and  N_15 
REMARK    3  A    between atoms: N_15  and  C_16 
ROOT
HETATM    1  C   UNL     1     -39.878 -51.154  12.575  1.00  0.00     0.132 A 
HETATM    2  N   UNL     1     -39.020 -51.533  13.556  1.00  0.00    -0.337 N 
ATOM      3  HN  UNL     1     -39.293 -52.236  14.242  1.00  0.00     0.168 HD
HETATM    4  C   UNL     1     -37.805 -50.966  13.606  1.00  0.00     0.182 A 
HETATM    5  N   UNL     1     -37.355 -50.014  12.794  1.00  0.00    -0.360 N 
ATOM      6  HN  UNL     1     -36.426 -49.604  12.891  1.00  0.00     0.166 HD
HETATM    7  C   UNL     1     -38.218 -49.631  11.832  1.00  0.00     0.122 A 
HETATM    8  C   UNL     1     -39.492 -50.166  11.649  1.00  0.00     0.096 A 
ENDROOT
BRANCH   8   9
HETATM    9  N   UNL     1     -40.355 -49.688  10.633  1.00  0.00    -0.304 N 
HETATM   10  C   UNL     1     -41.265 -48.669  10.774  1.00  0.00     0.321 C 
HETATM   11  O   UNL     1     -41.450 -48.023  11.796  1.00  0.00    -0.247 OA
HETATM   12  N   UNL     1     -41.955 -48.401   9.610  1.00  0.00    -0.334 N 
HETATM   13  H   UNL     1     -41.634 -48.839   8.762  1.00  0.00     0.165 HD
HETATM   14  H   UNL     1     -40.234 -50.106   9.724  1.00  0.00     0.171 HD
BRANCH  12  15
HETATM   15  C   UNL     1     -42.965 -47.308   9.533  1.00  0.00     0.031 C 
HETATM   16  C   UNL     1     -42.329 -45.969   9.886  1.00  0.00     0.038 C 
HETATM   17  C   UNL     1     -44.275 -47.628  10.316  1.00  0.00     0.031 C 
HETATM   18  C   UNL     1     -45.061 -47.025   9.133  1.00  0.00     0.005 C 
HETATM   19  C   UNL     1     -43.845 -47.346   8.244  1.00  0.00     0.031 C 
ENDBRANCH  12  15
ENDBRANCH   8   9
BRANCH   1  20
HETATM   20  N   UNL     1     -41.144 -51.773  12.582  1.00  0.00    -0.374 N 
HETATM   21  C   UNL     1     -42.121 -51.143  13.480  1.00  0.00     0.150 C 
HETATM   22  C   UNL     1     -41.274 -53.214  12.415  1.00  0.00     0.150 C 
ENDBRANCH   1  20
TORSDOF 3
ENDMDL
MODEL 3
REMARK VINA RESULT:      -5.8      2.555      6.027
REMARK  3 active torsions:
REMARK  status: ('A' for Active; 'I' for Inactive)
REMARK    1  A    between atoms: N_2  and  C_4 
REMARK    2  A    between atoms: C_11  and  N_12 
REMARK       I    between atoms: N_12  and  C_13 
REMARK       I    between atoms: C_13  and  N_15 
REMARK    3  A    between atoms: N_15  and  C_16 
ROOT
HETATM    1  C   UNL     1     -42.332 -47.252  10.011  1.00  0.00     0.132 A 
HETATM    2  N   UNL     1     -41.971 -45.965   9.774  1.00  0.00    -0.337 N 
ATOM      3  HN  UNL     1     -42.515 -45.381   9.139  1.00  0.00     0.168 HD
HETATM    4  C   UNL     1     -40.884 -45.475  10.389  1.00  0.00     0.182 A 
HETATM    5  N   UNL     1     -40.077 -46.151  11.201  1.00  0.00    -0.360 N 
ATOM      6  HN  UNL     1     -39.251 -45.731  11.628  1.00  0.00     0.166 HD
HETATM    7  C   UNL     1     -40.433 -47.433  11.420  1.00  0.00     0.122 A 
HETATM    8  C   UNL     1     -41.555 -48.050  10.872  1.00  0.00     0.096 A 
ENDROOT
BRANCH   8   9
HETATM    9  N   UNL     1     -41.847 -49.413  11.125  1.00  0.00    -0.304 N 
HETATM   10  C   UNL     1     -42.605 -49.886  12.167  1.00  0.00     0.321 C 
HETATM   11  O   UNL     1     -43.145 -49.194  13.020  1.00  0.00    -0.247 OA
HETATM   12  N   UNL     1     -42.741 -51.259  12.152  1.00  0.00    -0.334 N 
HETATM   13  H   UNL     1     -42.429 -51.753  11.332  1.00  0.00     0.165 HD
HETATM   14  H   UNL     1     -41.507 -50.067  10.437  1.00  0.00     0.171 HD
BRANCH  12  15
HETATM   15  C   UNL     1     -43.555 -51.975  13.174  1.00  0.00     0.031 C 
HETATM   16  C   UNL     1     -42.811 -52.033  14.503  1.00  0.00     0.038 C 
HETATM   17  C   UNL     1     -44.094 -53.351  12.674  1.00  0.00     0.031 C 
HETATM   18  C   UNL     1     -45.435 -53.008  13.357  1.00  0.00     0.005 C 
HETATM   19  C   UNL     1     -45.048 -51.524  13.227  1.00  0.00     0.031 C 
ENDBRANCH  12  15
ENDBRANCH   8   9
BRANCH   1  20
HETATM   20  N   UNL     1     -43.472 -47.715   9.325  1.00  0.00    -0.374 N 
HETATM   21  C   UNL     1     -43.334 -47.734   7.863  1.00  0.00     0.150 C 
HETATM   22  C   UNL     1     -44.812 -47.444   9.831  1.00  0.00     0.150 C 
ENDBRANCH   1  20
TORSDOF 3
ENDMDL
MODEL 4
REMARK VINA RESULT:      -5.8      1.702      6.265
REMARK  3 active torsions:
REMARK  status: ('A' for Active; 'I' for Inactive)
REMARK    1  A    between atoms: N_2  and  C_4 
REMARK    2  A    between atoms: C_11  and  N_12 
REMARK       I    between atoms: N_12  and  C_13 
REMARK       I    between atoms: C_13  and  N_15 
REMARK    3  A    between atoms: N_15  and  C_16 
ROOT
HETATM    1  C   UNL     1     -42.661 -46.079  10.074  1.00  0.00     0.132 A 
HETATM    2  N   UNL     1     -43.688 -45.235   9.800  1.00  0.00    -0.337 N 
ATOM      3  HN  UNL     1     -43.718 -44.303  10.213  1.00  0.00     0.168 HD
HETATM    4  C   UNL     1     -44.663 -45.648   8.978  1.00  0.00     0.182 A 
HETATM    5  N   UNL     1     -44.751 -46.851   8.415  1.00  0.00    -0.360 N 
ATOM      6  HN  UNL     1     -45.528 -47.118   7.811  1.00  0.00     0.166 HD
HETATM    7  C   UNL     1     -43.736 -47.690   8.704  1.00  0.00     0.122 A 
HETATM    8  C   UNL     1     -42.648 -47.371   9.513  1.00  0.00     0.096 A 
ENDROOT
BRANCH   8   9
HETATM    9  N   UNL     1     -41.634 -48.319   9.796  1.00  0.00    -0.304 N 
HETATM   10  C   UNL     1     -41.515 -49.035  10.962  1.00  0.00     0.321 C 
HETATM   11  O   UNL     1     -42.277 -48.961  11.918  1.00  0.00    -0.247 OA
HETATM   12  N   UNL     1     -40.444 -49.904  10.952  1.00  0.00    -0.334 N 
HETATM   13  H   UNL     1     -39.967 -50.050  10.077  1.00  0.00     0.165 HD
HETATM   14  H   UNL     1     -40.992 -48.510   9.043  1.00  0.00     0.171 HD
BRANCH  12  15
HETATM   15  C   UNL     1     -40.155 -50.802  12.105  1.00  0.00     0.031 C 
HETATM   16  C   UNL     1     -41.003 -52.066  12.022  1.00  0.00     0.038 C 
HETATM   17  C   UNL     1     -40.215 -50.073  13.481  1.00  0.00     0.031 C 
HETATM   18  C   UNL     1     -38.952 -50.860  13.889  1.00  0.00     0.005 C 
HETATM   19  C   UNL     1     -38.632 -50.999  12.389  1.00  0.00     0.031 C 
ENDBRANCH  12  15
ENDBRANCH   8   9
BRANCH   1  20
HETATM   20  N   UNL     1     -41.675 -45.595  10.956  1.00  0.00    -0.374 N 
HETATM   21  C   UNL     1     -42.205 -45.006  12.193  1.00  0.00     0.150 C 
HETATM   22  C   UNL     1     -40.443 -45.005  10.451  1.00  0.00     0.150 C 
ENDBRANCH   1  20
TORSDOF 3
ENDMDL
MODEL 5
REMARK VINA RESULT:      -5.8      2.298      6.850
REMARK  3 active torsions:
REMARK  status: ('A' for Active; 'I' for Inactive)
REMARK    1  A    between atoms: N_2  and  C_4 
REMARK    2  A    between atoms: C_11  and  N_12 
REMARK       I    between atoms: N_12  and  C_13 
REMARK       I    between atoms: C_13  and  N_15 
REMARK    3  A    between atoms: N_15  and  C_16 
ROOT
HETATM    1  C   UNL     1     -42.366 -45.513  10.472  1.00  0.00     0.132 A 
HETATM    2  N   UNL     1     -43.115 -44.390  10.612  1.00  0.00    -0.337 N 
ATOM      3  HN  UNL     1     -44.095 -44.381  10.331  1.00  0.00     0.168 HD
HETATM    4  C   UNL     1     -42.543 -43.291  11.127  1.00  0.00     0.182 A 
HETATM    5  N   UNL     1     -41.269 -43.173  11.490  1.00  0.00    -0.360 N 
ATOM      6  HN  UNL     1     -40.882 -42.304  11.859  1.00  0.00     0.166 HD
HETATM    7  C   UNL     1     -40.526 -44.287  11.334  1.00  0.00     0.122 A 
HETATM    8  C   UNL     1     -41.008 -45.500  10.845  1.00  0.00     0.096 A 
ENDROOT
BRANCH   8   9
HETATM    9  N   UNL     1     -40.157 -46.621  10.680  1.00  0.00    -0.304 N 
HETATM   10  C   UNL     1     -40.003 -47.644  11.582  1.00  0.00     0.321 C 
HETATM   11  O   UNL     1     -40.589 -47.738  12.652  1.00  0.00    -0.247 OA
HETATM   12  N   UNL     1     -39.125 -48.615  11.148  1.00  0.00    -0.334 N 
HETATM   13  H   UNL     1     -38.816 -48.574  10.190  1.00  0.00     0.165 HD
HETATM   14  H   UNL     1     -39.678 -46.679   9.795  1.00  0.00     0.171 HD
BRANCH  12  15
HETATM   15  C   UNL     1     -38.841 -49.833  11.958  1.00  0.00     0.031 C 
HETATM   16  C   UNL     1     -40.061 -50.744  11.997  1.00  0.00     0.038 C 
HETATM   17  C   UNL     1     -38.231 -49.510  13.356  1.00  0.00     0.031 C 
HETATM   18  C   UNL     1     -37.264 -50.694  13.143  1.00  0.00     0.005 C 
HETATM   19  C   UNL     1     -37.473 -50.509  11.629  1.00  0.00     0.031 C 
ENDBRANCH  12  15
ENDBRANCH   8   9
BRANCH   1  20
HETATM   20  N   UNL     1     -43.016 -46.630   9.912  1.00  0.00    -0.374 N 
HETATM   21  C   UNL     1     -43.659 -46.370   8.617  1.00  0.00     0.150 C 
HETATM   22  C   UNL     1     -43.674 -47.616  10.760  1.00  0.00     0.150 C 
ENDBRANCH   1  20
TORSDOF 3
ENDMDL
MODEL 6
REMARK VINA RESULT:      -5.5      3.270      5.167
REMARK  3 active torsions:
REMARK  status: ('A' for Active; 'I' for Inactive)
REMARK    1  A    between atoms: N_2  and  C_4 
REMARK    2  A    between atoms: C_11  and  N_12 
REMARK       I    between atoms: N_12  and  C_13 
REMARK       I    between atoms: C_13  and  N_15 
REMARK    3  A    between atoms: N_15  and  C_16 
ROOT
HETATM    1  C   UNL     1     -40.861 -49.052  11.578  1.00  0.00     0.132 A 
HETATM    2  N   UNL     1     -39.620 -48.510  11.472  1.00  0.00    -0.337 N 
ATOM      3  HN  UNL     1     -39.503 -47.522  11.248  1.00  0.00     0.168 HD
HETATM    4  C   UNL     1     -38.552 -49.297  11.667  1.00  0.00     0.182 A 
HETATM    5  N   UNL     1     -38.582 -50.603  11.922  1.00  0.00    -0.360 N 
ATOM      6  HN  UNL     1     -37.734 -51.157  12.043  1.00  0.00     0.166 HD
HETATM    7  C   UNL     1     -39.817 -51.137  12.011  1.00  0.00     0.122 A 
HETATM    8  C   UNL     1     -41.004 -50.423  11.866  1.00  0.00     0.096 A 
ENDROOT
BRANCH   8   9
HETATM    9  N   UNL     1     -42.266 -51.063  11.941  1.00  0.00    -0.304 N 
HETATM   10  C   UNL     1     -42.967 -51.308  13.096  1.00  0.00     0.321 C 
HETATM   11  O   UNL     1     -42.604 -50.997  14.223  1.00  0.00    -0.247 OA
HETATM   12  N   UNL     1     -44.179 -51.926  12.868  1.00  0.00    -0.334 N 
HETATM   13  H   UNL     1     -44.500 -51.990  11.915  1.00  0.00     0.165 HD
HETATM   14  H   UNL     1     -42.691 -51.297  11.058  1.00  0.00     0.171 HD
BRANCH  12  15
HETATM   15  C   UNL     1     -45.114 -52.250  13.981  1.00  0.00     0.031 C 
HETATM   16  C   UNL     1     -44.738 -53.579  14.623  1.00  0.00     0.038 C 
HETATM   17  C   UNL     1     -46.615 -52.129  13.576  1.00  0.00     0.031 C 
HETATM   18  C   UNL     1     -46.870 -51.459  14.942  1.00  0.00     0.005 C 
HETATM   19  C   UNL     1     -45.384 -51.057  14.951  1.00  0.00     0.031 C 
ENDBRANCH  12  15
ENDBRANCH   8   9
BRANCH   1  20
HETATM   20  N   UNL     1     -41.943 -48.180  11.348  1.00  0.00    -0.374 N 
HETATM   21  C   UNL     1     -42.169 -47.855   9.933  1.00  0.00     0.150 C 
HETATM   22  C   UNL     1     -42.272 -47.127  12.301  1.00  0.00     0.150 C 
ENDBRANCH   1  20
TORSDOF 3
ENDMDL
MODEL 7
REMARK VINA RESULT:      -5.5      2.466      5.185
REMARK  3 active torsions:
REMARK  status: ('A' for Active; 'I' for Inactive)
REMARK    1  A    between atoms: N_2  and  C_4 
REMARK    2  A    between atoms: C_11  and  N_12 
REMARK       I    between atoms: N_12  and  C_13 
REMARK       I    between atoms: C_13  and  N_15 
REMARK    3  A    between atoms: N_15  and  C_16 
ROOT
HETATM    1  C   UNL     1     -39.992 -48.254  11.722  1.00  0.00     0.132 A 
HETATM    2  N   UNL     1     -39.667 -46.951  11.522  1.00  0.00    -0.337 N 
ATOM      3  HN  UNL     1     -38.846 -46.546  11.970  1.00  0.00     0.168 HD
HETATM    4  C   UNL     1     -40.446 -46.206  10.723  1.00  0.00     0.182 A 
HETATM    5  N   UNL     1     -41.560 -46.613  10.120  1.00  0.00    -0.360 N 
ATOM      6  HN  UNL     1     -42.125 -45.996   9.538  1.00  0.00     0.166 HD
HETATM    7  C   UNL     1     -41.885 -47.904  10.336  1.00  0.00     0.122 A 
HETATM    8  C   UNL     1     -41.142 -48.791  11.113  1.00  0.00     0.096 A 
ENDROOT
BRANCH   8   9
HETATM    9  N   UNL     1     -41.566 -50.127  11.319  1.00  0.00    -0.304 N 
HETATM   10  C   UNL     1     -42.401 -50.552  12.323  1.00  0.00     0.321 C 
HETATM   11  O   UNL     1     -42.906 -49.832  13.175  1.00  0.00    -0.247 OA
HETATM   12  N   UNL     1     -42.663 -51.905  12.267  1.00  0.00    -0.334 N 
HETATM   13  H   UNL     1     -42.368 -52.406  11.445  1.00  0.00     0.165 HD
HETATM   14  H   UNL     1     -41.264 -50.793  10.626  1.00  0.00     0.171 HD
BRANCH  12  15
HETATM   15  C   UNL     1     -43.575 -52.566  13.241  1.00  0.00     0.031 C 
HETATM   16  C   UNL     1     -42.927 -52.630  14.619  1.00  0.00     0.038 C 
HETATM   17  C   UNL     1     -44.138 -53.927  12.728  1.00  0.00     0.031 C 
HETATM   18  C   UNL     1     -45.506 -53.515  13.311  1.00  0.00     0.005 C 
HETATM   19  C   UNL     1     -45.047 -52.050  13.184  1.00  0.00     0.031 C 
ENDBRANCH  12  15
ENDBRANCH   8   9
BRANCH   1  20
HETATM   20  N   UNL     1     -39.145 -48.981  12.582  1.00  0.00    -0.374 N 
HETATM   21  C   UNL     1     -39.110 -48.482  13.963  1.00  0.00     0.150 C 
HETATM   22  C   UNL     1     -37.908 -49.572  12.090  1.00  0.00     0.150 C 
ENDBRANCH   1  20
TORSDOF 3
ENDMDL
MODEL 8
REMARK VINA RESULT:      -5.0      3.255      5.236
REMARK  3 active torsions:
REMARK  status: ('A' for Active; 'I' for Inactive)
REMARK    1  A    between atoms: N_2  and  C_4 
REMARK    2  A    between atoms: C_11  and  N_12 
REMARK       I    between atoms: N_12  and  C_13 
REMARK       I    between atoms: C_13  and  N_15 
REMARK    3  A    between atoms: N_15  and  C_16 
ROOT
HETATM    1  C   UNL     1     -38.869 -51.291  13.241  1.00  0.00     0.132 A 
HETATM    2  N   UNL     1     -37.741 -50.949  12.567  1.00  0.00    -0.337 N 
ATOM      3  HN  UNL     1     -36.827 -51.266  12.890  1.00  0.00     0.168 HD
HETATM    4  C   UNL     1     -37.851 -50.187  11.469  1.00  0.00     0.182 A 
HETATM    5  N   UNL     1     -38.980 -49.684  10.978  1.00  0.00    -0.360 N 
ATOM      6  HN  UNL     1     -39.002 -49.093  10.148  1.00  0.00     0.166 HD
HETATM    7  C   UNL     1     -40.094 -50.015  11.662  1.00  0.00     0.122 A 
HETATM    8  C   UNL     1     -40.120 -50.826  12.794  1.00  0.00     0.096 A 
ENDROOT
BRANCH   8   9
HETATM    9  N   UNL     1     -41.330 -51.103  13.477  1.00  0.00    -0.304 N 
HETATM   10  C   UNL     1     -42.359 -51.874  12.995  1.00  0.00     0.321 C 
HETATM   11  O   UNL     1     -42.370 -52.439  11.909  1.00  0.00    -0.247 OA
HETATM   12  N   UNL     1     -43.406 -51.992  13.886  1.00  0.00    -0.334 N 
HETATM   13  H   UNL     1     -43.262 -51.658  14.825  1.00  0.00     0.165 HD
HETATM   14  H   UNL     1     -41.395 -50.742  14.416  1.00  0.00     0.171 HD
BRANCH  12  15
HETATM   15  C   UNL     1     -44.608 -52.814  13.576  1.00  0.00     0.031 C 
HETATM   16  C   UNL     1     -45.678 -51.962  12.903  1.00  0.00     0.038 C 
HETATM   17  C   UNL     1     -45.115 -53.643  14.796  1.00  0.00     0.031 C 
HETATM   18  C   UNL     1     -45.342 -54.822  13.827  1.00  0.00     0.005 C 
HETATM   19  C   UNL     1     -44.284 -54.187  12.907  1.00  0.00     0.031 C 
ENDBRANCH  12  15
ENDBRANCH   8   9
BRANCH   1  20
HETATM   20  N   UNL     1     -38.690 -52.079  14.395  1.00  0.00    -0.374 N 
HETATM   21  C   UNL     1     -39.105 -53.480  14.242  1.00  0.00     0.150 C 
HETATM   22  C   UNL     1     -38.859 -51.509  15.725  1.00  0.00     0.150 C 
ENDBRANCH   1  20
TORSDOF 3
ENDMDL
MODEL 9
REMARK VINA RESULT:      -4.9      3.559      5.358
REMARK  3 active torsions:
REMARK  status: ('A' for Active; 'I' for Inactive)
REMARK    1  A    between atoms: N_2  and  C_4 
REMARK    2  A    between atoms: C_11  and  N_12 
REMARK       I    between atoms: N_12  and  C_13 
REMARK       I    between atoms: C_13  and  N_15 
REMARK    3  A    between atoms: N_15  and  C_16 
ROOT
HETATM    1  C   UNL     1     -39.934 -52.132  13.832  1.00  0.00     0.132 A 
HETATM    2  N   UNL     1     -38.758 -51.508  13.569  1.00  0.00    -0.337 N 
ATOM      3  HN  UNL     1     -37.975 -51.579  14.219  1.00  0.00     0.168 HD
HETATM    4  C   UNL     1     -38.643 -50.795  12.438  1.00  0.00     0.182 A 
HETATM    5  N   UNL     1     -39.604 -50.599  11.539  1.00  0.00    -0.360 N 
ATOM      6  HN  UNL     1     -39.466 -50.029  10.704  1.00  0.00     0.166 HD
HETATM    7  C   UNL     1     -40.774 -51.208  11.815  1.00  0.00     0.122 A 
HETATM    8  C   UNL     1     -41.011 -52.004  12.934  1.00  0.00     0.096 A 
ENDROOT
BRANCH   8   9
HETATM    9  N   UNL     1     -42.281 -52.587  13.171  1.00  0.00    -0.304 N 
HETATM   10  C   UNL     1     -43.431 -51.898  13.469  1.00  0.00     0.321 C 
HETATM   11  O   UNL     1     -43.522 -50.681  13.560  1.00  0.00    -0.247 OA
HETATM   12  N   UNL     1     -44.525 -52.722  13.627  1.00  0.00    -0.334 N 
HETATM   13  H   UNL     1     -44.426 -53.689  13.363  1.00  0.00     0.165 HD
HETATM   14  H   UNL     1     -42.333 -53.586  13.050  1.00  0.00     0.171 HD
BRANCH  12  15
HETATM   15  C   UNL     1     -45.880 -52.177  13.919  1.00  0.00     0.031 C 
HETATM   16  C   UNL     1     -46.498 -51.582  12.659  1.00  0.00     0.038 C 
HETATM   17  C   UNL     1     -45.908 -51.233  15.159  1.00  0.00     0.031 C 
HETATM   18  C   UNL     1     -47.230 -51.911  15.574  1.00  0.00     0.005 C 
HETATM   19  C   UNL     1     -46.784 -53.136  14.755  1.00  0.00     0.031 C 
ENDBRANCH  12  15
ENDBRANCH   8   9
BRANCH   1  20
HETATM   20  N   UNL     1     -40.000 -52.852  15.041  1.00  0.00    -0.374 N 
HETATM   21  C   UNL     1     -40.086 -52.012  16.243  1.00  0.00     0.150 C 
HETATM   22  C   UNL     1     -39.291 -54.115  15.200  1.00  0.00     0.150 C 
ENDBRANCH   1  20
TORSDOF 3
ENDMDL
