MODEL 1
REMARK VINA RESULT:      -5.2      0.000      0.000
REMARK  2 active torsions:
REMARK  status: ('A' for Active; 'I' for Inactive)
REMARK       I    between atoms: C_2  and  N_3 
REMARK       I    between atoms: C_2  and  N_9 
REMARK    1  A    between atoms: N_3  and  C_4 
REMARK    2  A    between atoms: N_9  and  C_10 
ROOT
HETATM    1  O   UNL     1     -44.603 -54.205  12.221  1.00  0.00    -0.247 OA
HETATM    2  C   UNL     1     -43.925 -53.252  12.606  1.00  0.00     0.322 C 
HETATM    3  N   UNL     1     -44.218 -52.535  13.723  1.00  0.00    -0.338 N 
HETATM    4  N   UNL     1     -42.832 -52.871  11.889  1.00  0.00    -0.289 N 
HETATM    5  H   UNL     1     -43.656 -51.702  13.883  1.00  0.00     0.164 HD
HETATM    6  H   UNL     1     -42.665 -53.386  11.039  1.00  0.00     0.172 HD
ENDROOT
BRANCH   3   7
HETATM    7  C   UNL     1     -45.427 -52.716  14.493  1.00  0.00     0.086 C 
HETATM    8  C   UNL     1     -46.492 -51.648  14.207  1.00  0.00     0.025 C 
HETATM    9  C   UNL     1     -47.129 -51.314  15.558  1.00  0.00     0.002 C 
HETATM   10  C   UNL     1     -46.547 -52.310  16.550  1.00  0.00     0.002 C 
HETATM   11  C   UNL     1     -45.168 -52.601  15.992  1.00  0.00     0.025 C 
ENDBRANCH   3   7
BRANCH   4  12
HETATM   12  C   UNL     1     -42.000 -51.837  12.196  1.00  0.00     0.152 A 
HETATM   13  N   UNL     1     -42.120 -50.575  11.862  1.00  0.00    -0.346 N 
HETATM   14  C   UNL     1     -41.050 -49.869  12.377  1.00  0.00     0.097 A 
ATOM     15  HN  UNL     1     -42.880 -50.178  11.310  1.00  0.00     0.167 HD
HETATM   16  C   UNL     1     -40.109 -50.622  13.046  1.00  0.00     0.070 A 
HETATM   17  S   UNL     1     -40.618 -52.262  13.100  1.00  0.00    -0.064 SA
ENDBRANCH   4  12
TORSDOF 2
ENDMDL
MODEL 2
REMARK VINA RESULT:      -5.1      5.731      7.176
REMARK  2 active torsions:
REMARK  status: ('A' for Active; 'I' for Inactive)
REMARK       I    between atoms: C_2  and  N_3 
REMARK       I    between atoms: C_2  and  N_9 
REMARK    1  A    between atoms: N_3  and  C_4 
REMARK    2  A    between atoms: N_9  and  C_10 
ROOT
HETATM    1  O   UNL     1     -42.529 -48.153   9.927  1.00  0.00    -0.247 OA
HETATM    2  C   UNL     1     -41.431 -48.258  10.477  1.00  0.00     0.322 C 
HETATM    3  N   UNL     1     -40.685 -47.187  10.856  1.00  0.00    -0.338 N 
HETATM    4  N   UNL     1     -40.915 -49.495  10.714  1.00  0.00    -0.289 N 
HETATM    5  H   UNL     1     -39.748 -47.391  11.198  1.00  0.00     0.164 HD
HETATM    6  H   UNL     1     -41.464 -50.271  10.379  1.00  0.00     0.172 HD
ENDROOT
BRANCH   3   7
HETATM    7  C   UNL     1     -41.024 -45.822  10.529  1.00  0.00     0.086 C 
HETATM    8  C   UNL     1     -39.798 -44.907  10.407  1.00  0.00     0.025 C 
HETATM    9  C   UNL     1     -40.200 -43.573  11.041  1.00  0.00     0.002 C 
HETATM   10  C   UNL     1     -41.685 -43.691  11.351  1.00  0.00     0.002 C 
HETATM   11  C   UNL     1     -41.875 -45.172  11.616  1.00  0.00     0.025 C 
ENDBRANCH   3   7
BRANCH   4  12
HETATM   12  C   UNL     1     -39.716 -49.756  11.308  1.00  0.00     0.152 A 
HETATM   13  N   UNL     1     -38.538 -49.856  10.741  1.00  0.00    -0.346 N 
HETATM   14  C   UNL     1     -37.595 -50.136  11.710  1.00  0.00     0.097 A 
ATOM     15  HN  UNL     1     -38.348 -49.745   9.745  1.00  0.00     0.167 HD
HETATM   16  C   UNL     1     -38.087 -50.298  12.988  1.00  0.00     0.070 A 
HETATM   17  S   UNL     1     -39.781 -50.014  12.991  1.00  0.00    -0.064 SA
ENDBRANCH   4  12
TORSDOF 2
ENDMDL
MODEL 3
REMARK VINA RESULT:      -5.0      2.707      3.292
REMARK  2 active torsions:
REMARK  status: ('A' for Active; 'I' for Inactive)
REMARK       I    between atoms: C_2  and  N_3 
REMARK       I    between atoms: C_2  and  N_9 
REMARK    1  A    between atoms: N_3  and  C_4 
REMARK    2  A    between atoms: N_9  and  C_10 
ROOT
HETATM    1  O   UNL     1     -39.878 -53.543  12.892  1.00  0.00    -0.247 OA
HETATM    2  C   UNL     1     -40.532 -52.553  12.559  1.00  0.00     0.322 C 
HETATM    3  N   UNL     1     -41.891 -52.514  12.595  1.00  0.00    -0.338 N 
HETATM    4  N   UNL     1     -39.886 -51.439  12.118  1.00  0.00    -0.289 N 
HETATM    5  H   UNL     1     -42.326 -51.687  12.192  1.00  0.00     0.164 HD
HETATM    6  H   UNL     1     -38.882 -51.511  12.054  1.00  0.00     0.172 HD
ENDROOT
BRANCH   3   7
HETATM    7  C   UNL     1     -42.715 -53.664  12.884  1.00  0.00     0.086 C 
HETATM    8  C   UNL     1     -44.160 -53.511  12.392  1.00  0.00     0.025 C 
HETATM    9  C   UNL     1     -45.045 -54.124  13.480  1.00  0.00     0.002 C 
HETATM   10  C   UNL     1     -44.092 -54.766  14.478  1.00  0.00     0.002 C 
HETATM   11  C   UNL     1     -42.849 -53.904  14.385  1.00  0.00     0.025 C 
ENDBRANCH   3   7
BRANCH   4  12
HETATM   12  C   UNL     1     -40.481 -50.281  11.717  1.00  0.00     0.152 A 
HETATM   13  N   UNL     1     -40.724 -49.879  10.493  1.00  0.00    -0.346 N 
HETATM   14  C   UNL     1     -41.337 -48.642  10.539  1.00  0.00     0.097 A 
ATOM     15  HN  UNL     1     -40.496 -50.396   9.643  1.00  0.00     0.167 HD
HETATM   16  C   UNL     1     -41.497 -48.105  11.798  1.00  0.00     0.070 A 
HETATM   17  S   UNL     1     -40.929 -49.222  12.974  1.00  0.00    -0.064 SA
ENDBRANCH   4  12
TORSDOF 2
ENDMDL
MODEL 4
REMARK VINA RESULT:      -4.9      2.800      3.313
REMARK  2 active torsions:
REMARK  status: ('A' for Active; 'I' for Inactive)
REMARK       I    between atoms: C_2  and  N_3 
REMARK       I    between atoms: C_2  and  N_9 
REMARK    1  A    between atoms: N_3  and  C_4 
REMARK    2  A    between atoms: N_9  and  C_10 
ROOT
HETATM    1  O   UNL     1     -41.766 -51.752  12.503  1.00  0.00    -0.247 OA
HETATM    2  C   UNL     1     -42.304 -50.666  12.283  1.00  0.00     0.322 C 
HETATM    3  N   UNL     1     -43.500 -50.307  12.819  1.00  0.00    -0.338 N 
HETATM    4  N   UNL     1     -41.696 -49.772  11.455  1.00  0.00    -0.289 N 
HETATM    5  H   UNL     1     -43.900 -49.435  12.479  1.00  0.00     0.164 HD
HETATM    6  H   UNL     1     -40.835 -50.081  11.031  1.00  0.00     0.172 HD
ENDROOT
BRANCH   3   7
HETATM    7  C   UNL     1     -44.335 -51.206  13.581  1.00  0.00     0.086 C 
HETATM    8  C   UNL     1     -45.723 -51.413  12.960  1.00  0.00     0.025 C 
HETATM    9  C   UNL     1     -46.709 -51.451  14.131  1.00  0.00     0.002 C 
HETATM   10  C   UNL     1     -45.857 -51.442  15.392  1.00  0.00     0.002 C 
HETATM   11  C   UNL     1     -44.622 -50.666  14.979  1.00  0.00     0.025 C 
ENDBRANCH   3   7
BRANCH   4  12
HETATM   12  C   UNL     1     -42.178 -48.542  11.122  1.00  0.00     0.152 A 
HETATM   13  N   UNL     1     -42.962 -48.224  10.120  1.00  0.00    -0.346 N 
HETATM   14  C   UNL     1     -43.201 -46.864  10.149  1.00  0.00     0.097 A 
ATOM     15  HN  UNL     1     -43.335 -48.876   9.430  1.00  0.00     0.167 HD
HETATM   16  C   UNL     1     -42.547 -46.168  11.143  1.00  0.00     0.070 A 
HETATM   17  S   UNL     1     -41.660 -47.264  12.124  1.00  0.00    -0.064 SA
ENDBRANCH   4  12
TORSDOF 2
ENDMDL
MODEL 5
REMARK VINA RESULT:      -4.7      2.985      5.782
REMARK  2 active torsions:
REMARK  status: ('A' for Active; 'I' for Inactive)
REMARK       I    between atoms: C_2  and  N_3 
REMARK       I    between atoms: C_2  and  N_9 
REMARK    1  A    between atoms: N_3  and  C_4 
REMARK    2  A    between atoms: N_9  and  C_10 
ROOT
HETATM    1  O   UNL     1     -39.359 -49.956  11.119  1.00  0.00    -0.247 OA
HETATM    2  C   UNL     1     -40.498 -50.326  11.407  1.00  0.00     0.322 C 
HETATM    3  N   UNL     1     -41.604 -49.566  11.187  1.00  0.00    -0.338 N 
HETATM    4  N   UNL     1     -40.683 -51.544  11.986  1.00  0.00    -0.289 N 
HETATM    5  H   UNL     1     -42.477 -49.924  11.565  1.00  0.00     0.164 HD
HETATM    6  H   UNL     1     -39.844 -52.067  12.184  1.00  0.00     0.172 HD
ENDROOT
BRANCH   3   7
HETATM    7  C   UNL     1     -41.553 -48.197  10.731  1.00  0.00     0.086 C 
HETATM    8  C   UNL     1     -41.545 -47.178  11.878  1.00  0.00     0.025 C 
HETATM    9  C   UNL     1     -42.435 -46.019  11.422  1.00  0.00     0.002 C 
HETATM   10  C   UNL     1     -42.788 -46.312   9.971  1.00  0.00     0.002 C 
HETATM   11  C   UNL     1     -42.781 -47.827   9.905  1.00  0.00     0.025 C 
ENDBRANCH   3   7
BRANCH   4  12
HETATM   12  C   UNL     1     -41.881 -52.074  12.358  1.00  0.00     0.152 A 
HETATM   13  N   UNL     1     -42.720 -52.770  11.628  1.00  0.00    -0.346 N 
HETATM   14  C   UNL     1     -43.815 -53.107  12.398  1.00  0.00     0.097 A 
ATOM     15  HN  UNL     1     -42.585 -53.020  10.649  1.00  0.00     0.167 HD
HETATM   16  C   UNL     1     -43.811 -52.612  13.685  1.00  0.00     0.070 A 
HETATM   17  S   UNL     1     -42.347 -51.758  13.967  1.00  0.00    -0.064 SA
ENDBRANCH   4  12
TORSDOF 2
ENDMDL
MODEL 6
REMARK VINA RESULT:      -4.5      2.000      5.477
REMARK  2 active torsions:
REMARK  status: ('A' for Active; 'I' for Inactive)
REMARK       I    between atoms: C_2  and  N_3 
REMARK       I    between atoms: C_2  and  N_9 
REMARK    1  A    between atoms: N_3  and  C_4 
REMARK    2  A    between atoms: N_9  and  C_10 
ROOT
HETATM    1  O   UNL     1     -40.727 -52.883  11.786  1.00  0.00    -0.247 OA
HETATM    2  C   UNL     1     -41.805 -52.352  12.055  1.00  0.00     0.322 C 
HETATM    3  N   UNL     1     -42.014 -51.011  11.972  1.00  0.00    -0.338 N 
HETATM    4  N   UNL     1     -42.848 -53.122  12.470  1.00  0.00    -0.289 N 
HETATM    5  H   UNL     1     -42.907 -50.673  12.325  1.00  0.00     0.164 HD
HETATM    6  H   UNL     1     -42.653 -54.106  12.571  1.00  0.00     0.172 HD
ENDROOT
BRANCH   3   7
HETATM    7  C   UNL     1     -40.965 -50.055  11.705  1.00  0.00     0.086 C 
HETATM    8  C   UNL     1     -40.213 -49.614  12.967  1.00  0.00     0.025 C 
HETATM    9  C   UNL     1     -39.954 -48.115  12.804  1.00  0.00     0.002 C 
HETATM   10  C   UNL     1     -40.400 -47.767  11.391  1.00  0.00     0.002 C 
HETATM   11  C   UNL     1     -41.515 -48.758  11.119  1.00  0.00     0.025 C 
ENDBRANCH   3   7
BRANCH   4  12
HETATM   12  C   UNL     1     -44.089 -52.669  12.802  1.00  0.00     0.152 A 
HETATM   13  N   UNL     1     -45.131 -52.518  12.020  1.00  0.00    -0.346 N 
HETATM   14  C   UNL     1     -46.186 -52.026  12.764  1.00  0.00     0.097 A 
ATOM     15  HN  UNL     1     -45.158 -52.729  11.022  1.00  0.00     0.167 HD
HETATM   16  C   UNL     1     -45.904 -51.761  14.088  1.00  0.00     0.070 A 
HETATM   17  S   UNL     1     -44.284 -52.215  14.433  1.00  0.00    -0.064 SA
ENDBRANCH   4  12
TORSDOF 2
ENDMDL
MODEL 7
REMARK VINA RESULT:      -4.5      2.203      2.587
REMARK  2 active torsions:
REMARK  status: ('A' for Active; 'I' for Inactive)
REMARK       I    between atoms: C_2  and  N_3 
REMARK       I    between atoms: C_2  and  N_9 
REMARK    1  A    between atoms: N_3  and  C_4 
REMARK    2  A    between atoms: N_9  and  C_10 
ROOT
HETATM    1  O   UNL     1     -43.791 -55.411  14.962  1.00  0.00    -0.247 OA
HETATM    2  C   UNL     1     -43.107 -54.413  14.729  1.00  0.00     0.322 C 
HETATM    3  N   UNL     1     -43.643 -53.200  14.430  1.00  0.00    -0.338 N 
HETATM    4  N   UNL     1     -41.750 -54.509  14.752  1.00  0.00    -0.289 N 
HETATM    5  H   UNL     1     -42.985 -52.477  14.147  1.00  0.00     0.164 HD
HETATM    6  H   UNL     1     -41.378 -55.430  14.926  1.00  0.00     0.172 HD
ENDROOT
BRANCH   3   7
HETATM    7  C   UNL     1     -45.053 -52.982  14.211  1.00  0.00     0.086 C 
HETATM    8  C   UNL     1     -45.408 -52.756  12.735  1.00  0.00     0.025 C 
HETATM    9  C   UNL     1     -46.476 -51.660  12.719  1.00  0.00     0.002 C 
HETATM   10  C   UNL     1     -46.834 -51.407  14.176  1.00  0.00     0.002 C 
HETATM   11  C   UNL     1     -45.549 -51.723  14.916  1.00  0.00     0.025 C 
ENDBRANCH   3   7
BRANCH   4  12
HETATM   12  C   UNL     1     -40.877 -53.491  14.511  1.00  0.00     0.152 A 
HETATM   13  N   UNL     1     -40.437 -53.060  13.353  1.00  0.00    -0.346 N 
HETATM   14  C   UNL     1     -39.561 -52.013  13.565  1.00  0.00     0.097 A 
ATOM     15  HN  UNL     1     -40.699 -53.437  12.442  1.00  0.00     0.167 HD
HETATM   16  C   UNL     1     -39.311 -51.708  14.886  1.00  0.00     0.070 A 
HETATM   17  S   UNL     1     -40.265 -52.715  15.899  1.00  0.00    -0.064 SA
ENDBRANCH   4  12
TORSDOF 2
ENDMDL
MODEL 8
REMARK VINA RESULT:      -4.4      3.265      5.471
REMARK  2 active torsions:
REMARK  status: ('A' for Active; 'I' for Inactive)
REMARK       I    between atoms: C_2  and  N_3 
REMARK       I    between atoms: C_2  and  N_9 
REMARK    1  A    between atoms: N_3  and  C_4 
REMARK    2  A    between atoms: N_9  and  C_10 
ROOT
HETATM    1  O   UNL     1     -40.196 -52.163  11.822  1.00  0.00    -0.247 OA
HETATM    2  C   UNL     1     -41.174 -52.546  12.466  1.00  0.00     0.322 C 
HETATM    3  N   UNL     1     -41.087 -53.027  13.735  1.00  0.00    -0.338 N 
HETATM    4  N   UNL     1     -42.410 -52.507  11.896  1.00  0.00    -0.289 N 
HETATM    5  H   UNL     1     -41.941 -53.417  14.126  1.00  0.00     0.164 HD
HETATM    6  H   UNL     1     -42.441 -52.193  10.938  1.00  0.00     0.172 HD
ENDROOT
BRANCH   3   7
HETATM    7  C   UNL     1     -39.835 -53.278  14.408  1.00  0.00     0.086 C 
HETATM    8  C   UNL     1     -39.274 -54.681  14.139  1.00  0.00     0.025 C 
HETATM    9  C   UNL     1     -38.689 -55.166  15.467  1.00  0.00     0.002 C 
HETATM   10  C   UNL     1     -38.768 -53.977  16.415  1.00  0.00     0.002 C 
HETATM   11  C   UNL     1     -39.984 -53.215  15.926  1.00  0.00     0.025 C 
ENDBRANCH   3   7
BRANCH   4  12
HETATM   12  C   UNL     1     -43.572 -52.901  12.489  1.00  0.00     0.152 A 
HETATM   13  N   UNL     1     -44.124 -54.090  12.475  1.00  0.00    -0.346 N 
HETATM   14  C   UNL     1     -45.301 -54.048  13.198  1.00  0.00     0.097 A 
ATOM     15  HN  UNL     1     -43.746 -54.913  12.006  1.00  0.00     0.167 HD
HETATM   16  C   UNL     1     -45.645 -52.811  13.699  1.00  0.00     0.070 A 
HETATM   17  S   UNL     1     -44.415 -51.674  13.318  1.00  0.00    -0.064 SA
ENDBRANCH   4  12
TORSDOF 2
ENDMDL
MODEL 9
REMARK VINA RESULT:      -4.3      2.466      3.052
REMARK  2 active torsions:
REMARK  status: ('A' for Active; 'I' for Inactive)
REMARK       I    between atoms: C_2  and  N_3 
REMARK       I    between atoms: C_2  and  N_9 
REMARK    1  A    between atoms: N_3  and  C_4 
REMARK    2  A    between atoms: N_9  and  C_10 
ROOT
HETATM    1  O   UNL     1     -42.364 -49.669  11.911  1.00  0.00    -0.247 OA
HETATM    2  C   UNL     1     -42.078 -50.702  12.519  1.00  0.00     0.322 C 
HETATM    3  N   UNL     1     -42.967 -51.377  13.295  1.00  0.00    -0.338 N 
HETATM    4  N   UNL     1     -40.815 -51.202  12.436  1.00  0.00    -0.289 N 
HETATM    5  H   UNL     1     -42.592 -52.151  13.837  1.00  0.00     0.164 HD
HETATM    6  H   UNL     1     -40.162 -50.657  11.895  1.00  0.00     0.172 HD
ENDROOT
BRANCH   3   7
HETATM    7  C   UNL     1     -44.289 -50.884  13.607  1.00  0.00     0.086 C 
HETATM    8  C   UNL     1     -44.560 -50.796  15.115  1.00  0.00     0.025 C 
HETATM    9  C   UNL     1     -46.007 -51.253  15.312  1.00  0.00     0.002 C 
HETATM   10  C   UNL     1     -46.584 -51.423  13.914  1.00  0.00     0.002 C 
HETATM   11  C   UNL     1     -45.379 -51.812  13.080  1.00  0.00     0.025 C 
ENDBRANCH   3   7
BRANCH   4  12
HETATM   12  C   UNL     1     -40.364 -52.328  13.056  1.00  0.00     0.152 A 
HETATM   13  N   UNL     1     -40.544 -53.577  12.698  1.00  0.00    -0.346 N 
HETATM   14  C   UNL     1     -39.920 -54.402  13.612  1.00  0.00     0.097 A 
ATOM     15  HN  UNL     1     -41.062 -53.888  11.876  1.00  0.00     0.167 HD
HETATM   16  C   UNL     1     -39.325 -53.763  14.679  1.00  0.00     0.070 A 
HETATM   17  S   UNL     1     -39.485 -52.063  14.492  1.00  0.00    -0.064 SA
ENDBRANCH   4  12
TORSDOF 2
ENDMDL
