MODEL 1
REMARK VINA RESULT:      -5.1      0.000      0.000
REMARK  6 active torsions:
REMARK  status: ('A' for Active; 'I' for Inactive)
REMARK    1  A    between atoms: C_2  and  C_3 
REMARK    2  A    between atoms: C_2  and  C_12 
REMARK    3  A    between atoms: C_3  and  N_4 
REMARK    4  A    between atoms: N_4  and  C_5 
REMARK    5  A    between atoms: C_5  and  C_6 
REMARK    6  A    between atoms: C_5  and  C_9 
ROOT
HETATM    1  C   UNL     1     -41.603 -49.214  14.872  1.00  0.00     0.017 C 
HETATM    2  C   UNL     1     -41.725 -50.358  13.870  1.00  0.00     0.047 C 
ENDROOT
BRANCH   2   3
HETATM    3  C   UNL     1     -43.051 -50.355  13.070  1.00  0.00     0.279 C 
BRANCH   3   4
HETATM    4  N   UNL     1     -43.496 -51.642  12.533  1.00  0.00     0.089 N 
HETATM    5  H   UNL     1     -42.685 -52.165  12.197  1.00  0.00     0.316 HD
BRANCH   4   6
HETATM    6  C   UNL     1     -44.159 -52.486  13.553  1.00  0.00     0.228 C 
BRANCH   6   7
HETATM    7  C   UNL     1     -45.657 -52.581  13.364  1.00  0.00     0.019 A 
HETATM    8  C   UNL     1     -46.518 -51.585  12.609  1.00  0.00     0.007 A 
HETATM    9  C   UNL     1     -46.551 -51.600  14.101  1.00  0.00     0.007 A 
ENDBRANCH   6   7
BRANCH   6  10
HETATM   10  C   UNL     1     -43.547 -53.872  13.385  1.00  0.00     0.019 A 
HETATM   11  C   UNL     1     -42.738 -54.507  14.494  1.00  0.00     0.007 A 
HETATM   12  C   UNL     1     -42.058 -54.073  13.229  1.00  0.00     0.007 A 
ENDBRANCH   6  10
ENDBRANCH   4   6
ENDBRANCH   3   4
ENDBRANCH   2   3
BRANCH   2  13
HETATM   13  C   UNL     1     -40.547 -50.417  12.918  1.00  0.00     0.003 A 
HETATM   14  C   UNL     1     -40.320 -49.739  11.677  1.00  0.00     0.038 A 
HETATM   15  C   UNL     1     -41.153 -48.757  10.942  1.00  0.00     0.071 C 
HETATM   16  N   UNL     1     -39.157 -50.107  11.126  1.00  0.00    -0.265 N 
HETATM   17  O   UNL     1     -38.614 -51.045  11.971  1.00  0.00    -0.242 OA
ATOM     18  HN  UNL     1     -38.755 -49.761  10.255  1.00  0.00     0.194 HD
HETATM   19  C   UNL     1     -39.438 -51.237  13.030  1.00  0.00     0.081 A 
HETATM   20  C   UNL     1     -39.003 -52.257  14.001  1.00  0.00     0.079 C 
ENDBRANCH   2  13
TORSDOF 6
ENDMDL
MODEL 2
REMARK VINA RESULT:      -5.0      1.444      2.479
REMARK  6 active torsions:
REMARK  status: ('A' for Active; 'I' for Inactive)
REMARK    1  A    between atoms: C_2  and  C_3 
REMARK    2  A    between atoms: C_2  and  C_12 
REMARK    3  A    between atoms: C_3  and  N_4 
REMARK    4  A    between atoms: N_4  and  C_5 
REMARK    5  A    between atoms: C_5  and  C_6 
REMARK    6  A    between atoms: C_5  and  C_9 
ROOT
HETATM    1  C   UNL     1     -42.783 -50.243  13.364  1.00  0.00     0.017 C 
HETATM    2  C   UNL     1     -42.249 -51.671  13.321  1.00  0.00     0.047 C 
ENDROOT
BRANCH   2   3
HETATM    3  C   UNL     1     -42.820 -52.520  12.158  1.00  0.00     0.279 C 
BRANCH   3   4
HETATM    4  N   UNL     1     -43.825 -53.525  12.513  1.00  0.00     0.089 N 
HETATM    5  H   UNL     1     -43.361 -54.420  12.678  1.00  0.00     0.316 HD
BRANCH   4   6
HETATM    6  C   UNL     1     -44.558 -53.186  13.753  1.00  0.00     0.228 C 
BRANCH   6   7
HETATM    7  C   UNL     1     -46.011 -52.840  13.509  1.00  0.00     0.019 A 
HETATM    8  C   UNL     1     -46.521 -51.809  12.519  1.00  0.00     0.007 A 
HETATM    9  C   UNL     1     -46.532 -51.494  13.977  1.00  0.00     0.007 A 
ENDBRANCH   6   7
BRANCH   6  10
HETATM   10  C   UNL     1     -44.483 -54.438  14.618  1.00  0.00     0.019 A 
HETATM   11  C   UNL     1     -43.815 -54.408  15.976  1.00  0.00     0.007 A 
HETATM   12  C   UNL     1     -43.182 -55.170  14.849  1.00  0.00     0.007 A 
ENDBRANCH   6  10
ENDBRANCH   4   6
ENDBRANCH   3   4
ENDBRANCH   2   3
BRANCH   2  13
HETATM   13  C   UNL     1     -40.735 -51.719  13.300  1.00  0.00     0.003 A 
HETATM   14  C   UNL     1     -39.813 -52.369  14.182  1.00  0.00     0.038 A 
HETATM   15  C   UNL     1     -40.048 -53.212  15.379  1.00  0.00     0.071 C 
HETATM   16  N   UNL     1     -38.546 -52.124  13.830  1.00  0.00    -0.265 N 
HETATM   17  O   UNL     1     -38.606 -51.294  12.736  1.00  0.00    -0.242 OA
ATOM     18  HN  UNL     1     -37.704 -52.482  14.281  1.00  0.00     0.194 HD
HETATM   19  C   UNL     1     -39.902 -51.046  12.424  1.00  0.00     0.081 A 
HETATM   20  C   UNL     1     -40.120 -50.125  11.293  1.00  0.00     0.079 C 
ENDBRANCH   2  13
TORSDOF 6
ENDMDL
MODEL 3
REMARK VINA RESULT:      -4.9      1.324      2.327
REMARK  6 active torsions:
REMARK  status: ('A' for Active; 'I' for Inactive)
REMARK    1  A    between atoms: C_2  and  C_3 
REMARK    2  A    between atoms: C_2  and  C_12 
REMARK    3  A    between atoms: C_3  and  N_4 
REMARK    4  A    between atoms: N_4  and  C_5 
REMARK    5  A    between atoms: C_5  and  C_6 
REMARK    6  A    between atoms: C_5  and  C_9 
ROOT
HETATM    1  C   UNL     1     -41.959 -48.158  14.512  1.00  0.00     0.017 C 
HETATM    2  C   UNL     1     -42.114 -49.487  13.778  1.00  0.00     0.047 C 
ENDROOT
BRANCH   2   3
HETATM    3  C   UNL     1     -43.559 -50.044  13.787  1.00  0.00     0.279 C 
BRANCH   3   4
HETATM    4  N   UNL     1     -43.806 -51.237  12.974  1.00  0.00     0.089 N 
HETATM    5  H   UNL     1     -42.926 -51.552  12.564  1.00  0.00     0.316 HD
BRANCH   4   6
HETATM    6  C   UNL     1     -44.340 -52.366  13.768  1.00  0.00     0.228 C 
BRANCH   6   7
HETATM    7  C   UNL     1     -45.824 -52.584  13.570  1.00  0.00     0.019 A 
HETATM    8  C   UNL     1     -46.779 -51.611  12.905  1.00  0.00     0.007 A 
HETATM    9  C   UNL     1     -46.800 -51.759  14.390  1.00  0.00     0.007 A 
ENDBRANCH   6   7
BRANCH   6  10
HETATM   10  C   UNL     1     -43.586 -53.595  13.273  1.00  0.00     0.019 A 
HETATM   11  C   UNL     1     -42.628 -54.340  14.177  1.00  0.00     0.007 A 
HETATM   12  C   UNL     1     -42.099 -53.564  13.006  1.00  0.00     0.007 A 
ENDBRANCH   6  10
ENDBRANCH   4   6
ENDBRANCH   3   4
ENDBRANCH   2   3
BRANCH   2  13
HETATM   13  C   UNL     1     -41.593 -49.423  12.357  1.00  0.00     0.003 A 
HETATM   14  C   UNL     1     -40.455 -50.048  11.755  1.00  0.00     0.038 A 
HETATM   15  C   UNL     1     -39.440 -50.967  12.325  1.00  0.00     0.071 C 
HETATM   16  N   UNL     1     -40.325 -49.694  10.471  1.00  0.00    -0.265 N 
HETATM   17  O   UNL     1     -41.350 -48.815  10.212  1.00  0.00    -0.242 OA
ATOM     18  HN  UNL     1     -39.610 -50.012   9.817  1.00  0.00     0.194 HD
HETATM   19  C   UNL     1     -42.098 -48.646  11.329  1.00  0.00     0.081 A 
HETATM   20  C   UNL     1     -43.212 -47.687  11.212  1.00  0.00     0.079 C 
ENDBRANCH   2  13
TORSDOF 6
ENDMDL
MODEL 4
REMARK VINA RESULT:      -4.9      2.266      5.880
REMARK  6 active torsions:
REMARK  status: ('A' for Active; 'I' for Inactive)
REMARK    1  A    between atoms: C_2  and  C_3 
REMARK    2  A    between atoms: C_2  and  C_12 
REMARK    3  A    between atoms: C_3  and  N_4 
REMARK    4  A    between atoms: N_4  and  C_5 
REMARK    5  A    between atoms: C_5  and  C_6 
REMARK    6  A    between atoms: C_5  and  C_9 
ROOT
HETATM    1  C   UNL     1     -42.080 -50.755  14.730  1.00  0.00     0.017 C 
HETATM    2  C   UNL     1     -43.368 -50.578  13.932  1.00  0.00     0.047 C 
ENDROOT
BRANCH   2   3
HETATM    3  C   UNL     1     -43.298 -49.455  12.868  1.00  0.00     0.279 C 
BRANCH   3   4
HETATM    4  N   UNL     1     -42.438 -49.703  11.709  1.00  0.00     0.089 N 
HETATM    5  H   UNL     1     -43.015 -49.751  10.868  1.00  0.00     0.316 HD
BRANCH   4   6
HETATM    6  C   UNL     1     -41.450 -48.623  11.491  1.00  0.00     0.228 C 
BRANCH   6   7
HETATM    7  C   UNL     1     -40.029 -49.131  11.377  1.00  0.00     0.019 A 
HETATM    8  C   UNL     1     -39.411 -50.226  12.226  1.00  0.00     0.007 A 
HETATM    9  C   UNL     1     -39.044 -48.804  12.484  1.00  0.00     0.007 A 
ENDBRANCH   6   7
BRANCH   6  10
HETATM   10  C   UNL     1     -41.853 -47.970  10.174  1.00  0.00     0.019 A 
HETATM   11  C   UNL     1     -42.282 -46.520  10.121  1.00  0.00     0.007 A 
HETATM   12  C   UNL     1     -43.287 -47.606   9.872  1.00  0.00     0.007 A 
ENDBRANCH   6  10
ENDBRANCH   4   6
ENDBRANCH   3   4
ENDBRANCH   2   3
BRANCH   2  13
HETATM   13  C   UNL     1     -43.829 -51.870  13.290  1.00  0.00     0.003 A 
HETATM   14  C   UNL     1     -43.076 -52.958  12.743  1.00  0.00     0.038 A 
HETATM   15  C   UNL     1     -41.612 -53.171  12.649  1.00  0.00     0.071 C 
HETATM   16  N   UNL     1     -43.878 -53.898  12.231  1.00  0.00    -0.265 N 
HETATM   17  O   UNL     1     -45.162 -53.441  12.403  1.00  0.00    -0.242 OA
ATOM     18  HN  UNL     1     -43.594 -54.777  11.799  1.00  0.00     0.194 HD
HETATM   19  C   UNL     1     -45.137 -52.236  13.024  1.00  0.00     0.081 A 
HETATM   20  C   UNL     1     -46.450 -51.599  13.233  1.00  0.00     0.079 C 
ENDBRANCH   2  13
TORSDOF 6
ENDMDL
MODEL 5
REMARK VINA RESULT:      -4.9      1.929      2.525
REMARK  6 active torsions:
REMARK  status: ('A' for Active; 'I' for Inactive)
REMARK    1  A    between atoms: C_2  and  C_3 
REMARK    2  A    between atoms: C_2  and  C_12 
REMARK    3  A    between atoms: C_3  and  N_4 
REMARK    4  A    between atoms: N_4  and  C_5 
REMARK    5  A    between atoms: C_5  and  C_6 
REMARK    6  A    between atoms: C_5  and  C_9 
ROOT
HETATM    1  C   UNL     1     -40.564 -50.061  15.399  1.00  0.00     0.017 C 
HETATM    2  C   UNL     1     -41.365 -51.313  15.056  1.00  0.00     0.047 C 
ENDROOT
BRANCH   2   3
HETATM    3  C   UNL     1     -42.886 -51.177  15.317  1.00  0.00     0.279 C 
BRANCH   3   4
HETATM    4  N   UNL     1     -43.642 -52.423  15.455  1.00  0.00     0.089 N 
HETATM    5  H   UNL     1     -43.737 -52.650  16.446  1.00  0.00     0.316 HD
BRANCH   4   6
HETATM    6  C   UNL     1     -45.011 -52.323  14.902  1.00  0.00     0.228 C 
BRANCH   6   7
HETATM    7  C   UNL     1     -45.800 -51.165  15.473  1.00  0.00     0.019 A 
HETATM    8  C   UNL     1     -46.196 -50.996  16.928  1.00  0.00     0.007 A 
HETATM    9  C   UNL     1     -47.227 -51.405  15.929  1.00  0.00     0.007 A 
ENDBRANCH   6   7
BRANCH   6  10
HETATM   10  C   UNL     1     -44.824 -52.109  13.405  1.00  0.00     0.019 A 
HETATM   11  C   UNL     1     -45.808 -52.679  12.406  1.00  0.00     0.007 A 
HETATM   12  C   UNL     1     -44.416 -53.235  12.483  1.00  0.00     0.007 A 
ENDBRANCH   6  10
ENDBRANCH   4   6
ENDBRANCH   3   4
ENDBRANCH   2   3
BRANCH   2  13
HETATM   13  C   UNL     1     -41.125 -51.779  13.635  1.00  0.00     0.003 A 
HETATM   14  C   UNL     1     -41.372 -51.123  12.387  1.00  0.00     0.038 A 
HETATM   15  C   UNL     1     -41.922 -49.778  12.091  1.00  0.00     0.071 C 
HETATM   16  N   UNL     1     -41.052 -51.907  11.351  1.00  0.00    -0.265 N 
HETATM   17  O   UNL     1     -40.618 -53.094  11.890  1.00  0.00    -0.242 OA
ATOM     18  HN  UNL     1     -41.117 -51.672  10.361  1.00  0.00     0.194 HD
HETATM   19  C   UNL     1     -40.667 -53.025  13.243  1.00  0.00     0.081 A 
HETATM   20  C   UNL     1     -40.273 -54.252  13.960  1.00  0.00     0.079 C 
ENDBRANCH   2  13
TORSDOF 6
ENDMDL
MODEL 6
REMARK VINA RESULT:      -4.9      3.112      5.168
REMARK  6 active torsions:
REMARK  status: ('A' for Active; 'I' for Inactive)
REMARK    1  A    between atoms: C_2  and  C_3 
REMARK    2  A    between atoms: C_2  and  C_12 
REMARK    3  A    between atoms: C_3  and  N_4 
REMARK    4  A    between atoms: N_4  and  C_5 
REMARK    5  A    between atoms: C_5  and  C_6 
REMARK    6  A    between atoms: C_5  and  C_9 
ROOT
HETATM    1  C   UNL     1     -41.832 -54.895  15.541  1.00  0.00     0.017 C 
HETATM    2  C   UNL     1     -42.983 -53.902  15.405  1.00  0.00     0.047 C 
ENDROOT
BRANCH   2   3
HETATM    3  C   UNL     1     -42.677 -52.502  15.990  1.00  0.00     0.279 C 
BRANCH   3   4
HETATM    4  N   UNL     1     -43.739 -51.873  16.778  1.00  0.00     0.089 N 
HETATM    5  H   UNL     1     -43.915 -50.934  16.417  1.00  0.00     0.316 HD
BRANCH   4   6
HETATM    6  C   UNL     1     -45.020 -52.611  16.698  1.00  0.00     0.228 C 
BRANCH   6   7
HETATM    7  C   UNL     1     -45.497 -53.122  18.040  1.00  0.00     0.019 A 
HETATM    8  C   UNL     1     -44.791 -54.159  18.893  1.00  0.00     0.007 A 
HETATM    9  C   UNL     1     -46.019 -54.543  18.139  1.00  0.00     0.007 A 
ENDBRANCH   6   7
BRANCH   6  10
HETATM   10  C   UNL     1     -46.030 -51.604  16.161  1.00  0.00     0.019 A 
HETATM   11  C   UNL     1     -47.171 -52.043  15.270  1.00  0.00     0.007 A 
HETATM   12  C   UNL     1     -46.062 -51.207  14.703  1.00  0.00     0.007 A 
ENDBRANCH   6  10
ENDBRANCH   4   6
ENDBRANCH   3   4
ENDBRANCH   2   3
BRANCH   2  13
HETATM   13  C   UNL     1     -43.463 -53.772  13.975  1.00  0.00     0.003 A 
HETATM   14  C   UNL     1     -42.931 -53.019  12.880  1.00  0.00     0.038 A 
HETATM   15  C   UNL     1     -41.735 -52.146  12.795  1.00  0.00     0.071 C 
HETATM   16  N   UNL     1     -43.689 -53.147  11.785  1.00  0.00    -0.265 N 
HETATM   17  O   UNL     1     -44.740 -53.957  12.140  1.00  0.00    -0.242 OA
ATOM     18  HN  UNL     1     -43.520 -52.728  10.870  1.00  0.00     0.194 HD
HETATM   19  C   UNL     1     -44.615 -54.323  13.440  1.00  0.00     0.081 A 
HETATM   20  C   UNL     1     -45.704 -55.160  13.975  1.00  0.00     0.079 C 
ENDBRANCH   2  13
TORSDOF 6
ENDMDL
MODEL 7
REMARK VINA RESULT:      -4.9      2.926      5.826
REMARK  6 active torsions:
REMARK  status: ('A' for Active; 'I' for Inactive)
REMARK    1  A    between atoms: C_2  and  C_3 
REMARK    2  A    between atoms: C_2  and  C_12 
REMARK    3  A    between atoms: C_3  and  N_4 
REMARK    4  A    between atoms: N_4  and  C_5 
REMARK    5  A    between atoms: C_5  and  C_6 
REMARK    6  A    between atoms: C_5  and  C_9 
ROOT
HETATM    1  C   UNL     1     -45.339 -55.320  13.748  1.00  0.00     0.017 C 
HETATM    2  C   UNL     1     -44.696 -53.937  13.745  1.00  0.00     0.047 C 
ENDROOT
BRANCH   2   3
HETATM    3  C   UNL     1     -44.259 -53.450  12.341  1.00  0.00     0.279 C 
BRANCH   3   4
HETATM    4  N   UNL     1     -43.127 -52.523  12.292  1.00  0.00     0.089 N 
HETATM    5  H   UNL     1     -43.449 -51.618  11.945  1.00  0.00     0.316 HD
BRANCH   4   6
HETATM    6  C   UNL     1     -42.527 -52.285  13.624  1.00  0.00     0.228 C 
BRANCH   6   7
HETATM    7  C   UNL     1     -41.159 -52.911  13.781  1.00  0.00     0.019 A 
HETATM    8  C   UNL     1     -40.706 -54.215  13.152  1.00  0.00     0.007 A 
HETATM    9  C   UNL     1     -41.023 -54.176  14.609  1.00  0.00     0.007 A 
ENDBRANCH   6   7
BRANCH   6  10
HETATM   10  C   UNL     1     -42.398 -50.771  13.740  1.00  0.00     0.019 A 
HETATM   11  C   UNL     1     -43.293 -49.980  14.670  1.00  0.00     0.007 A 
HETATM   12  C   UNL     1     -43.447 -49.836  13.184  1.00  0.00     0.007 A 
ENDBRANCH   6  10
ENDBRANCH   4   6
ENDBRANCH   3   4
ENDBRANCH   2   3
BRANCH   2  13
HETATM   13  C   UNL     1     -45.575 -52.893  14.403  1.00  0.00     0.003 A 
HETATM   14  C   UNL     1     -46.450 -51.917  13.828  1.00  0.00     0.038 A 
HETATM   15  C   UNL     1     -46.785 -51.631  12.412  1.00  0.00     0.071 C 
HETATM   16  N   UNL     1     -47.015 -51.153  14.770  1.00  0.00    -0.265 N 
HETATM   17  O   UNL     1     -46.509 -51.589  15.971  1.00  0.00    -0.242 OA
ATOM     18  HN  UNL     1     -47.687 -50.399  14.625  1.00  0.00     0.194 HD
HETATM   19  C   UNL     1     -45.649 -52.615  15.757  1.00  0.00     0.081 A 
HETATM   20  C   UNL     1     -44.989 -53.155  16.960  1.00  0.00     0.079 C 
ENDBRANCH   2  13
TORSDOF 6
ENDMDL
MODEL 8
REMARK VINA RESULT:      -4.9      0.556      2.441
REMARK  6 active torsions:
REMARK  status: ('A' for Active; 'I' for Inactive)
REMARK    1  A    between atoms: C_2  and  C_3 
REMARK    2  A    between atoms: C_2  and  C_12 
REMARK    3  A    between atoms: C_3  and  N_4 
REMARK    4  A    between atoms: N_4  and  C_5 
REMARK    5  A    between atoms: C_5  and  C_6 
REMARK    6  A    between atoms: C_5  and  C_9 
ROOT
HETATM    1  C   UNL     1     -41.712 -49.251  14.675  1.00  0.00     0.017 C 
HETATM    2  C   UNL     1     -41.656 -50.475  13.766  1.00  0.00     0.047 C 
ENDROOT
BRANCH   2   3
HETATM    3  C   UNL     1     -42.935 -50.688  12.920  1.00  0.00     0.279 C 
BRANCH   3   4
HETATM    4  N   UNL     1     -43.166 -52.041  12.411  1.00  0.00     0.089 N 
HETATM    5  H   UNL     1     -42.317 -52.596  12.534  1.00  0.00     0.316 HD
BRANCH   4   6
HETATM    6  C   UNL     1     -44.249 -52.745  13.134  1.00  0.00     0.228 C 
BRANCH   6   7
HETATM    7  C   UNL     1     -43.779 -53.407  14.411  1.00  0.00     0.019 A 
HETATM    8  C   UNL     1     -42.546 -54.280  14.553  1.00  0.00     0.007 A 
HETATM    9  C   UNL     1     -43.896 -54.914  14.540  1.00  0.00     0.007 A 
ENDBRANCH   6   7
BRANCH   6  10
HETATM   10  C   UNL     1     -45.268 -51.666  13.478  1.00  0.00     0.019 A 
HETATM   11  C   UNL     1     -46.575 -52.014  14.156  1.00  0.00     0.007 A 
HETATM   12  C   UNL     1     -46.576 -51.538  12.733  1.00  0.00     0.007 A 
ENDBRANCH   6  10
ENDBRANCH   4   6
ENDBRANCH   3   4
ENDBRANCH   2   3
BRANCH   2  13
HETATM   13  C   UNL     1     -40.436 -50.468  12.867  1.00  0.00     0.003 A 
HETATM   14  C   UNL     1     -40.172 -49.738  11.665  1.00  0.00     0.038 A 
HETATM   15  C   UNL     1     -40.997 -48.749  10.930  1.00  0.00     0.071 C 
HETATM   16  N   UNL     1     -38.977 -50.057  11.153  1.00  0.00    -0.265 N 
HETATM   17  O   UNL     1     -38.447 -51.013  11.986  1.00  0.00    -0.242 OA
ATOM     18  HN  UNL     1     -38.546 -49.668  10.315  1.00  0.00     0.194 HD
HETATM   19  C   UNL     1     -39.313 -51.266  12.998  1.00  0.00     0.081 A 
HETATM   20  C   UNL     1     -38.894 -52.312  13.949  1.00  0.00     0.079 C 
ENDBRANCH   2  13
TORSDOF 6
ENDMDL
MODEL 9
REMARK VINA RESULT:      -4.8      2.910      5.958
REMARK  6 active torsions:
REMARK  status: ('A' for Active; 'I' for Inactive)
REMARK    1  A    between atoms: C_2  and  C_3 
REMARK    2  A    between atoms: C_2  and  C_12 
REMARK    3  A    between atoms: C_3  and  N_4 
REMARK    4  A    between atoms: N_4  and  C_5 
REMARK    5  A    between atoms: C_5  and  C_6 
REMARK    6  A    between atoms: C_5  and  C_9 
ROOT
HETATM    1  C   UNL     1     -42.971 -50.097  14.941  1.00  0.00     0.017 C 
HETATM    2  C   UNL     1     -43.619 -50.117  13.560  1.00  0.00     0.047 C 
ENDROOT
BRANCH   2   3
HETATM    3  C   UNL     1     -42.838 -49.318  12.488  1.00  0.00     0.279 C 
BRANCH   3   4
HETATM    4  N   UNL     1     -43.629 -48.721  11.410  1.00  0.00     0.089 N 
HETATM    5  H   UNL     1     -44.621 -48.874  11.598  1.00  0.00     0.316 HD
BRANCH   4   6
HETATM    6  C   UNL     1     -43.431 -47.258  11.301  1.00  0.00     0.228 C 
BRANCH   6   7
HETATM    7  C   UNL     1     -42.526 -46.698  12.376  1.00  0.00     0.019 A 
HETATM    8  C   UNL     1     -42.984 -46.080  13.685  1.00  0.00     0.007 A 
HETATM    9  C   UNL     1     -42.486 -45.197  12.591  1.00  0.00     0.007 A 
ENDBRANCH   6   7
BRANCH   6  10
HETATM   10  C   UNL     1     -42.780 -47.043   9.940  1.00  0.00     0.019 A 
HETATM   11  C   UNL     1     -43.420 -46.147   8.902  1.00  0.00     0.007 A 
HETATM   12  C   UNL     1     -43.363 -47.629   8.676  1.00  0.00     0.007 A 
ENDBRANCH   6  10
ENDBRANCH   4   6
ENDBRANCH   3   4
ENDBRANCH   2   3
BRANCH   2  13
HETATM   13  C   UNL     1     -43.878 -51.526  13.068  1.00  0.00     0.003 A 
HETATM   14  C   UNL     1     -42.970 -52.530  12.601  1.00  0.00     0.038 A 
HETATM   15  C   UNL     1     -41.493 -52.515  12.469  1.00  0.00     0.071 C 
HETATM   16  N   UNL     1     -43.620 -53.635  12.216  1.00  0.00    -0.265 N 
HETATM   17  O   UNL     1     -44.957 -53.373  12.394  1.00  0.00    -0.242 OA
ATOM     18  HN  UNL     1     -43.206 -54.497  11.862  1.00  0.00     0.194 HD
HETATM   19  C   UNL     1     -45.115 -52.122  12.891  1.00  0.00     0.081 A 
HETATM   20  C   UNL     1     -46.509 -51.685  13.090  1.00  0.00     0.079 C 
ENDBRANCH   2  13
TORSDOF 6
ENDMDL
