MODEL 1
REMARK VINA RESULT:      -6.3      0.000      0.000
REMARK  6 active torsions:
REMARK  status: ('A' for Active; 'I' for Inactive)
REMARK    1  A    between atoms: C_6  and  O_8 
REMARK    2  A    between atoms: O_8  and  C_9 
REMARK    3  A    between atoms: C_9  and  C_10 
REMARK       I    between atoms: C_10  and  N_12 
REMARK    4  A    between atoms: N_12  and  C_13 
REMARK    5  A    between atoms: C_13  and  C_14 
REMARK    6  A    between atoms: C_14  and  C_15 
ROOT
HETATM    1  C   UNL     1     -40.892 -51.970  12.366  1.00  0.00     0.241 C 
HETATM    2  O   UNL     1     -39.715 -52.151  12.664  1.00  0.00    -0.271 OA
HETATM    3  N   UNL     1     -41.329 -50.850  11.685  1.00  0.00    -0.359 N 
HETATM    4  H   UNL     1     -42.300 -50.776  11.408  1.00  0.00     0.162 HD
ENDROOT
BRANCH   1   5
HETATM    5  C   UNL     1     -41.999 -52.982  12.677  1.00  0.00     0.270 C 
BRANCH   5   6
HETATM    6  O   UNL     1     -43.305 -52.483  12.419  1.00  0.00    -0.377 OA
BRANCH   6   7
HETATM    7  C   UNL     1     -44.179 -52.570  13.554  1.00  0.00     0.122 C 
HETATM    8  C   UNL     1     -44.731 -53.994  13.702  1.00  0.00     0.032 C 
HETATM    9  C   UNL     1     -45.815 -54.106  14.766  1.00  0.00     0.003 C 
HETATM   10  C   UNL     1     -46.935 -53.097  14.539  1.00  0.00     0.004 C 
HETATM   11  C   UNL     1     -46.419 -51.657  14.419  1.00  0.00    -0.016 C 
HETATM   12  C   UNL     1     -45.941 -51.115  15.770  1.00  0.00     0.010 C 
HETATM   13  C   UNL     1     -45.323 -51.566  13.345  1.00  0.00     0.036 C 
ENDBRANCH   6   7
ENDBRANCH   5   6
ENDBRANCH   1   5
BRANCH   3  14
HETATM   14  C   UNL     1     -40.415 -49.834  11.194  1.00  0.00     0.129 C 
BRANCH  14  15
HETATM   15  C   UNL     1     -40.807 -48.416  11.614  1.00  0.00     0.084 C 
BRANCH  15  16
HETATM   16  C   UNL     1     -41.755 -47.785  10.636  1.00  0.00     0.052 A 
HETATM   17  N   UNL     1     -42.160 -48.356   9.520  1.00  0.00    -0.357 N 
HETATM   18  C   UNL     1     -43.044 -47.524   8.854  1.00  0.00     0.012 A 
ATOM     19  HN  UNL     1     -41.865 -49.276   9.195  1.00  0.00     0.166 HD
HETATM   20  C   UNL     1     -43.641 -47.984   7.572  1.00  0.00     0.068 C 
HETATM   21  C   UNL     1     -43.289 -46.317   9.480  1.00  0.00     0.076 A 
HETATM   22  S   UNL     1     -42.395 -46.217  10.936  1.00  0.00    -0.087 SA
ENDBRANCH  15  16
ENDBRANCH  14  15
ENDBRANCH   3  14
TORSDOF 6
ENDMDL
MODEL 2
REMARK VINA RESULT:      -6.2      1.628      2.021
REMARK  6 active torsions:
REMARK  status: ('A' for Active; 'I' for Inactive)
REMARK    1  A    between atoms: C_6  and  O_8 
REMARK    2  A    between atoms: O_8  and  C_9 
REMARK    3  A    between atoms: C_9  and  C_10 
REMARK       I    between atoms: C_10  and  N_12 
REMARK    4  A    between atoms: N_12  and  C_13 
REMARK    5  A    between atoms: C_13  and  C_14 
REMARK    6  A    between atoms: C_14  and  C_15 
ROOT
HETATM    1  C   UNL     1     -40.986 -50.856  12.177  1.00  0.00     0.241 C 
HETATM    2  O   UNL     1     -40.418 -50.387  13.159  1.00  0.00    -0.271 OA
HETATM    3  N   UNL     1     -41.465 -50.076  11.142  1.00  0.00    -0.359 N 
HETATM    4  H   UNL     1     -41.871 -50.515  10.326  1.00  0.00     0.162 HD
ENDROOT
BRANCH   1   5
HETATM    5  C   UNL     1     -41.189 -52.360  11.968  1.00  0.00     0.270 C 
BRANCH   5   6
HETATM    6  O   UNL     1     -41.366 -53.078  13.182  1.00  0.00    -0.377 OA
BRANCH   6   7
HETATM    7  C   UNL     1     -42.732 -53.120  13.621  1.00  0.00     0.122 C 
HETATM    8  C   UNL     1     -42.976 -54.348  14.508  1.00  0.00     0.032 C 
HETATM    9  C   UNL     1     -44.446 -54.559  14.844  1.00  0.00     0.003 C 
HETATM   10  C   UNL     1     -45.312 -54.599  13.590  1.00  0.00     0.004 C 
HETATM   11  C   UNL     1     -45.116 -53.367  12.695  1.00  0.00    -0.016 C 
HETATM   12  C   UNL     1     -45.736 -52.114  13.319  1.00  0.00     0.010 C 
HETATM   13  C   UNL     1     -43.626 -53.169  12.373  1.00  0.00     0.036 C 
ENDBRANCH   6   7
ENDBRANCH   5   6
ENDBRANCH   1   5
BRANCH   3  14
HETATM   14  C   UNL     1     -41.261 -48.638  11.096  1.00  0.00     0.129 C 
BRANCH  14  15
HETATM   15  C   UNL     1     -42.433 -47.844  11.677  1.00  0.00     0.084 C 
BRANCH  15  16
HETATM   16  C   UNL     1     -43.414 -47.438  10.617  1.00  0.00     0.052 A 
HETATM   17  N   UNL     1     -44.547 -48.065  10.375  1.00  0.00    -0.357 N 
HETATM   18  C   UNL     1     -45.233 -47.430   9.353  1.00  0.00     0.012 A 
ATOM     19  HN  UNL     1     -44.871 -48.896  10.868  1.00  0.00     0.166 HD
HETATM   20  C   UNL     1     -46.553 -47.965   8.929  1.00  0.00     0.068 C 
HETATM   21  C   UNL     1     -44.594 -46.325   8.824  1.00  0.00     0.076 A 
HETATM   22  S   UNL     1     -43.102 -46.070   9.623  1.00  0.00    -0.087 SA
ENDBRANCH  15  16
ENDBRANCH  14  15
ENDBRANCH   3  14
TORSDOF 6
ENDMDL
MODEL 3
REMARK VINA RESULT:      -5.6      3.820      4.260
REMARK  6 active torsions:
REMARK  status: ('A' for Active; 'I' for Inactive)
REMARK    1  A    between atoms: C_6  and  O_8 
REMARK    2  A    between atoms: O_8  and  C_9 
REMARK    3  A    between atoms: C_9  and  C_10 
REMARK       I    between atoms: C_10  and  N_12 
REMARK    4  A    between atoms: N_12  and  C_13 
REMARK    5  A    between atoms: C_13  and  C_14 
REMARK    6  A    between atoms: C_14  and  C_15 
ROOT
HETATM    1  C   UNL     1     -40.992 -53.385  13.190  1.00  0.00     0.241 C 
HETATM    2  O   UNL     1     -40.294 -53.056  12.235  1.00  0.00    -0.271 OA
HETATM    3  N   UNL     1     -40.484 -53.574  14.462  1.00  0.00    -0.359 N 
HETATM    4  H   UNL     1     -41.109 -53.785  15.228  1.00  0.00     0.162 HD
ENDROOT
BRANCH   1   5
HETATM    5  C   UNL     1     -42.508 -53.582  13.090  1.00  0.00     0.270 C 
BRANCH   5   6
HETATM    6  O   UNL     1     -43.148 -53.671  14.357  1.00  0.00    -0.377 OA
BRANCH   6   7
HETATM    7  C   UNL     1     -44.529 -53.281  14.323  1.00  0.00     0.122 C 
HETATM    8  C   UNL     1     -45.050 -53.269  12.880  1.00  0.00     0.032 C 
HETATM    9  C   UNL     1     -46.446 -52.675  12.755  1.00  0.00     0.003 C 
HETATM   10  C   UNL     1     -46.530 -51.291  13.387  1.00  0.00     0.004 C 
HETATM   11  C   UNL     1     -46.046 -51.274  14.843  1.00  0.00    -0.016 C 
HETATM   12  C   UNL     1     -47.040 -51.973  15.776  1.00  0.00     0.010 C 
HETATM   13  C   UNL     1     -44.638 -51.882  14.948  1.00  0.00     0.036 C 
ENDBRANCH   6   7
ENDBRANCH   5   6
ENDBRANCH   1   5
BRANCH   3  14
HETATM   14  C   UNL     1     -39.091 -53.317  14.787  1.00  0.00     0.129 C 
BRANCH  14  15
HETATM   15  C   UNL     1     -38.866 -51.952  15.439  1.00  0.00     0.084 C 
BRANCH  15  16
HETATM   16  C   UNL     1     -38.520 -50.898  14.428  1.00  0.00     0.052 A 
HETATM   17  N   UNL     1     -38.045 -51.151  13.226  1.00  0.00    -0.357 N 
HETATM   18  C   UNL     1     -37.851 -49.968  12.532  1.00  0.00     0.012 A 
ATOM     19  HN  UNL     1     -37.848 -52.082  12.859  1.00  0.00     0.166 HD
HETATM   20  C   UNL     1     -37.334 -50.024  11.140  1.00  0.00     0.068 C 
HETATM   21  C   UNL     1     -38.178 -48.824  13.234  1.00  0.00     0.076 A 
HETATM   22  S   UNL     1     -38.741 -49.234  14.798  1.00  0.00    -0.087 SA
ENDBRANCH  15  16
ENDBRANCH  14  15
ENDBRANCH   3  14
TORSDOF 6
ENDMDL
MODEL 4
REMARK VINA RESULT:      -5.6      1.816      2.354
REMARK  6 active torsions:
REMARK  status: ('A' for Active; 'I' for Inactive)
REMARK    1  A    between atoms: C_6  and  O_8 
REMARK    2  A    between atoms: O_8  and  C_9 
REMARK    3  A    between atoms: C_9  and  C_10 
REMARK       I    between atoms: C_10  and  N_12 
REMARK    4  A    between atoms: N_12  and  C_13 
REMARK    5  A    between atoms: C_13  and  C_14 
REMARK    6  A    between atoms: C_14  and  C_15 
ROOT
HETATM    1  C   UNL     1     -39.881 -52.686  13.520  1.00  0.00     0.241 C 
HETATM    2  O   UNL     1     -39.004 -53.507  13.775  1.00  0.00    -0.271 OA
HETATM    3  N   UNL     1     -39.604 -51.382  13.156  1.00  0.00    -0.359 N 
HETATM    4  H   UNL     1     -40.359 -50.760  12.896  1.00  0.00     0.162 HD
ENDROOT
BRANCH   1   5
HETATM    5  C   UNL     1     -41.374 -53.025  13.535  1.00  0.00     0.270 C 
BRANCH   5   6
HETATM    6  O   UNL     1     -42.139 -52.158  14.364  1.00  0.00    -0.377 OA
BRANCH   6   7
HETATM    7  C   UNL     1     -43.551 -52.409  14.295  1.00  0.00     0.122 C 
HETATM    8  C   UNL     1     -43.838 -53.649  13.440  1.00  0.00     0.032 C 
HETATM    9  C   UNL     1     -45.321 -53.855  13.164  1.00  0.00     0.003 C 
HETATM   10  C   UNL     1     -45.962 -52.608  12.566  1.00  0.00     0.004 C 
HETATM   11  C   UNL     1     -45.721 -51.353  13.415  1.00  0.00    -0.016 C 
HETATM   12  C   UNL     1     -46.536 -51.386  14.712  1.00  0.00     0.010 C 
HETATM   13  C   UNL     1     -44.220 -51.167  13.687  1.00  0.00     0.036 C 
ENDBRANCH   6   7
ENDBRANCH   5   6
ENDBRANCH   1   5
BRANCH   3  14
HETATM   14  C   UNL     1     -38.247 -50.900  12.966  1.00  0.00     0.129 C 
BRANCH  14  15
HETATM   15  C   UNL     1     -38.118 -49.899  11.816  1.00  0.00     0.084 C 
BRANCH  15  16
HETATM   16  C   UNL     1     -39.293 -48.969  11.749  1.00  0.00     0.052 A 
HETATM   17  N   UNL     1     -40.211 -49.001  10.804  1.00  0.00    -0.357 N 
HETATM   18  C   UNL     1     -41.170 -48.030  11.040  1.00  0.00     0.012 A 
ATOM     19  HN  UNL     1     -40.215 -49.646  10.015  1.00  0.00     0.166 HD
HETATM   20  C   UNL     1     -42.314 -47.902  10.100  1.00  0.00     0.068 C 
HETATM   21  C   UNL     1     -40.953 -47.262  12.168  1.00  0.00     0.076 A 
HETATM   22  S   UNL     1     -39.518 -47.765  12.954  1.00  0.00    -0.087 SA
ENDBRANCH  15  16
ENDBRANCH  14  15
ENDBRANCH   3  14
TORSDOF 6
ENDMDL
MODEL 5
REMARK VINA RESULT:      -5.6      1.527      2.355
REMARK  6 active torsions:
REMARK  status: ('A' for Active; 'I' for Inactive)
REMARK    1  A    between atoms: C_6  and  O_8 
REMARK    2  A    between atoms: O_8  and  C_9 
REMARK    3  A    between atoms: C_9  and  C_10 
REMARK       I    between atoms: C_10  and  N_12 
REMARK    4  A    between atoms: N_12  and  C_13 
REMARK    5  A    between atoms: C_13  and  C_14 
REMARK    6  A    between atoms: C_14  and  C_15 
ROOT
HETATM    1  C   UNL     1     -41.168 -52.311  12.424  1.00  0.00     0.241 C 
HETATM    2  O   UNL     1     -40.020 -52.712  12.595  1.00  0.00    -0.271 OA
HETATM    3  N   UNL     1     -41.459 -51.098  11.830  1.00  0.00    -0.359 N 
HETATM    4  H   UNL     1     -42.422 -50.841  11.655  1.00  0.00     0.162 HD
ENDROOT
BRANCH   1   5
HETATM    5  C   UNL     1     -42.404 -53.129  12.809  1.00  0.00     0.270 C 
BRANCH   5   6
HETATM    6  O   UNL     1     -43.578 -52.736  12.110  1.00  0.00    -0.377 OA
BRANCH   6   7
HETATM    7  C   UNL     1     -44.770 -52.834  12.904  1.00  0.00     0.122 C 
HETATM    8  C   UNL     1     -45.475 -51.474  12.988  1.00  0.00     0.032 C 
HETATM    9  C   UNL     1     -46.635 -51.463  13.974  1.00  0.00     0.003 C 
HETATM   10  C   UNL     1     -46.208 -51.952  15.353  1.00  0.00     0.004 C 
HETATM   11  C   UNL     1     -45.527 -53.327  15.309  1.00  0.00    -0.016 C 
HETATM   12  C   UNL     1     -46.531 -54.444  15.010  1.00  0.00     0.010 C 
HETATM   13  C   UNL     1     -44.364 -53.319  14.304  1.00  0.00     0.036 C 
ENDBRANCH   6   7
ENDBRANCH   5   6
ENDBRANCH   1   5
BRANCH   3  14
HETATM   14  C   UNL     1     -40.427 -50.233  11.286  1.00  0.00     0.129 C 
BRANCH  14  15
HETATM   15  C   UNL     1     -40.160 -48.997  12.147  1.00  0.00     0.084 C 
BRANCH  15  16
HETATM   16  C   UNL     1     -40.599 -47.734  11.465  1.00  0.00     0.052 A 
HETATM   17  N   UNL     1     -39.899 -46.618  11.448  1.00  0.00    -0.357 N 
HETATM   18  C   UNL     1     -40.568 -45.649  10.720  1.00  0.00     0.012 A 
ATOM     19  HN  UNL     1     -38.997 -46.488  11.905  1.00  0.00     0.166 HD
HETATM   20  C   UNL     1     -39.943 -44.309  10.558  1.00  0.00     0.068 C 
HETATM   21  C   UNL     1     -41.784 -46.049  10.200  1.00  0.00     0.076 A 
HETATM   22  S   UNL     1     -42.100 -47.675  10.629  1.00  0.00    -0.087 SA
ENDBRANCH  15  16
ENDBRANCH  14  15
ENDBRANCH   3  14
TORSDOF 6
ENDMDL
MODEL 6
REMARK VINA RESULT:      -5.6      2.867      3.748
REMARK  6 active torsions:
REMARK  status: ('A' for Active; 'I' for Inactive)
REMARK    1  A    between atoms: C_6  and  O_8 
REMARK    2  A    between atoms: O_8  and  C_9 
REMARK    3  A    between atoms: C_9  and  C_10 
REMARK       I    between atoms: C_10  and  N_12 
REMARK    4  A    between atoms: N_12  and  C_13 
REMARK    5  A    between atoms: C_13  and  C_14 
REMARK    6  A    between atoms: C_14  and  C_15 
ROOT
HETATM    1  C   UNL     1     -42.297 -54.130  14.342  1.00  0.00     0.241 C 
HETATM    2  O   UNL     1     -41.498 -53.596  15.107  1.00  0.00    -0.271 OA
HETATM    3  N   UNL     1     -42.336 -53.860  12.988  1.00  0.00    -0.359 N 
HETATM    4  H   UNL     1     -42.972 -54.372  12.390  1.00  0.00     0.162 HD
ENDROOT
BRANCH   1   5
HETATM    5  C   UNL     1     -43.311 -55.185  14.796  1.00  0.00     0.270 C 
BRANCH   5   6
HETATM    6  O   UNL     1     -44.316 -54.665  15.658  1.00  0.00    -0.377 OA
BRANCH   6   7
HETATM    7  C   UNL     1     -44.788 -53.369  15.261  1.00  0.00     0.122 C 
HETATM    8  C   UNL     1     -45.118 -52.515  16.492  1.00  0.00     0.032 C 
HETATM    9  C   UNL     1     -45.808 -51.204  16.140  1.00  0.00     0.003 C 
HETATM   10  C   UNL     1     -47.041 -51.429  15.273  1.00  0.00     0.004 C 
HETATM   11  C   UNL     1     -46.738 -52.254  14.015  1.00  0.00    -0.016 C 
HETATM   12  C   UNL     1     -45.929 -51.448  12.995  1.00  0.00     0.010 C 
HETATM   13  C   UNL     1     -46.037 -53.570  14.391  1.00  0.00     0.036 C 
ENDBRANCH   6   7
ENDBRANCH   5   6
ENDBRANCH   1   5
BRANCH   3  14
HETATM   14  C   UNL     1     -41.376 -52.980  12.344  1.00  0.00     0.129 C 
BRANCH  14  15
HETATM   15  C   UNL     1     -41.868 -51.537  12.220  1.00  0.00     0.084 C 
BRANCH  15  16
HETATM   16  C   UNL     1     -40.733 -50.571  12.047  1.00  0.00     0.052 A 
HETATM   17  N   UNL     1     -39.520 -50.913  11.661  1.00  0.00    -0.357 N 
HETATM   18  C   UNL     1     -38.714 -49.790  11.579  1.00  0.00     0.012 A 
ATOM     19  HN  UNL     1     -39.220 -51.865  11.454  1.00  0.00     0.166 HD
HETATM   20  C   UNL     1     -37.302 -49.946  11.142  1.00  0.00     0.068 C 
HETATM   21  C   UNL     1     -39.335 -48.603  11.917  1.00  0.00     0.076 A 
HETATM   22  S   UNL     1     -40.966 -48.895  12.348  1.00  0.00    -0.087 SA
ENDBRANCH  15  16
ENDBRANCH  14  15
ENDBRANCH   3  14
TORSDOF 6
ENDMDL
MODEL 7
REMARK VINA RESULT:      -5.4      2.974      4.346
REMARK  6 active torsions:
REMARK  status: ('A' for Active; 'I' for Inactive)
REMARK    1  A    between atoms: C_6  and  O_8 
REMARK    2  A    between atoms: O_8  and  C_9 
REMARK    3  A    between atoms: C_9  and  C_10 
REMARK       I    between atoms: C_10  and  N_12 
REMARK    4  A    between atoms: N_12  and  C_13 
REMARK    5  A    between atoms: C_13  and  C_14 
REMARK    6  A    between atoms: C_14  and  C_15 
ROOT
HETATM    1  C   UNL     1     -39.984 -48.529  11.701  1.00  0.00     0.241 C 
HETATM    2  O   UNL     1     -39.458 -47.732  12.473  1.00  0.00    -0.271 OA
HETATM    3  N   UNL     1     -40.902 -48.150  10.741  1.00  0.00    -0.359 N 
HETATM    4  H   UNL     1     -41.261 -48.835  10.088  1.00  0.00     0.162 HD
ENDROOT
BRANCH   1   5
HETATM    5  C   UNL     1     -39.650 -50.024  11.688  1.00  0.00     0.270 C 
BRANCH   5   6
HETATM    6  O   UNL     1     -40.796 -50.858  11.810  1.00  0.00    -0.377 OA
BRANCH   6   7
HETATM    7  C   UNL     1     -40.705 -51.789  12.898  1.00  0.00     0.122 C 
HETATM    8  C   UNL     1     -39.297 -51.772  13.507  1.00  0.00     0.032 C 
HETATM    9  C   UNL     1     -39.078 -52.875  14.533  1.00  0.00     0.003 C 
HETATM   10  C   UNL     1     -39.421 -54.248  13.969  1.00  0.00     0.004 C 
HETATM   11  C   UNL     1     -40.837 -54.309  13.379  1.00  0.00    -0.016 C 
HETATM   12  C   UNL     1     -41.905 -54.279  14.477  1.00  0.00     0.010 C 
HETATM   13  C   UNL     1     -41.040 -53.185  12.351  1.00  0.00     0.036 C 
ENDBRANCH   6   7
ENDBRANCH   5   6
ENDBRANCH   1   5
BRANCH   3  14
HETATM   14  C   UNL     1     -41.259 -46.760  10.514  1.00  0.00     0.129 C 
BRANCH  14  15
HETATM   15  C   UNL     1     -42.702 -46.436  10.903  1.00  0.00     0.084 C 
BRANCH  15  16
HETATM   16  C   UNL     1     -43.687 -47.010   9.927  1.00  0.00     0.052 A 
HETATM   17  N   UNL     1     -44.976 -47.145  10.165  1.00  0.00    -0.357 N 
HETATM   18  C   UNL     1     -45.610 -47.685   9.059  1.00  0.00     0.012 A 
ATOM     19  HN  UNL     1     -45.438 -46.888  11.037  1.00  0.00     0.166 HD
HETATM   20  C   UNL     1     -47.080 -47.905   9.106  1.00  0.00     0.068 C 
HETATM   21  C   UNL     1     -44.779 -47.964   7.992  1.00  0.00     0.076 A 
HETATM   22  S   UNL     1     -43.166 -47.541   8.377  1.00  0.00    -0.087 SA
ENDBRANCH  15  16
ENDBRANCH  14  15
ENDBRANCH   3  14
TORSDOF 6
ENDMDL
MODEL 8
REMARK VINA RESULT:      -5.4      3.284      7.132
REMARK  6 active torsions:
REMARK  status: ('A' for Active; 'I' for Inactive)
REMARK    1  A    between atoms: C_6  and  O_8 
REMARK    2  A    between atoms: O_8  and  C_9 
REMARK    3  A    between atoms: C_9  and  C_10 
REMARK       I    between atoms: C_10  and  N_12 
REMARK    4  A    between atoms: N_12  and  C_13 
REMARK    5  A    between atoms: C_13  and  C_14 
REMARK    6  A    between atoms: C_14  and  C_15 
ROOT
HETATM    1  C   UNL     1     -42.976 -52.977  12.768  1.00  0.00     0.241 C 
HETATM    2  O   UNL     1     -42.914 -53.719  13.745  1.00  0.00    -0.271 OA
HETATM    3  N   UNL     1     -44.172 -52.559  12.217  1.00  0.00    -0.359 N 
HETATM    4  H   UNL     1     -44.171 -51.898  11.451  1.00  0.00     0.162 HD
ENDROOT
BRANCH   1   5
HETATM    5  C   UNL     1     -41.737 -52.397  12.079  1.00  0.00     0.270 C 
BRANCH   5   6
HETATM    6  O   UNL     1     -41.666 -50.978  12.152  1.00  0.00    -0.377 OA
BRANCH   6   7
HETATM    7  C   UNL     1     -40.380 -50.496  12.569  1.00  0.00     0.122 C 
HETATM    8  C   UNL     1     -39.640 -49.845  11.394  1.00  0.00     0.032 C 
HETATM    9  C   UNL     1     -38.196 -49.490  11.721  1.00  0.00     0.003 C 
HETATM   10  C   UNL     1     -37.429 -50.691  12.263  1.00  0.00     0.004 C 
HETATM   11  C   UNL     1     -38.127 -51.347  13.462  1.00  0.00    -0.016 C 
HETATM   12  C   UNL     1     -38.031 -50.473  14.717  1.00  0.00     0.010 C 
HETATM   13  C   UNL     1     -39.583 -51.691  13.114  1.00  0.00     0.036 C 
ENDBRANCH   6   7
ENDBRANCH   5   6
ENDBRANCH   1   5
BRANCH   3  14
HETATM   14  C   UNL     1     -45.457 -52.902  12.802  1.00  0.00     0.129 C 
BRANCH  14  15
HETATM   15  C   UNL     1     -46.310 -51.679  13.144  1.00  0.00     0.084 C 
BRANCH  15  16
HETATM   16  C   UNL     1     -46.313 -51.393  14.617  1.00  0.00     0.052 A 
HETATM   17  N   UNL     1     -47.382 -51.463  15.384  1.00  0.00    -0.357 N 
HETATM   18  C   UNL     1     -47.048 -51.163  16.694  1.00  0.00     0.012 A 
ATOM     19  HN  UNL     1     -48.318 -51.704  15.060  1.00  0.00     0.166 HD
HETATM   20  C   UNL     1     -48.107 -51.201  17.736  1.00  0.00     0.068 C 
HETATM   21  C   UNL     1     -45.716 -50.855  16.897  1.00  0.00     0.076 A 
HETATM   22  S   UNL     1     -44.860 -50.944  15.417  1.00  0.00    -0.087 SA
ENDBRANCH  15  16
ENDBRANCH  14  15
ENDBRANCH   3  14
TORSDOF 6
ENDMDL
MODEL 9
REMARK VINA RESULT:      -5.1      3.161      7.159
REMARK  6 active torsions:
REMARK  status: ('A' for Active; 'I' for Inactive)
REMARK    1  A    between atoms: C_6  and  O_8 
REMARK    2  A    between atoms: O_8  and  C_9 
REMARK    3  A    between atoms: C_9  and  C_10 
REMARK       I    between atoms: C_10  and  N_12 
REMARK    4  A    between atoms: N_12  and  C_13 
REMARK    5  A    between atoms: C_13  and  C_14 
REMARK    6  A    between atoms: C_14  and  C_15 
ROOT
HETATM    1  C   UNL     1     -41.187 -50.491  12.531  1.00  0.00     0.241 C 
HETATM    2  O   UNL     1     -42.365 -50.244  12.287  1.00  0.00    -0.271 OA
HETATM    3  N   UNL     1     -40.650 -51.760  12.432  1.00  0.00    -0.359 N 
HETATM    4  H   UNL     1     -39.659 -51.901  12.584  1.00  0.00     0.162 HD
ENDROOT
BRANCH   1   5
HETATM    5  C   UNL     1     -40.173 -49.414  12.930  1.00  0.00     0.270 C 
BRANCH   5   6
HETATM    6  O   UNL     1     -39.529 -48.809  11.816  1.00  0.00    -0.377 OA
BRANCH   6   7
HETATM    7  C   UNL     1     -39.561 -47.375  11.853  1.00  0.00     0.122 C 
HETATM    8  C   UNL     1     -39.861 -46.879  13.273  1.00  0.00     0.032 C 
HETATM    9  C   UNL     1     -40.103 -45.377  13.342  1.00  0.00     0.003 C 
HETATM   10  C   UNL     1     -41.181 -44.934  12.360  1.00  0.00     0.004 C 
HETATM   11  C   UNL     1     -40.895 -45.387  10.922  1.00  0.00    -0.016 C 
HETATM   12  C   UNL     1     -39.735 -44.600  10.304  1.00  0.00     0.010 C 
HETATM   13  C   UNL     1     -40.647 -46.903  10.875  1.00  0.00     0.036 C 
ENDBRANCH   6   7
ENDBRANCH   5   6
ENDBRANCH   1   5
BRANCH   3  14
HETATM   14  C   UNL     1     -41.420 -52.894  11.951  1.00  0.00     0.129 C 
BRANCH  14  15
HETATM   15  C   UNL     1     -41.985 -53.761  13.078  1.00  0.00     0.084 C 
BRANCH  15  16
HETATM   16  C   UNL     1     -43.471 -53.602  13.215  1.00  0.00     0.052 A 
HETATM   17  N   UNL     1     -44.188 -52.721  12.547  1.00  0.00    -0.357 N 
HETATM   18  C   UNL     1     -45.526 -52.844  12.883  1.00  0.00     0.012 A 
ATOM     19  HN  UNL     1     -43.812 -52.046  11.881  1.00  0.00     0.166 HD
HETATM   20  C   UNL     1     -46.519 -51.953  12.229  1.00  0.00     0.068 C 
HETATM   21  C   UNL     1     -45.801 -53.822  13.819  1.00  0.00     0.076 A 
HETATM   22  S   UNL     1     -44.356 -54.608  14.291  1.00  0.00    -0.087 SA
ENDBRANCH  15  16
ENDBRANCH  14  15
ENDBRANCH   3  14
TORSDOF 6
ENDMDL
