MODEL 1
REMARK VINA RESULT:      -6.4      0.000      0.000
REMARK  5 active torsions:
REMARK  status: ('A' for Active; 'I' for Inactive)
REMARK    1  A    between atoms: C_2  and  C_3 
REMARK    2  A    between atoms: C_2  and  N_15 
REMARK    3  A    between atoms: C_3  and  N_4 
REMARK       I    between atoms: N_4  and  C_5 
REMARK    4  A    between atoms: C_5  and  C_7 
REMARK    5  A    between atoms: C_7  and  N_8 
ROOT
HETATM    1  N   UNL     1     -42.763 -53.917  14.426  1.00  0.00    -0.358 N 
HETATM    2  C   UNL     1     -43.592 -54.983  14.693  1.00  0.00     0.235 C 
HETATM    3  O   UNL     1     -43.250 -55.936  15.392  1.00  0.00    -0.272 OA
HETATM    4  H   UNL     1     -43.082 -53.129  13.869  1.00  0.00     0.162 HD
ENDROOT
BRANCH   1   5
HETATM    5  C   UNL     1     -41.455 -53.829  15.036  1.00  0.00     0.158 C 
BRANCH   5   6
HETATM    6  C   UNL     1     -40.383 -53.281  14.066  1.00  0.00     0.236 C 
HETATM    7  C   UNL     1     -39.287 -54.345  13.943  1.00  0.00     0.044 C 
BRANCH   6   8
HETATM    8  N   UNL     1     -39.997 -51.877  14.343  1.00  0.00     0.099 N 
HETATM    9  C   UNL     1     -41.080 -50.895  14.124  1.00  0.00     0.304 C 
HETATM   10  C   UNL     1     -41.202 -50.431  12.654  1.00  0.00     0.146 C 
HETATM   11  C   UNL     1     -42.348 -49.447  12.479  1.00  0.00     0.041 C 
HETATM   12  O   UNL     1     -39.967 -49.844  12.213  1.00  0.00    -0.378 OA
HETATM   13  C   UNL     1     -38.908 -50.818  12.297  1.00  0.00     0.146 C 
HETATM   14  C   UNL     1     -37.617 -50.169  11.813  1.00  0.00     0.041 C 
HETATM   15  C   UNL     1     -38.756 -51.353  13.739  1.00  0.00     0.304 C 
ENDBRANCH   6   8
ENDBRANCH   5   6
ENDBRANCH   1   5
BRANCH   2  16
HETATM   16  C   UNL     1     -44.942 -54.948  13.987  1.00  0.00     0.234 C 
BRANCH  16  17
HETATM   17  N   UNL     1     -45.682 -53.727  14.298  1.00  0.00    -0.316 N 
HETATM   18  C   UNL     1     -46.116 -53.503  15.595  1.00  0.00     0.095 A 
HETATM   19  C   UNL     1     -46.756 -52.375  15.927  1.00  0.00     0.017 A 
HETATM   20  C   UNL     1     -46.960 -51.349  14.938  1.00  0.00     0.007 A 
HETATM   21  C   UNL     1     -46.592 -51.546  13.664  1.00  0.00     0.074 A 
HETATM   22  C   UNL     1     -45.943 -52.829  13.265  1.00  0.00     0.247 A 
HETATM   23  O   UNL     1     -45.660 -53.018  12.085  1.00  0.00    -0.268 OA
ENDBRANCH  16  17
ENDBRANCH   2  16
TORSDOF 5
ENDMDL
MODEL 2
REMARK VINA RESULT:      -6.2      3.155      4.627
REMARK  5 active torsions:
REMARK  status: ('A' for Active; 'I' for Inactive)
REMARK    1  A    between atoms: C_2  and  C_3 
REMARK    2  A    between atoms: C_2  and  N_15 
REMARK    3  A    between atoms: C_3  and  N_4 
REMARK       I    between atoms: N_4  and  C_5 
REMARK    4  A    between atoms: C_5  and  C_7 
REMARK    5  A    between atoms: C_7  and  N_8 
ROOT
HETATM    1  N   UNL     1     -42.416 -51.145  12.000  1.00  0.00    -0.358 N 
HETATM    2  C   UNL     1     -42.557 -52.259  12.795  1.00  0.00     0.235 C 
HETATM    3  O   UNL     1     -41.741 -52.569  13.661  1.00  0.00    -0.272 OA
HETATM    4  H   UNL     1     -43.121 -50.896  11.312  1.00  0.00     0.162 HD
ENDROOT
BRANCH   1   5
HETATM    5  C   UNL     1     -41.319 -50.226  12.207  1.00  0.00     0.158 C 
BRANCH   5   6
HETATM    6  C   UNL     1     -41.747 -48.747  12.058  1.00  0.00     0.236 C 
HETATM    7  C   UNL     1     -43.210 -48.644  12.503  1.00  0.00     0.044 C 
BRANCH   6   8
HETATM    8  N   UNL     1     -41.341 -48.141  10.767  1.00  0.00     0.099 N 
HETATM    9  C   UNL     1     -40.397 -47.012  10.897  1.00  0.00     0.304 C 
HETATM   10  C   UNL     1     -41.091 -45.656  11.163  1.00  0.00     0.146 C 
HETATM   11  C   UNL     1     -40.074 -44.536  11.318  1.00  0.00     0.041 C 
HETATM   12  O   UNL     1     -42.012 -45.352  10.103  1.00  0.00    -0.378 OA
HETATM   13  C   UNL     1     -43.024 -46.375  10.029  1.00  0.00     0.146 C 
HETATM   14  C   UNL     1     -43.989 -46.019   8.905  1.00  0.00     0.041 C 
HETATM   15  C   UNL     1     -42.393 -47.768   9.801  1.00  0.00     0.304 C 
ENDBRANCH   6   8
ENDBRANCH   5   6
ENDBRANCH   1   5
BRANCH   2  16
HETATM   16  C   UNL     1     -43.758 -53.140  12.470  1.00  0.00     0.234 C 
BRANCH  16  17
HETATM   17  N   UNL     1     -44.862 -52.912  13.400  1.00  0.00    -0.316 N 
HETATM   18  C   UNL     1     -45.504 -51.684  13.411  1.00  0.00     0.095 A 
HETATM   19  C   UNL     1     -46.548 -51.455  14.217  1.00  0.00     0.017 A 
HETATM   20  C   UNL     1     -47.052 -52.511  15.056  1.00  0.00     0.007 A 
HETATM   21  C   UNL     1     -46.433 -53.699  15.104  1.00  0.00     0.074 A 
HETATM   22  C   UNL     1     -45.223 -53.943  14.264  1.00  0.00     0.247 A 
HETATM   23  O   UNL     1     -44.635 -55.017  14.359  1.00  0.00    -0.268 OA
ENDBRANCH  16  17
ENDBRANCH   2  16
TORSDOF 5
ENDMDL
MODEL 3
REMARK VINA RESULT:      -6.2      1.776      2.792
REMARK  5 active torsions:
REMARK  status: ('A' for Active; 'I' for Inactive)
REMARK    1  A    between atoms: C_2  and  C_3 
REMARK    2  A    between atoms: C_2  and  N_15 
REMARK    3  A    between atoms: C_3  and  N_4 
REMARK       I    between atoms: N_4  and  C_5 
REMARK    4  A    between atoms: C_5  and  C_7 
REMARK    5  A    between atoms: C_7  and  N_8 
ROOT
HETATM    1  N   UNL     1     -42.799 -53.136  12.304  1.00  0.00    -0.358 N 
HETATM    2  C   UNL     1     -43.060 -54.030  13.317  1.00  0.00     0.235 C 
HETATM    3  O   UNL     1     -42.183 -54.485  14.049  1.00  0.00    -0.272 OA
HETATM    4  H   UNL     1     -43.548 -52.753  11.734  1.00  0.00     0.162 HD
ENDROOT
BRANCH   1   5
HETATM    5  C   UNL     1     -41.464 -52.620  12.103  1.00  0.00     0.158 C 
BRANCH   5   6
HETATM    6  C   UNL     1     -41.336 -51.132  12.504  1.00  0.00     0.236 C 
HETATM    7  C   UNL     1     -42.749 -50.604  12.774  1.00  0.00     0.044 C 
BRANCH   6   8
HETATM    8  N   UNL     1     -40.433 -50.356  11.618  1.00  0.00     0.099 N 
HETATM    9  C   UNL     1     -39.101 -50.084  12.199  1.00  0.00     0.304 C 
HETATM   10  C   UNL     1     -39.068 -48.833  13.106  1.00  0.00     0.146 C 
HETATM   11  C   UNL     1     -37.685 -48.617  13.699  1.00  0.00     0.041 C 
HETATM   12  O   UNL     1     -39.483 -47.672  12.368  1.00  0.00    -0.378 OA
HETATM   13  C   UNL     1     -40.831 -47.853  11.891  1.00  0.00     0.146 C 
HETATM   14  C   UNL     1     -41.243 -46.604  11.124  1.00  0.00     0.041 C 
HETATM   15  C   UNL     1     -40.943 -49.115  11.004  1.00  0.00     0.304 C 
ENDBRANCH   6   8
ENDBRANCH   5   6
ENDBRANCH   1   5
BRANCH   2  16
HETATM   16  C   UNL     1     -44.510 -54.491  13.418  1.00  0.00     0.234 C 
BRANCH  16  17
HETATM   17  N   UNL     1     -45.366 -53.455  13.993  1.00  0.00    -0.316 N 
HETATM   18  C   UNL     1     -45.493 -53.359  15.369  1.00  0.00     0.095 A 
HETATM   19  C   UNL     1     -46.231 -52.395  15.932  1.00  0.00     0.017 A 
HETATM   20  C   UNL     1     -46.870 -51.405  15.104  1.00  0.00     0.007 A 
HETATM   21  C   UNL     1     -46.805 -51.489  13.768  1.00  0.00     0.074 A 
HETATM   22  C   UNL     1     -46.046 -52.602  13.126  1.00  0.00     0.247 A 
HETATM   23  O   UNL     1     -46.040 -52.696  11.902  1.00  0.00    -0.268 OA
ENDBRANCH  16  17
ENDBRANCH   2  16
TORSDOF 5
ENDMDL
MODEL 4
REMARK VINA RESULT:      -6.1      1.514      2.358
REMARK  5 active torsions:
REMARK  status: ('A' for Active; 'I' for Inactive)
REMARK    1  A    between atoms: C_2  and  C_3 
REMARK    2  A    between atoms: C_2  and  N_15 
REMARK    3  A    between atoms: C_3  and  N_4 
REMARK       I    between atoms: N_4  and  C_5 
REMARK    4  A    between atoms: C_5  and  C_7 
REMARK    5  A    between atoms: C_7  and  N_8 
ROOT
HETATM    1  N   UNL     1     -42.524 -53.766  12.808  1.00  0.00    -0.358 N 
HETATM    2  C   UNL     1     -42.973 -54.309  13.991  1.00  0.00     0.235 C 
HETATM    3  O   UNL     1     -42.238 -54.506  14.957  1.00  0.00    -0.272 OA
HETATM    4  H   UNL     1     -43.160 -53.586  12.037  1.00  0.00     0.162 HD
ENDROOT
BRANCH   1   5
HETATM    5  C   UNL     1     -41.156 -53.320  12.675  1.00  0.00     0.158 C 
BRANCH   5   6
HETATM    6  C   UNL     1     -41.000 -51.800  12.911  1.00  0.00     0.236 C 
HETATM    7  C   UNL     1     -42.373 -51.156  12.684  1.00  0.00     0.044 C 
BRANCH   6   8
HETATM    8  N   UNL     1     -39.811 -51.216  12.245  1.00  0.00     0.099 N 
HETATM    9  C   UNL     1     -38.606 -51.156  13.099  1.00  0.00     0.304 C 
HETATM   10  C   UNL     1     -38.551 -49.901  13.999  1.00  0.00     0.146 C 
HETATM   11  C   UNL     1     -37.310 -49.904  14.877  1.00  0.00     0.041 C 
HETATM   12  O   UNL     1     -38.594 -48.710  13.197  1.00  0.00    -0.378 OA
HETATM   13  C   UNL     1     -39.820 -48.675  12.441  1.00  0.00     0.146 C 
HETATM   14  C   UNL     1     -39.840 -47.398  11.611  1.00  0.00     0.041 C 
HETATM   15  C   UNL     1     -39.957 -49.926  11.542  1.00  0.00     0.304 C 
ENDBRANCH   6   8
ENDBRANCH   5   6
ENDBRANCH   1   5
BRANCH   2  16
HETATM   16  C   UNL     1     -44.437 -54.734  13.995  1.00  0.00     0.234 C 
BRANCH  16  17
HETATM   17  N   UNL     1     -45.323 -53.613  14.307  1.00  0.00    -0.316 N 
HETATM   18  C   UNL     1     -45.692 -53.379  15.621  1.00  0.00     0.095 A 
HETATM   19  C   UNL     1     -46.464 -52.336  15.949  1.00  0.00     0.017 A 
HETATM   20  C   UNL     1     -46.884 -51.407  14.932  1.00  0.00     0.007 A 
HETATM   21  C   UNL     1     -46.583 -51.622  13.645  1.00  0.00     0.074 A 
HETATM   22  C   UNL     1     -45.784 -52.822  13.256  1.00  0.00     0.247 A 
HETATM   23  O   UNL     1     -45.561 -53.036  12.068  1.00  0.00    -0.268 OA
ENDBRANCH  16  17
ENDBRANCH   2  16
TORSDOF 5
ENDMDL
MODEL 5
REMARK VINA RESULT:      -6.0      1.646      2.321
REMARK  5 active torsions:
REMARK  status: ('A' for Active; 'I' for Inactive)
REMARK    1  A    between atoms: C_2  and  C_3 
REMARK    2  A    between atoms: C_2  and  N_15 
REMARK    3  A    between atoms: C_3  and  N_4 
REMARK       I    between atoms: N_4  and  C_5 
REMARK    4  A    between atoms: C_5  and  C_7 
REMARK    5  A    between atoms: C_7  and  N_8 
ROOT
HETATM    1  N   UNL     1     -42.822 -54.243  13.654  1.00  0.00    -0.358 N 
HETATM    2  C   UNL     1     -43.697 -55.012  14.386  1.00  0.00     0.235 C 
HETATM    3  O   UNL     1     -43.337 -55.727  15.320  1.00  0.00    -0.272 OA
HETATM    4  H   UNL     1     -43.152 -53.638  12.906  1.00  0.00     0.162 HD
ENDROOT
BRANCH   1   5
HETATM    5  C   UNL     1     -41.423 -54.178  14.009  1.00  0.00     0.158 C 
BRANCH   5   6
HETATM    6  C   UNL     1     -40.756 -52.857  13.559  1.00  0.00     0.236 C 
HETATM    7  C   UNL     1     -41.194 -52.588  12.115  1.00  0.00     0.044 C 
BRANCH   6   8
HETATM    8  N   UNL     1     -39.316 -52.774  13.903  1.00  0.00     0.099 N 
HETATM    9  C   UNL     1     -39.012 -53.072  15.318  1.00  0.00     0.304 C 
HETATM   10  C   UNL     1     -39.168 -51.849  16.252  1.00  0.00     0.146 C 
HETATM   11  C   UNL     1     -38.873 -52.217  17.698  1.00  0.00     0.041 C 
HETATM   12  O   UNL     1     -38.308 -50.781  15.823  1.00  0.00    -0.378 OA
HETATM   13  C   UNL     1     -38.661 -50.380  14.484  1.00  0.00     0.146 C 
HETATM   14  C   UNL     1     -37.741 -49.242  14.063  1.00  0.00     0.041 C 
HETATM   15  C   UNL     1     -38.562 -51.570  13.501  1.00  0.00     0.304 C 
ENDBRANCH   6   8
ENDBRANCH   5   6
ENDBRANCH   1   5
BRANCH   2  16
HETATM   16  C   UNL     1     -45.143 -54.987  13.905  1.00  0.00     0.234 C 
BRANCH  16  17
HETATM   17  N   UNL     1     -45.808 -53.734  14.258  1.00  0.00    -0.316 N 
HETATM   18  C   UNL     1     -46.203 -53.516  15.567  1.00  0.00     0.095 A 
HETATM   19  C   UNL     1     -46.773 -52.362  15.937  1.00  0.00     0.017 A 
HETATM   20  C   UNL     1     -46.938 -51.304  14.975  1.00  0.00     0.007 A 
HETATM   21  C   UNL     1     -46.607 -51.492  13.690  1.00  0.00     0.074 A 
HETATM   22  C   UNL     1     -46.039 -52.800  13.250  1.00  0.00     0.247 A 
HETATM   23  O   UNL     1     -45.790 -52.977  12.061  1.00  0.00    -0.268 OA
ENDBRANCH  16  17
ENDBRANCH   2  16
TORSDOF 5
ENDMDL
MODEL 6
REMARK VINA RESULT:      -5.8      1.652      2.451
REMARK  5 active torsions:
REMARK  status: ('A' for Active; 'I' for Inactive)
REMARK    1  A    between atoms: C_2  and  C_3 
REMARK    2  A    between atoms: C_2  and  N_15 
REMARK    3  A    between atoms: C_3  and  N_4 
REMARK       I    between atoms: N_4  and  C_5 
REMARK    4  A    between atoms: C_5  and  C_7 
REMARK    5  A    between atoms: C_7  and  N_8 
ROOT
HETATM    1  N   UNL     1     -41.301 -53.912  12.981  1.00  0.00    -0.358 N 
HETATM    2  C   UNL     1     -42.482 -54.202  13.625  1.00  0.00     0.235 C 
HETATM    3  O   UNL     1     -42.525 -54.662  14.765  1.00  0.00    -0.272 OA
HETATM    4  H   UNL     1     -41.296 -53.504  12.050  1.00  0.00     0.162 HD
ENDROOT
BRANCH   1   5
HETATM    5  C   UNL     1     -40.034 -54.063  13.660  1.00  0.00     0.158 C 
BRANCH   5   6
HETATM    6  C   UNL     1     -39.509 -52.730  14.241  1.00  0.00     0.236 C 
HETATM    7  C   UNL     1     -39.548 -52.847  15.770  1.00  0.00     0.044 C 
BRANCH   6   8
HETATM    8  N   UNL     1     -40.095 -51.530  13.595  1.00  0.00     0.099 N 
HETATM    9  C   UNL     1     -39.398 -51.104  12.364  1.00  0.00     0.304 C 
HETATM   10  C   UNL     1     -38.174 -50.197  12.631  1.00  0.00     0.146 C 
HETATM   11  C   UNL     1     -37.477 -49.813  11.335  1.00  0.00     0.041 C 
HETATM   12  O   UNL     1     -38.574 -49.021  13.353  1.00  0.00    -0.378 OA
HETATM   13  C   UNL     1     -39.148 -49.398  14.620  1.00  0.00     0.146 C 
HETATM   14  C   UNL     1     -39.550 -48.131  15.363  1.00  0.00     0.041 C 
HETATM   15  C   UNL     1     -40.359 -50.339  14.426  1.00  0.00     0.304 C 
ENDBRANCH   6   8
ENDBRANCH   5   6
ENDBRANCH   1   5
BRANCH   2  16
HETATM   16  C   UNL     1     -43.743 -53.995  12.795  1.00  0.00     0.234 C 
BRANCH  16  17
HETATM   17  N   UNL     1     -44.784 -53.308  13.556  1.00  0.00    -0.316 N 
HETATM   18  C   UNL     1     -44.728 -51.932  13.702  1.00  0.00     0.095 A 
HETATM   19  C   UNL     1     -45.688 -51.263  14.353  1.00  0.00     0.017 A 
HETATM   20  C   UNL     1     -46.829 -51.972  14.872  1.00  0.00     0.007 A 
HETATM   21  C   UNL     1     -46.899 -53.307  14.788  1.00  0.00     0.074 A 
HETATM   22  C   UNL     1     -45.799 -54.072  14.129  1.00  0.00     0.247 A 
HETATM   23  O   UNL     1     -45.851 -55.298  14.106  1.00  0.00    -0.268 OA
ENDBRANCH  16  17
ENDBRANCH   2  16
TORSDOF 5
ENDMDL
MODEL 7
REMARK VINA RESULT:      -5.8      2.246      3.427
REMARK  5 active torsions:
REMARK  status: ('A' for Active; 'I' for Inactive)
REMARK    1  A    between atoms: C_2  and  C_3 
REMARK    2  A    between atoms: C_2  and  N_15 
REMARK    3  A    between atoms: C_3  and  N_4 
REMARK       I    between atoms: N_4  and  C_5 
REMARK    4  A    between atoms: C_5  and  C_7 
REMARK    5  A    between atoms: C_7  and  N_8 
ROOT
HETATM    1  N   UNL     1     -42.537 -52.479  11.875  1.00  0.00    -0.358 N 
HETATM    2  C   UNL     1     -42.970 -53.490  12.701  1.00  0.00     0.235 C 
HETATM    3  O   UNL     1     -42.221 -54.095  13.467  1.00  0.00    -0.272 OA
HETATM    4  H   UNL     1     -43.185 -51.977  11.274  1.00  0.00     0.162 HD
ENDROOT
BRANCH   1   5
HETATM    5  C   UNL     1     -41.168 -52.018  11.928  1.00  0.00     0.158 C 
BRANCH   5   6
HETATM    6  C   UNL     1     -41.030 -50.646  12.627  1.00  0.00     0.236 C 
HETATM    7  C   UNL     1     -40.730 -50.910  14.107  1.00  0.00     0.044 C 
BRANCH   6   8
HETATM    8  N   UNL     1     -42.104 -49.689  12.269  1.00  0.00     0.099 N 
HETATM    9  C   UNL     1     -41.711 -48.688  11.255  1.00  0.00     0.304 C 
HETATM   10  C   UNL     1     -40.995 -47.454  11.852  1.00  0.00     0.146 C 
HETATM   11  C   UNL     1     -40.586 -46.472  10.766  1.00  0.00     0.041 C 
HETATM   12  O   UNL     1     -41.839 -46.808  12.819  1.00  0.00    -0.378 OA
HETATM   13  C   UNL     1     -42.142 -47.723  13.891  1.00  0.00     0.146 C 
HETATM   14  C   UNL     1     -43.027 -47.006  14.902  1.00  0.00     0.041 C 
HETATM   15  C   UNL     1     -42.828 -49.001  13.355  1.00  0.00     0.304 C 
ENDBRANCH   6   8
ENDBRANCH   5   6
ENDBRANCH   1   5
BRANCH   2  16
HETATM   16  C   UNL     1     -44.437 -53.875  12.543  1.00  0.00     0.234 C 
BRANCH  16  17
HETATM   17  N   UNL     1     -45.280 -53.203  13.530  1.00  0.00    -0.316 N 
HETATM   18  C   UNL     1     -45.784 -51.943  13.253  1.00  0.00     0.095 A 
HETATM   19  C   UNL     1     -46.597 -51.317  14.112  1.00  0.00     0.017 A 
HETATM   20  C   UNL     1     -47.001 -51.976  15.327  1.00  0.00     0.007 A 
HETATM   21  C   UNL     1     -46.503 -53.178  15.650  1.00  0.00     0.074 A 
HETATM   22  C   UNL     1     -45.538 -53.855  14.734  1.00  0.00     0.247 A 
HETATM   23  O   UNL     1     -45.048 -54.930  15.067  1.00  0.00    -0.268 OA
ENDBRANCH  16  17
ENDBRANCH   2  16
TORSDOF 5
ENDMDL
MODEL 8
REMARK VINA RESULT:      -5.7      1.486      2.483
REMARK  5 active torsions:
REMARK  status: ('A' for Active; 'I' for Inactive)
REMARK    1  A    between atoms: C_2  and  C_3 
REMARK    2  A    between atoms: C_2  and  N_15 
REMARK    3  A    between atoms: C_3  and  N_4 
REMARK       I    between atoms: N_4  and  C_5 
REMARK    4  A    between atoms: C_5  and  C_7 
REMARK    5  A    between atoms: C_7  and  N_8 
ROOT
HETATM    1  N   UNL     1     -43.893 -53.388  13.420  1.00  0.00    -0.358 N 
HETATM    2  C   UNL     1     -45.227 -53.619  13.178  1.00  0.00     0.235 C 
HETATM    3  O   UNL     1     -45.799 -53.228  12.162  1.00  0.00    -0.272 OA
HETATM    4  H   UNL     1     -43.439 -53.749  14.255  1.00  0.00     0.162 HD
ENDROOT
BRANCH   1   5
HETATM    5  C   UNL     1     -43.067 -52.731  12.432  1.00  0.00     0.158 C 
BRANCH   5   6
HETATM    6  C   UNL     1     -41.562 -52.791  12.780  1.00  0.00     0.236 C 
HETATM    7  C   UNL     1     -41.306 -54.125  13.491  1.00  0.00     0.044 C 
BRANCH   6   8
HETATM    8  N   UNL     1     -41.044 -51.540  13.387  1.00  0.00     0.099 N 
HETATM    9  C   UNL     1     -41.569 -50.305  12.769  1.00  0.00     0.304 C 
HETATM   10  C   UNL     1     -40.783 -49.862  11.513  1.00  0.00     0.146 C 
HETATM   11  C   UNL     1     -41.382 -48.605  10.901  1.00  0.00     0.041 C 
HETATM   12  O   UNL     1     -39.400 -49.650  11.840  1.00  0.00    -0.378 OA
HETATM   13  C   UNL     1     -38.822 -50.875  12.331  1.00  0.00     0.146 C 
HETATM   14  C   UNL     1     -37.356 -50.620  12.657  1.00  0.00     0.041 C 
HETATM   15  C   UNL     1     -39.587 -51.395  13.570  1.00  0.00     0.304 C 
ENDBRANCH   6   8
ENDBRANCH   5   6
ENDBRANCH   1   5
BRANCH   2  16
HETATM   16  C   UNL     1     -45.979 -54.323  14.302  1.00  0.00     0.234 C 
BRANCH  16  17
HETATM   17  N   UNL     1     -46.273 -53.413  15.407  1.00  0.00    -0.316 N 
HETATM   18  C   UNL     1     -47.059 -52.295  15.181  1.00  0.00     0.095 A 
HETATM   19  C   UNL     1     -47.387 -51.465  16.179  1.00  0.00     0.017 A 
HETATM   20  C   UNL     1     -46.961 -51.755  17.523  1.00  0.00     0.007 A 
HETATM   21  C   UNL     1     -46.165 -52.803  17.775  1.00  0.00     0.074 A 
HETATM   22  C   UNL     1     -45.732 -53.696  16.659  1.00  0.00     0.247 A 
HETATM   23  O   UNL     1     -44.959 -54.620  16.896  1.00  0.00    -0.268 OA
ENDBRANCH  16  17
ENDBRANCH   2  16
TORSDOF 5
ENDMDL
MODEL 9
REMARK VINA RESULT:      -5.7      1.988      6.674
REMARK  5 active torsions:
REMARK  status: ('A' for Active; 'I' for Inactive)
REMARK    1  A    between atoms: C_2  and  C_3 
REMARK    2  A    between atoms: C_2  and  N_15 
REMARK    3  A    between atoms: C_3  and  N_4 
REMARK       I    between atoms: N_4  and  C_5 
REMARK    4  A    between atoms: C_5  and  C_7 
REMARK    5  A    between atoms: C_7  and  N_8 
ROOT
HETATM    1  N   UNL     1     -42.353 -52.408  12.518  1.00  0.00    -0.358 N 
HETATM    2  C   UNL     1     -40.982 -52.465  12.415  1.00  0.00     0.235 C 
HETATM    3  O   UNL     1     -40.332 -53.471  12.694  1.00  0.00    -0.272 OA
HETATM    4  H   UNL     1     -42.867 -51.573  12.253  1.00  0.00     0.162 HD
ENDROOT
BRANCH   1   5
HETATM    5  C   UNL     1     -43.114 -53.580  12.890  1.00  0.00     0.158 C 
BRANCH   5   6
HETATM    6  C   UNL     1     -43.615 -53.524  14.351  1.00  0.00     0.236 C 
HETATM    7  C   UNL     1     -42.691 -54.415  15.190  1.00  0.00     0.044 C 
BRANCH   6   8
HETATM    8  N   UNL     1     -45.084 -53.686  14.480  1.00  0.00     0.099 N 
HETATM    9  C   UNL     1     -45.840 -53.348  13.256  1.00  0.00     0.304 C 
HETATM   10  C   UNL     1     -46.153 -51.839  13.123  1.00  0.00     0.146 C 
HETATM   11  C   UNL     1     -46.905 -51.543  11.834  1.00  0.00     0.041 C 
HETATM   12  O   UNL     1     -46.907 -51.384  14.258  1.00  0.00    -0.378 OA
HETATM   13  C   UNL     1     -46.143 -51.587  15.463  1.00  0.00     0.146 C 
HETATM   14  C   UNL     1     -46.963 -51.086  16.644  1.00  0.00     0.041 C 
HETATM   15  C   UNL     1     -45.763 -53.075  15.639  1.00  0.00     0.304 C 
ENDBRANCH   6   8
ENDBRANCH   5   6
ENDBRANCH   1   5
BRANCH   2  16
HETATM   16  C   UNL     1     -40.307 -51.159  12.012  1.00  0.00     0.234 C 
BRANCH  16  17
HETATM   17  N   UNL     1     -39.508 -50.606  13.104  1.00  0.00    -0.316 N 
HETATM   18  C   UNL     1     -40.133 -49.897  14.117  1.00  0.00     0.095 A 
HETATM   19  C   UNL     1     -39.440 -49.415  15.156  1.00  0.00     0.017 A 
HETATM   20  C   UNL     1     -38.027 -49.675  15.258  1.00  0.00     0.007 A 
HETATM   21  C   UNL     1     -37.380 -50.320  14.278  1.00  0.00     0.074 A 
HETATM   22  C   UNL     1     -38.128 -50.799  13.079  1.00  0.00     0.247 A 
HETATM   23  O   UNL     1     -37.514 -51.341  12.164  1.00  0.00    -0.268 OA
ENDBRANCH  16  17
ENDBRANCH   2  16
TORSDOF 5
ENDMDL
