MODEL 1
REMARK VINA RESULT:      -6.2      0.000      0.000
REMARK  5 active torsions:
REMARK  status: ('A' for Active; 'I' for Inactive)
REMARK    1  A    between atoms: C_2  and  O_3 
REMARK    2  A    between atoms: O_3  and  C_4 
REMARK    3  A    between atoms: C_10  and  N_11 
REMARK       I    between atoms: N_11  and  C_12 
REMARK       I    between atoms: C_12  and  N_14 
REMARK    4  A    between atoms: N_14  and  C_15 
REMARK    5  A    between atoms: C_15  and  C_16 
ROOT
HETATM    1  N   UNL     1     -42.769 -52.627  12.021  1.00  0.00    -0.305 N 
HETATM    2  C   UNL     1     -42.155 -51.473  12.454  1.00  0.00     0.320 C 
HETATM    3  O   UNL     1     -42.107 -51.107  13.627  1.00  0.00    -0.247 OA
HETATM    4  N   UNL     1     -41.572 -50.711  11.456  1.00  0.00    -0.340 N 
HETATM    5  H   UNL     1     -42.393 -53.076  11.196  1.00  0.00     0.171 HD
HETATM    6  H   UNL     1     -42.046 -50.735  10.561  1.00  0.00     0.164 HD
ENDROOT
BRANCH   1   7
HETATM    7  C   UNL     1     -43.601 -53.431  12.863  1.00  0.00     0.087 A 
HETATM    8  C   UNL     1     -44.998 -53.461  12.744  1.00  0.00     0.169 A 
HETATM    9  N   UNL     1     -45.800 -54.217  13.537  1.00  0.00    -0.345 N 
HETATM   10  C   UNL     1     -45.217 -54.997  14.467  1.00  0.00     0.090 A 
ATOM     11  HN  UNL     1     -46.814 -54.195  13.431  1.00  0.00     0.167 HD
HETATM   12  C   UNL     1     -43.857 -55.035  14.674  1.00  0.00     0.019 A 
HETATM   13  C   UNL     1     -43.050 -54.228  13.876  1.00  0.00     0.035 A 
BRANCH   8  14
HETATM   14  O   UNL     1     -45.604 -52.737  11.723  1.00  0.00    -0.334 OA
BRANCH  14  15
HETATM   15  C   UNL     1     -46.645 -51.878  12.223  1.00  0.00     0.173 C 
HETATM   16  C   UNL     1     -47.559 -51.449  11.090  1.00  0.00     0.034 C 
ENDBRANCH  14  15
ENDBRANCH   8  14
ENDBRANCH   1   7
BRANCH   4  17
HETATM   17  C   UNL     1     -41.111 -49.397  11.899  1.00  0.00     0.156 C 
BRANCH  17  18
HETATM   18  C   UNL     1     -41.750 -48.178  11.241  1.00  0.00     0.139 C 
HETATM   19  C   UNL     1     -43.181 -47.981  11.747  1.00  0.00     0.035 C 
HETATM   20  C   UNL     1     -43.980 -47.563  10.533  1.00  0.00     0.029 C 
HETATM   21  C   UNL     1     -42.960 -47.496   9.418  1.00  0.00     0.168 C 
HETATM   22  O   UNL     1     -41.875 -48.343   9.819  1.00  0.00    -0.384 OA
ENDBRANCH  17  18
ENDBRANCH   4  17
TORSDOF 5
ENDMDL
MODEL 2
REMARK VINA RESULT:      -6.1      2.766      4.833
REMARK  5 active torsions:
REMARK  status: ('A' for Active; 'I' for Inactive)
REMARK    1  A    between atoms: C_2  and  O_3 
REMARK    2  A    between atoms: O_3  and  C_4 
REMARK    3  A    between atoms: C_10  and  N_11 
REMARK       I    between atoms: N_11  and  C_12 
REMARK       I    between atoms: C_12  and  N_14 
REMARK    4  A    between atoms: N_14  and  C_15 
REMARK    5  A    between atoms: C_15  and  C_16 
ROOT
HETATM    1  N   UNL     1     -40.483 -49.651  10.422  1.00  0.00    -0.305 N 
HETATM    2  C   UNL     1     -41.318 -48.567  10.578  1.00  0.00     0.320 C 
HETATM    3  O   UNL     1     -41.432 -47.919  11.616  1.00  0.00    -0.247 OA
HETATM    4  N   UNL     1     -42.058 -48.233   9.457  1.00  0.00    -0.340 N 
HETATM    5  H   UNL     1     -40.107 -49.823   9.498  1.00  0.00     0.171 HD
HETATM    6  H   UNL     1     -42.334 -49.014   8.873  1.00  0.00     0.164 HD
ENDROOT
BRANCH   1   7
HETATM    7  C   UNL     1     -39.801 -50.274  11.514  1.00  0.00     0.087 A 
HETATM    8  C   UNL     1     -40.379 -51.289  12.291  1.00  0.00     0.169 A 
HETATM    9  N   UNL     1     -39.745 -51.888  13.331  1.00  0.00    -0.345 N 
HETATM   10  C   UNL     1     -38.486 -51.501  13.612  1.00  0.00     0.090 A 
ATOM     11  HN  UNL     1     -40.209 -52.609  13.884  1.00  0.00     0.167 HD
HETATM   12  C   UNL     1     -37.829 -50.510  12.920  1.00  0.00     0.019 A 
HETATM   13  C   UNL     1     -38.505 -49.881  11.878  1.00  0.00     0.035 A 
BRANCH   8  14
HETATM   14  O   UNL     1     -41.640 -51.764  11.948  1.00  0.00    -0.334 OA
BRANCH  14  15
HETATM   15  C   UNL     1     -42.417 -52.104  13.111  1.00  0.00     0.173 C 
HETATM   16  C   UNL     1     -43.031 -53.481  12.948  1.00  0.00     0.034 C 
ENDBRANCH  14  15
ENDBRANCH   8  14
ENDBRANCH   1   7
BRANCH   4  17
HETATM   17  C   UNL     1     -43.086 -47.222   9.697  1.00  0.00     0.156 C 
BRANCH  17  18
HETATM   18  C   UNL     1     -44.289 -47.217   8.759  1.00  0.00     0.139 C 
HETATM   19  C   UNL     1     -45.578 -47.503   9.534  1.00  0.00     0.035 C 
HETATM   20  C   UNL     1     -46.392 -48.406   8.634  1.00  0.00     0.029 C 
HETATM   21  C   UNL     1     -45.553 -48.544   7.384  1.00  0.00     0.168 C 
HETATM   22  O   UNL     1     -44.203 -48.261   7.776  1.00  0.00    -0.384 OA
ENDBRANCH  17  18
ENDBRANCH   4  17
TORSDOF 5
ENDMDL
MODEL 3
REMARK VINA RESULT:      -6.1      2.488      3.882
REMARK  5 active torsions:
REMARK  status: ('A' for Active; 'I' for Inactive)
REMARK    1  A    between atoms: C_2  and  O_3 
REMARK    2  A    between atoms: O_3  and  C_4 
REMARK    3  A    between atoms: C_10  and  N_11 
REMARK       I    between atoms: N_11  and  C_12 
REMARK       I    between atoms: C_12  and  N_14 
REMARK    4  A    between atoms: N_14  and  C_15 
REMARK    5  A    between atoms: C_15  and  C_16 
ROOT
HETATM    1  N   UNL     1     -41.198 -51.553  11.357  1.00  0.00    -0.305 N 
HETATM    2  C   UNL     1     -41.190 -50.207  11.645  1.00  0.00     0.320 C 
HETATM    3  O   UNL     1     -41.362 -49.733  12.766  1.00  0.00    -0.247 OA
HETATM    4  N   UNL     1     -40.972 -49.378  10.559  1.00  0.00    -0.340 N 
HETATM    5  H   UNL     1     -40.625 -51.870  10.585  1.00  0.00     0.171 HD
HETATM    6  H   UNL     1     -41.346 -49.711   9.678  1.00  0.00     0.164 HD
ENDROOT
BRANCH   1   7
HETATM    7  C   UNL     1     -41.612 -52.550  12.295  1.00  0.00     0.087 A 
HETATM    8  C   UNL     1     -40.709 -53.254  13.104  1.00  0.00     0.169 A 
HETATM    9  N   UNL     1     -41.087 -54.204  13.998  1.00  0.00    -0.345 N 
HETATM   10  C   UNL     1     -42.403 -54.461  14.128  1.00  0.00     0.090 A 
ATOM     11  HN  UNL     1     -40.396 -54.707  14.553  1.00  0.00     0.167 HD
HETATM   12  C   UNL     1     -43.372 -53.836  13.378  1.00  0.00     0.019 A 
HETATM   13  C   UNL     1     -42.965 -52.889  12.442  1.00  0.00     0.035 A 
BRANCH   8  14
HETATM   14  O   UNL     1     -39.359 -52.927  13.049  1.00  0.00    -0.334 OA
BRANCH  14  15
HETATM   15  C   UNL     1     -38.957 -52.124  14.174  1.00  0.00     0.173 C 
HETATM   16  C   UNL     1     -38.116 -50.951  13.707  1.00  0.00     0.034 C 
ENDBRANCH  14  15
ENDBRANCH   8  14
ENDBRANCH   1   7
BRANCH   4  17
HETATM   17  C   UNL     1     -41.173 -47.958  10.839  1.00  0.00     0.156 C 
BRANCH  17  18
HETATM   18  C   UNL     1     -42.314 -47.258  10.106  1.00  0.00     0.139 C 
HETATM   19  C   UNL     1     -43.603 -47.324  10.927  1.00  0.00     0.035 C 
HETATM   20  C   UNL     1     -44.705 -47.574   9.922  1.00  0.00     0.029 C 
HETATM   21  C   UNL     1     -43.997 -47.588   8.586  1.00  0.00     0.168 C 
HETATM   22  O   UNL     1     -42.627 -47.909   8.864  1.00  0.00    -0.384 OA
ENDBRANCH  17  18
ENDBRANCH   4  17
TORSDOF 5
ENDMDL
MODEL 4
REMARK VINA RESULT:      -6.0      3.221      7.020
REMARK  5 active torsions:
REMARK  status: ('A' for Active; 'I' for Inactive)
REMARK    1  A    between atoms: C_2  and  O_3 
REMARK    2  A    between atoms: O_3  and  C_4 
REMARK    3  A    between atoms: C_10  and  N_11 
REMARK       I    between atoms: N_11  and  C_12 
REMARK       I    between atoms: C_12  and  N_14 
REMARK    4  A    between atoms: N_14  and  C_15 
REMARK    5  A    between atoms: C_15  and  C_16 
ROOT
HETATM    1  N   UNL     1     -41.176 -47.881  10.213  1.00  0.00    -0.305 N 
HETATM    2  C   UNL     1     -41.060 -48.841  11.192  1.00  0.00     0.320 C 
HETATM    3  O   UNL     1     -41.396 -48.686  12.364  1.00  0.00    -0.247 OA
HETATM    4  N   UNL     1     -40.518 -50.043  10.771  1.00  0.00    -0.340 N 
HETATM    5  H   UNL     1     -41.322 -48.196   9.262  1.00  0.00     0.171 HD
HETATM    6  H   UNL     1     -39.821 -49.971  10.039  1.00  0.00     0.164 HD
ENDROOT
BRANCH   1   7
HETATM    7  C   UNL     1     -41.512 -46.518  10.492  1.00  0.00     0.087 A 
HETATM    8  C   UNL     1     -42.830 -46.039  10.459  1.00  0.00     0.169 A 
HETATM    9  N   UNL     1     -43.163 -44.749  10.719  1.00  0.00    -0.345 N 
HETATM   10  C   UNL     1     -42.176 -43.895  11.050  1.00  0.00     0.090 A 
ATOM     11  HN  UNL     1     -44.132 -44.436  10.665  1.00  0.00     0.167 HD
HETATM   12  C   UNL     1     -40.850 -44.258  11.102  1.00  0.00     0.019 A 
HETATM   13  C   UNL     1     -40.520 -45.576  10.799  1.00  0.00     0.035 A 
BRANCH   8  14
HETATM   14  O   UNL     1     -43.866 -46.933  10.216  1.00  0.00    -0.334 OA
BRANCH  14  15
HETATM   15  C   UNL     1     -44.583 -46.606   9.011  1.00  0.00     0.173 C 
HETATM   16  C   UNL     1     -45.999 -47.146   9.080  1.00  0.00     0.034 C 
ENDBRANCH  14  15
ENDBRANCH   8  14
ENDBRANCH   1   7
BRANCH   4  17
HETATM   17  C   UNL     1     -40.209 -50.973  11.855  1.00  0.00     0.156 C 
BRANCH  17  18
HETATM   18  C   UNL     1     -40.905 -52.331  11.827  1.00  0.00     0.139 C 
HETATM   19  C   UNL     1     -42.325 -52.221  12.388  1.00  0.00     0.035 C 
HETATM   20  C   UNL     1     -42.528 -53.474  13.210  1.00  0.00     0.029 C 
HETATM   21  C   UNL     1     -41.241 -54.250  13.034  1.00  0.00     0.168 C 
HETATM   22  O   UNL     1     -40.242 -53.287  12.670  1.00  0.00    -0.384 OA
ENDBRANCH  17  18
ENDBRANCH   4  17
TORSDOF 5
ENDMDL
MODEL 5
REMARK VINA RESULT:      -5.9      3.718      6.730
REMARK  5 active torsions:
REMARK  status: ('A' for Active; 'I' for Inactive)
REMARK    1  A    between atoms: C_2  and  O_3 
REMARK    2  A    between atoms: O_3  and  C_4 
REMARK    3  A    between atoms: C_10  and  N_11 
REMARK       I    between atoms: N_11  and  C_12 
REMARK       I    between atoms: C_12  and  N_14 
REMARK    4  A    between atoms: N_14  and  C_15 
REMARK    5  A    between atoms: C_15  and  C_16 
ROOT
HETATM    1  N   UNL     1     -41.263 -48.768  10.438  1.00  0.00    -0.305 N 
HETATM    2  C   UNL     1     -41.375 -49.660  11.481  1.00  0.00     0.320 C 
HETATM    3  O   UNL     1     -41.897 -49.404  12.564  1.00  0.00    -0.247 OA
HETATM    4  N   UNL     1     -40.843 -50.914  11.237  1.00  0.00    -0.340 N 
HETATM    5  H   UNL     1     -41.263 -49.144   9.498  1.00  0.00     0.171 HD
HETATM    6  H   UNL     1     -40.028 -50.929  10.635  1.00  0.00     0.164 HD
ENDROOT
BRANCH   1   7
HETATM    7  C   UNL     1     -41.558 -47.374  10.568  1.00  0.00     0.087 A 
HETATM    8  C   UNL     1     -42.825 -46.838  10.297  1.00  0.00     0.169 A 
HETATM    9  N   UNL     1     -43.120 -45.518  10.414  1.00  0.00    -0.345 N 
HETATM   10  C   UNL     1     -42.147 -44.688  10.837  1.00  0.00     0.090 A 
ATOM     11  HN  UNL     1     -44.049 -45.165  10.188  1.00  0.00     0.167 HD
HETATM   12  C   UNL     1     -40.868 -45.108  11.121  1.00  0.00     0.019 A 
HETATM   13  C   UNL     1     -40.572 -46.459  10.963  1.00  0.00     0.035 A 
BRANCH   8  14
HETATM   14  O   UNL     1     -43.863 -47.699   9.955  1.00  0.00    -0.334 OA
BRANCH  14  15
HETATM   15  C   UNL     1     -44.398 -47.399   8.653  1.00  0.00     0.173 C 
HETATM   16  C   UNL     1     -43.487 -47.951   7.573  1.00  0.00     0.034 C 
ENDBRANCH  14  15
ENDBRANCH   8  14
ENDBRANCH   1   7
BRANCH   4  17
HETATM   17  C   UNL     1     -40.781 -51.777  12.415  1.00  0.00     0.156 C 
BRANCH  17  18
HETATM   18  C   UNL     1     -39.439 -51.880  13.133  1.00  0.00     0.139 C 
HETATM   19  C   UNL     1     -39.459 -51.068  14.430  1.00  0.00     0.035 C 
HETATM   20  C   UNL     1     -38.098 -50.413  14.512  1.00  0.00     0.029 C 
HETATM   21  C   UNL     1     -37.363 -50.923  13.292  1.00  0.00     0.168 C 
HETATM   22  O   UNL     1     -38.373 -51.314  12.353  1.00  0.00    -0.384 OA
ENDBRANCH  17  18
ENDBRANCH   4  17
TORSDOF 5
ENDMDL
MODEL 6
REMARK VINA RESULT:      -5.8      1.582      2.640
REMARK  5 active torsions:
REMARK  status: ('A' for Active; 'I' for Inactive)
REMARK    1  A    between atoms: C_2  and  O_3 
REMARK    2  A    between atoms: O_3  and  C_4 
REMARK    3  A    between atoms: C_10  and  N_11 
REMARK       I    between atoms: N_11  and  C_12 
REMARK       I    between atoms: C_12  and  N_14 
REMARK    4  A    between atoms: N_14  and  C_15 
REMARK    5  A    between atoms: C_15  and  C_16 
ROOT
HETATM    1  N   UNL     1     -42.697 -52.576  12.078  1.00  0.00    -0.305 N 
HETATM    2  C   UNL     1     -42.259 -51.334  12.481  1.00  0.00     0.320 C 
HETATM    3  O   UNL     1     -42.393 -50.882  13.617  1.00  0.00    -0.247 OA
HETATM    4  N   UNL     1     -41.636 -50.586  11.497  1.00  0.00    -0.340 N 
HETATM    5  H   UNL     1     -42.179 -53.039  11.342  1.00  0.00     0.171 HD
HETATM    6  H   UNL     1     -41.992 -50.724  10.558  1.00  0.00     0.164 HD
ENDROOT
BRANCH   1   7
HETATM    7  C   UNL     1     -43.542 -53.404  12.882  1.00  0.00     0.087 A 
HETATM    8  C   UNL     1     -44.937 -53.427  12.745  1.00  0.00     0.169 A 
HETATM    9  N   UNL     1     -45.751 -54.206  13.502  1.00  0.00    -0.345 N 
HETATM   10  C   UNL     1     -45.182 -55.016  14.414  1.00  0.00     0.090 A 
ATOM     11  HN  UNL     1     -46.764 -54.178  13.383  1.00  0.00     0.167 HD
HETATM   12  C   UNL     1     -43.825 -55.066  14.637  1.00  0.00     0.019 A 
HETATM   13  C   UNL     1     -43.006 -54.235  13.876  1.00  0.00     0.035 A 
BRANCH   8  14
HETATM   14  O   UNL     1     -45.528 -52.668  11.740  1.00  0.00    -0.334 OA
BRANCH  14  15
HETATM   15  C   UNL     1     -46.656 -51.919  12.229  1.00  0.00     0.173 C 
HETATM   16  C   UNL     1     -47.534 -51.480  11.072  1.00  0.00     0.034 C 
ENDBRANCH  14  15
ENDBRANCH   8  14
ENDBRANCH   1   7
BRANCH   4  17
HETATM   17  C   UNL     1     -41.367 -49.201  11.879  1.00  0.00     0.156 C 
BRANCH  17  18
HETATM   18  C   UNL     1     -39.903 -48.783  11.992  1.00  0.00     0.139 C 
HETATM   19  C   UNL     1     -38.982 -49.925  11.559  1.00  0.00     0.035 C 
HETATM   20  C   UNL     1     -37.823 -49.893  12.530  1.00  0.00     0.029 C 
HETATM   21  C   UNL     1     -38.118 -48.712  13.427  1.00  0.00     0.168 C 
HETATM   22  O   UNL     1     -39.534 -48.498  13.351  1.00  0.00    -0.384 OA
ENDBRANCH  17  18
ENDBRANCH   4  17
TORSDOF 5
ENDMDL
MODEL 7
REMARK VINA RESULT:      -5.7      2.186      6.597
REMARK  5 active torsions:
REMARK  status: ('A' for Active; 'I' for Inactive)
REMARK    1  A    between atoms: C_2  and  O_3 
REMARK    2  A    between atoms: O_3  and  C_4 
REMARK    3  A    between atoms: C_10  and  N_11 
REMARK       I    between atoms: N_11  and  C_12 
REMARK       I    between atoms: C_12  and  N_14 
REMARK    4  A    between atoms: N_14  and  C_15 
REMARK    5  A    between atoms: C_15  and  C_16 
ROOT
HETATM    1  N   UNL     1     -41.923 -49.660  11.323  1.00  0.00    -0.305 N 
HETATM    2  C   UNL     1     -42.739 -49.973  12.386  1.00  0.00     0.320 C 
HETATM    3  O   UNL     1     -43.273 -49.147  13.123  1.00  0.00    -0.247 OA
HETATM    4  N   UNL     1     -42.934 -51.328  12.595  1.00  0.00    -0.340 N 
HETATM    5  H   UNL     1     -41.909 -50.300  10.539  1.00  0.00     0.171 HD
HETATM    6  H   UNL     1     -42.144 -51.919  12.363  1.00  0.00     0.164 HD
ENDROOT
BRANCH   1   7
HETATM    7  C   UNL     1     -41.435 -48.338  11.077  1.00  0.00     0.087 A 
HETATM    8  C   UNL     1     -42.018 -47.476  10.137  1.00  0.00     0.169 A 
HETATM    9  N   UNL     1     -41.565 -46.220   9.891  1.00  0.00    -0.345 N 
HETATM   10  C   UNL     1     -40.516 -45.775  10.608  1.00  0.00     0.090 A 
ATOM     11  HN  UNL     1     -42.006 -45.632   9.185  1.00  0.00     0.167 HD
HETATM   12  C   UNL     1     -39.864 -46.541  11.547  1.00  0.00     0.019 A 
HETATM   13  C   UNL     1     -40.319 -47.839  11.763  1.00  0.00     0.035 A 
BRANCH   8  14
HETATM   14  O   UNL     1     -43.162 -47.889   9.462  1.00  0.00    -0.334 OA
BRANCH  14  15
HETATM   15  C   UNL     1     -44.358 -47.361  10.066  1.00  0.00     0.173 C 
HETATM   16  C   UNL     1     -45.547 -47.578   9.149  1.00  0.00     0.034 C 
ENDBRANCH  14  15
ENDBRANCH   8  14
ENDBRANCH   1   7
BRANCH   4  17
HETATM   17  C   UNL     1     -43.626 -51.648  13.842  1.00  0.00     0.156 C 
BRANCH  17  18
HETATM   18  C   UNL     1     -45.021 -52.257  13.727  1.00  0.00     0.139 C 
HETATM   19  C   UNL     1     -46.066 -51.330  14.350  1.00  0.00     0.035 C 
HETATM   20  C   UNL     1     -47.031 -52.244  15.072  1.00  0.00     0.029 C 
HETATM   21  C   UNL     1     -46.516 -53.636  14.781  1.00  0.00     0.168 C 
HETATM   22  O   UNL     1     -45.127 -53.488  14.460  1.00  0.00    -0.384 OA
ENDBRANCH  17  18
ENDBRANCH   4  17
TORSDOF 5
ENDMDL
MODEL 8
REMARK VINA RESULT:      -5.7      4.605      7.207
REMARK  5 active torsions:
REMARK  status: ('A' for Active; 'I' for Inactive)
REMARK    1  A    between atoms: C_2  and  O_3 
REMARK    2  A    between atoms: O_3  and  C_4 
REMARK    3  A    between atoms: C_10  and  N_11 
REMARK       I    between atoms: N_11  and  C_12 
REMARK       I    between atoms: C_12  and  N_14 
REMARK    4  A    between atoms: N_14  and  C_15 
REMARK    5  A    between atoms: C_15  and  C_16 
ROOT
HETATM    1  N   UNL     1     -41.985 -48.220   9.477  1.00  0.00    -0.305 N 
HETATM    2  C   UNL     1     -41.627 -48.793  10.677  1.00  0.00     0.320 C 
HETATM    3  O   UNL     1     -42.299 -48.738  11.704  1.00  0.00    -0.247 OA
HETATM    4  N   UNL     1     -40.414 -49.461  10.667  1.00  0.00    -0.340 N 
HETATM    5  H   UNL     1     -41.660 -48.667   8.629  1.00  0.00     0.171 HD
HETATM    6  H   UNL     1     -39.708 -49.067  10.056  1.00  0.00     0.164 HD
ENDROOT
BRANCH   1   7
HETATM    7  C   UNL     1     -43.087 -47.318   9.341  1.00  0.00     0.087 A 
HETATM    8  C   UNL     1     -42.968 -45.936   9.548  1.00  0.00     0.169 A 
HETATM    9  N   UNL     1     -44.005 -45.069   9.425  1.00  0.00    -0.345 N 
HETATM   10  C   UNL     1     -45.202 -45.563   9.059  1.00  0.00     0.090 A 
ATOM     11  HN  UNL     1     -43.880 -44.073   9.604  1.00  0.00     0.167 HD
HETATM   12  C   UNL     1     -45.431 -46.902   8.840  1.00  0.00     0.019 A 
HETATM   13  C   UNL     1     -44.366 -47.784   9.004  1.00  0.00     0.035 A 
BRANCH   8  14
HETATM   14  O   UNL     1     -41.715 -45.402   9.829  1.00  0.00    -0.334 OA
BRANCH  14  15
HETATM   15  C   UNL     1     -41.584 -45.048  11.219  1.00  0.00     0.173 C 
HETATM   16  C   UNL     1     -40.171 -45.322  11.698  1.00  0.00     0.034 C 
ENDBRANCH  14  15
ENDBRANCH   8  14
ENDBRANCH   1   7
BRANCH   4  17
HETATM   17  C   UNL     1     -39.951 -49.880  11.988  1.00  0.00     0.156 C 
BRANCH  17  18
HETATM   18  C   UNL     1     -38.640 -49.281  12.489  1.00  0.00     0.139 C 
HETATM   19  C   UNL     1     -37.888 -50.286  13.365  1.00  0.00     0.035 C 
HETATM   20  C   UNL     1     -37.306 -49.470  14.497  1.00  0.00     0.029 C 
HETATM   21  C   UNL     1     -37.711 -48.047  14.182  1.00  0.00     0.168 C 
HETATM   22  O   UNL     1     -38.863 -48.140  13.333  1.00  0.00    -0.384 OA
ENDBRANCH  17  18
ENDBRANCH   4  17
TORSDOF 5
ENDMDL
MODEL 9
REMARK VINA RESULT:      -5.6      1.734      3.219
REMARK  5 active torsions:
REMARK  status: ('A' for Active; 'I' for Inactive)
REMARK    1  A    between atoms: C_2  and  O_3 
REMARK    2  A    between atoms: O_3  and  C_4 
REMARK    3  A    between atoms: C_10  and  N_11 
REMARK       I    between atoms: N_11  and  C_12 
REMARK       I    between atoms: C_12  and  N_14 
REMARK    4  A    between atoms: N_14  and  C_15 
REMARK    5  A    between atoms: C_15  and  C_16 
ROOT
HETATM    1  N   UNL     1     -43.434 -52.483  12.231  1.00  0.00    -0.305 N 
HETATM    2  C   UNL     1     -42.258 -51.873  12.608  1.00  0.00     0.320 C 
HETATM    3  O   UNL     1     -42.015 -51.469  13.743  1.00  0.00    -0.247 OA
HETATM    4  N   UNL     1     -41.324 -51.728  11.597  1.00  0.00    -0.340 N 
HETATM    5  H   UNL     1     -43.390 -53.162  11.482  1.00  0.00     0.171 HD
HETATM    6  H   UNL     1     -41.709 -51.573  10.672  1.00  0.00     0.164 HD
ENDROOT
BRANCH   1   7
HETATM    7  C   UNL     1     -44.591 -52.533  13.071  1.00  0.00     0.087 A 
HETATM    8  C   UNL     1     -44.887 -53.631  13.891  1.00  0.00     0.169 A 
HETATM    9  N   UNL     1     -45.982 -53.693  14.691  1.00  0.00    -0.345 N 
HETATM   10  C   UNL     1     -46.811 -52.632  14.713  1.00  0.00     0.090 A 
ATOM     11  HN  UNL     1     -46.172 -54.519  15.259  1.00  0.00     0.167 HD
HETATM   12  C   UNL     1     -46.620 -51.510  13.941  1.00  0.00     0.019 A 
HETATM   13  C   UNL     1     -45.511 -51.475  13.100  1.00  0.00     0.035 A 
BRANCH   8  14
HETATM   14  O   UNL     1     -43.987 -54.689  13.952  1.00  0.00    -0.334 OA
BRANCH  14  15
HETATM   15  C   UNL     1     -43.395 -54.813  15.259  1.00  0.00     0.173 C 
HETATM   16  C   UNL     1     -41.887 -54.684  15.165  1.00  0.00     0.034 C 
ENDBRANCH  14  15
ENDBRANCH   8  14
ENDBRANCH   1   7
BRANCH   4  17
HETATM   17  C   UNL     1     -40.176 -50.898  11.957  1.00  0.00     0.156 C 
BRANCH  17  18
HETATM   18  C   UNL     1     -40.052 -49.545  11.263  1.00  0.00     0.139 C 
HETATM   19  C   UNL     1     -39.353 -48.534  12.175  1.00  0.00     0.035 C 
HETATM   20  C   UNL     1     -40.089 -47.230  11.965  1.00  0.00     0.029 C 
HETATM   21  C   UNL     1     -41.128 -47.552  10.914  1.00  0.00     0.168 C 
HETATM   22  O   UNL     1     -41.337 -48.969  10.982  1.00  0.00    -0.384 OA
ENDBRANCH  17  18
ENDBRANCH   4  17
TORSDOF 5
ENDMDL
