MODEL 1
REMARK VINA RESULT:      -6.4      0.000      0.000
REMARK  4 active torsions:
REMARK  status: ('A' for Active; 'I' for Inactive)
REMARK    1  A    between atoms: C_2  and  C_5 
REMARK    2  A    between atoms: C_5  and  N_6 
REMARK       I    between atoms: N_6  and  C_7 
REMARK       I    between atoms: C_7  and  N_9 
REMARK    3  A    between atoms: N_9  and  C_10 
REMARK    4  A    between atoms: C_13  and  N_17 
ROOT
HETATM    1  C   UNL     1     -40.946 -48.567  10.856  1.00  0.00     0.051 A 
HETATM    2  C   UNL     1     -40.584 -49.828  11.290  1.00  0.00     0.035 A 
HETATM    3  C   UNL     1     -39.572 -49.979  12.238  1.00  0.00     0.051 A 
HETATM    4  C   UNL     1     -38.938 -48.871  12.791  1.00  0.00     0.103 A 
HETATM    5  N   UNL     1     -39.311 -47.628  12.404  1.00  0.00    -0.350 N 
ATOM      6  HN  UNL     1     -38.868 -46.802  12.807  1.00  0.00     0.166 HD
HETATM    7  C   UNL     1     -40.291 -47.502  11.465  1.00  0.00     0.119 A 
ENDROOT
BRANCH   1   8
HETATM    8  N   UNL     1     -41.916 -48.346   9.851  1.00  0.00    -0.308 N 
HETATM    9  C   UNL     1     -43.132 -47.731  10.050  1.00  0.00     0.321 C 
HETATM   10  N   UNL     1     -43.888 -47.687   8.902  1.00  0.00    -0.334 N 
HETATM   11  O   UNL     1     -43.585 -47.314  11.106  1.00  0.00    -0.247 OA
HETATM   12  H   UNL     1     -43.368 -47.488   8.057  1.00  0.00     0.164 HD
HETATM   13  H   UNL     1     -41.818 -48.867   8.993  1.00  0.00     0.170 HD
BRANCH  10  14
HETATM   14  C   UNL     1     -45.241 -47.118   8.991  1.00  0.00     0.241 C 
BRANCH  14  15
HETATM   15  C   UNL     1     -46.405 -48.114   8.878  1.00  0.00     0.403 C 
HETATM   16  F   UNL     1     -46.380 -48.793   7.708  1.00  0.00    -0.169 F 
HETATM   17  F   UNL     1     -47.608 -47.516   8.997  1.00  0.00    -0.169 F 
HETATM   18  F   UNL     1     -46.313 -49.038   9.868  1.00  0.00    -0.169 F 
ENDBRANCH  14  15
ENDBRANCH  10  14
ENDBRANCH   1   8
BRANCH   4  19
HETATM   19  N   UNL     1     -37.957 -49.008  13.735  1.00  0.00    -0.367 N 
HETATM   20  C   UNL     1     -37.377 -47.858  14.409  1.00  0.00     0.124 C 
HETATM   21  C   UNL     1     -36.631 -48.454  15.611  1.00  0.00     0.021 C 
HETATM   22  C   UNL     1     -37.101 -49.899  15.698  1.00  0.00     0.021 C 
HETATM   23  C   UNL     1     -37.437 -50.257  14.259  1.00  0.00     0.124 C 
ENDBRANCH   4  19
TORSDOF 4
ENDMDL
MODEL 2
REMARK VINA RESULT:      -6.2      3.702      4.438
REMARK  4 active torsions:
REMARK  status: ('A' for Active; 'I' for Inactive)
REMARK    1  A    between atoms: C_2  and  C_5 
REMARK    2  A    between atoms: C_5  and  N_6 
REMARK       I    between atoms: N_6  and  C_7 
REMARK       I    between atoms: C_7  and  N_9 
REMARK    3  A    between atoms: N_9  and  C_10 
REMARK    4  A    between atoms: C_13  and  N_17 
ROOT
HETATM    1  C   UNL     1     -40.509 -51.202  11.869  1.00  0.00     0.051 A 
HETATM    2  C   UNL     1     -39.588 -51.106  12.896  1.00  0.00     0.035 A 
HETATM    3  C   UNL     1     -39.495 -52.117  13.851  1.00  0.00     0.051 A 
HETATM    4  C   UNL     1     -40.292 -53.255  13.769  1.00  0.00     0.103 A 
HETATM    5  N   UNL     1     -41.170 -53.381  12.746  1.00  0.00    -0.350 N 
ATOM      6  HN  UNL     1     -41.754 -54.212  12.660  1.00  0.00     0.166 HD
HETATM    7  C   UNL     1     -41.257 -52.373  11.832  1.00  0.00     0.119 A 
ENDROOT
BRANCH   1   8
HETATM    8  N   UNL     1     -40.702 -50.184  10.907  1.00  0.00    -0.308 N 
HETATM    9  C   UNL     1     -41.586 -49.136  11.034  1.00  0.00     0.321 C 
HETATM   10  N   UNL     1     -41.588 -48.320   9.927  1.00  0.00    -0.334 N 
HETATM   11  O   UNL     1     -42.361 -48.931  11.957  1.00  0.00    -0.247 OA
HETATM   12  H   UNL     1     -40.677 -48.148   9.521  1.00  0.00     0.164 HD
HETATM   13  H   UNL     1     -40.345 -50.353   9.979  1.00  0.00     0.170 HD
BRANCH  10  14
HETATM   14  C   UNL     1     -42.540 -47.199   9.901  1.00  0.00     0.241 C 
BRANCH  14  15
HETATM   15  C   UNL     1     -43.674 -47.295   8.870  1.00  0.00     0.403 C 
HETATM   16  F   UNL     1     -43.338 -48.076   7.818  1.00  0.00    -0.169 F 
HETATM   17  F   UNL     1     -44.048 -46.087   8.401  1.00  0.00    -0.169 F 
HETATM   18  F   UNL     1     -44.767 -47.861   9.443  1.00  0.00    -0.169 F 
ENDBRANCH  14  15
ENDBRANCH  10  14
ENDBRANCH   1   8
BRANCH   4  19
HETATM   19  N   UNL     1     -40.194 -54.261  14.691  1.00  0.00    -0.367 N 
HETATM   20  C   UNL     1     -38.933 -54.934  14.958  1.00  0.00     0.124 C 
HETATM   21  C   UNL     1     -39.172 -55.688  16.274  1.00  0.00     0.021 C 
HETATM   22  C   UNL     1     -40.481 -55.136  16.819  1.00  0.00     0.021 C 
HETATM   23  C   UNL     1     -41.248 -54.726  15.572  1.00  0.00     0.124 C 
ENDBRANCH   4  19
TORSDOF 4
ENDMDL
MODEL 3
REMARK VINA RESULT:      -6.1      1.539      2.120
REMARK  4 active torsions:
REMARK  status: ('A' for Active; 'I' for Inactive)
REMARK    1  A    between atoms: C_2  and  C_5 
REMARK    2  A    between atoms: C_5  and  N_6 
REMARK       I    between atoms: N_6  and  C_7 
REMARK       I    between atoms: C_7  and  N_9 
REMARK    3  A    between atoms: N_9  and  C_10 
REMARK    4  A    between atoms: C_13  and  N_17 
ROOT
HETATM    1  C   UNL     1     -40.309 -49.527  11.379  1.00  0.00     0.051 A 
HETATM    2  C   UNL     1     -39.166 -48.856  11.772  1.00  0.00     0.035 A 
HETATM    3  C   UNL     1     -38.490 -49.240  12.930  1.00  0.00     0.051 A 
HETATM    4  C   UNL     1     -38.925 -50.323  13.686  1.00  0.00     0.103 A 
HETATM    5  N   UNL     1     -40.020 -51.015  13.291  1.00  0.00    -0.350 N 
ATOM      6  HN  UNL     1     -40.348 -51.820  13.825  1.00  0.00     0.166 HD
HETATM    7  C   UNL     1     -40.676 -50.613  12.166  1.00  0.00     0.119 A 
ENDROOT
BRANCH   1   8
HETATM    8  N   UNL     1     -41.078 -49.149  10.255  1.00  0.00    -0.308 N 
HETATM    9  C   UNL     1     -41.951 -48.084  10.218  1.00  0.00     0.321 C 
HETATM   10  N   UNL     1     -42.590 -47.977   9.006  1.00  0.00    -0.334 N 
HETATM   11  O   UNL     1     -42.230 -47.327  11.136  1.00  0.00    -0.247 OA
HETATM   12  H   UNL     1     -42.010 -48.165   8.199  1.00  0.00     0.164 HD
HETATM   13  H   UNL     1     -41.171 -49.824   9.512  1.00  0.00     0.170 HD
BRANCH  10  14
HETATM   14  C   UNL     1     -43.604 -46.922   8.854  1.00  0.00     0.241 C 
BRANCH  14  15
HETATM   15  C   UNL     1     -45.070 -47.368   8.964  1.00  0.00     0.403 C 
HETATM   16  F   UNL     1     -45.928 -46.339   8.785  1.00  0.00    -0.169 F 
HETATM   17  F   UNL     1     -45.344 -47.949  10.150  1.00  0.00    -0.169 F 
HETATM   18  F   UNL     1     -45.344 -48.280   7.996  1.00  0.00    -0.169 F 
ENDBRANCH  14  15
ENDBRANCH  10  14
ENDBRANCH   1   8
BRANCH   4  19
HETATM   19  N   UNL     1     -38.258 -50.719  14.813  1.00  0.00    -0.367 N 
HETATM   20  C   UNL     1     -37.067 -50.027  15.280  1.00  0.00     0.124 C 
HETATM   21  C   UNL     1     -36.874 -50.525  16.719  1.00  0.00     0.021 C 
HETATM   22  C   UNL     1     -38.165 -51.251  17.069  1.00  0.00     0.021 C 
HETATM   23  C   UNL     1     -38.663 -51.768  15.729  1.00  0.00     0.124 C 
ENDBRANCH   4  19
TORSDOF 4
ENDMDL
MODEL 4
REMARK VINA RESULT:      -5.9      5.008      6.880
REMARK  4 active torsions:
REMARK  status: ('A' for Active; 'I' for Inactive)
REMARK    1  A    between atoms: C_2  and  C_5 
REMARK    2  A    between atoms: C_5  and  N_6 
REMARK       I    between atoms: N_6  and  C_7 
REMARK       I    between atoms: C_7  and  N_9 
REMARK    3  A    between atoms: N_9  and  C_10 
REMARK    4  A    between atoms: C_13  and  N_17 
ROOT
HETATM    1  C   UNL     1     -40.696 -49.154  11.065  1.00  0.00     0.051 A 
HETATM    2  C   UNL     1     -39.853 -48.344  11.804  1.00  0.00     0.035 A 
HETATM    3  C   UNL     1     -39.970 -46.957  11.730  1.00  0.00     0.051 A 
HETATM    4  C   UNL     1     -40.955 -46.363  10.947  1.00  0.00     0.103 A 
HETATM    5  N   UNL     1     -41.813 -47.144  10.249  1.00  0.00    -0.350 N 
ATOM      6  HN  UNL     1     -42.550 -46.729   9.680  1.00  0.00     0.166 HD
HETATM    7  C   UNL     1     -41.672 -48.498  10.323  1.00  0.00     0.119 A 
ENDROOT
BRANCH   1   8
HETATM    8  N   UNL     1     -40.589 -50.563  11.044  1.00  0.00    -0.308 N 
HETATM    9  C   UNL     1     -41.079 -51.407  12.015  1.00  0.00     0.321 C 
HETATM   10  N   UNL     1     -40.797 -52.726  11.750  1.00  0.00    -0.334 N 
HETATM   11  O   UNL     1     -41.643 -51.089  13.052  1.00  0.00    -0.247 OA
HETATM   12  H   UNL     1     -40.882 -52.994  10.779  1.00  0.00     0.164 HD
HETATM   13  H   UNL     1     -39.920 -50.965  10.404  1.00  0.00     0.170 HD
BRANCH  10  14
HETATM   14  C   UNL     1     -41.204 -53.729  12.746  1.00  0.00     0.241 C 
BRANCH  14  15
HETATM   15  C   UNL     1     -40.163 -54.082  13.818  1.00  0.00     0.403 C 
HETATM   16  F   UNL     1     -40.736 -54.571  14.941  1.00  0.00    -0.169 F 
HETATM   17  F   UNL     1     -39.395 -53.027  14.159  1.00  0.00    -0.169 F 
HETATM   18  F   UNL     1     -39.334 -55.049  13.350  1.00  0.00    -0.169 F 
ENDBRANCH  14  15
ENDBRANCH  10  14
ENDBRANCH   1   8
BRANCH   4  19
HETATM   19  N   UNL     1     -41.090 -45.003  10.882  1.00  0.00    -0.367 N 
HETATM   20  C   UNL     1     -42.377 -44.351  11.063  1.00  0.00     0.124 C 
HETATM   21  C   UNL     1     -42.030 -42.874  11.293  1.00  0.00     0.021 C 
HETATM   22  C   UNL     1     -40.526 -42.847  11.524  1.00  0.00     0.021 C 
HETATM   23  C   UNL     1     -40.017 -44.039  10.730  1.00  0.00     0.124 C 
ENDBRANCH   4  19
TORSDOF 4
ENDMDL
MODEL 5
REMARK VINA RESULT:      -5.7      5.684      7.930
REMARK  4 active torsions:
REMARK  status: ('A' for Active; 'I' for Inactive)
REMARK    1  A    between atoms: C_2  and  C_5 
REMARK    2  A    between atoms: C_5  and  N_6 
REMARK       I    between atoms: N_6  and  C_7 
REMARK       I    between atoms: C_7  and  N_9 
REMARK    3  A    between atoms: N_9  and  C_10 
REMARK    4  A    between atoms: C_13  and  N_17 
ROOT
HETATM    1  C   UNL     1     -41.011 -45.655  10.892  1.00  0.00     0.051 A 
HETATM    2  C   UNL     1     -40.169 -44.561  10.822  1.00  0.00     0.035 A 
HETATM    3  C   UNL     1     -40.661 -43.280  11.069  1.00  0.00     0.051 A 
HETATM    4  C   UNL     1     -41.990 -43.081  11.427  1.00  0.00     0.103 A 
HETATM    5  N   UNL     1     -42.817 -44.147  11.539  1.00  0.00    -0.350 N 
ATOM      6  HN  UNL     1     -43.791 -44.024  11.814  1.00  0.00     0.166 HD
HETATM    7  C   UNL     1     -42.321 -45.389  11.277  1.00  0.00     0.119 A 
ENDROOT
BRANCH   1   8
HETATM    8  N   UNL     1     -40.594 -46.971  10.589  1.00  0.00    -0.308 N 
HETATM    9  C   UNL     1     -40.125 -47.881  11.510  1.00  0.00     0.321 C 
HETATM   10  N   UNL     1     -39.756 -49.070  10.926  1.00  0.00    -0.334 N 
HETATM   11  O   UNL     1     -39.960 -47.701  12.708  1.00  0.00    -0.247 OA
HETATM   12  H   UNL     1     -40.368 -49.390  10.186  1.00  0.00     0.164 HD
HETATM   13  H   UNL     1     -40.410 -47.185   9.621  1.00  0.00     0.170 HD
BRANCH  10  14
HETATM   14  C   UNL     1     -39.172 -50.108  11.788  1.00  0.00     0.241 C 
BRANCH  14  15
HETATM   15  C   UNL     1     -37.643 -50.083  11.939  1.00  0.00     0.403 C 
HETATM   16  F   UNL     1     -37.242 -49.215  12.895  1.00  0.00    -0.169 F 
HETATM   17  F   UNL     1     -37.017 -49.766  10.788  1.00  0.00    -0.169 F 
HETATM   18  F   UNL     1     -37.201 -51.310  12.315  1.00  0.00    -0.169 F 
ENDBRANCH  14  15
ENDBRANCH  10  14
ENDBRANCH   1   8
BRANCH   4  19
HETATM   19  N   UNL     1     -42.478 -41.829  11.690  1.00  0.00    -0.367 N 
HETATM   20  C   UNL     1     -41.621 -40.654  11.667  1.00  0.00     0.124 C 
HETATM   21  C   UNL     1     -42.596 -39.469  11.630  1.00  0.00     0.021 C 
HETATM   22  C   UNL     1     -43.957 -40.080  11.328  1.00  0.00     0.021 C 
HETATM   23  C   UNL     1     -43.866 -41.477  11.920  1.00  0.00     0.124 C 
ENDBRANCH   4  19
TORSDOF 4
ENDMDL
MODEL 6
REMARK VINA RESULT:      -5.7      4.840      6.175
REMARK  4 active torsions:
REMARK  status: ('A' for Active; 'I' for Inactive)
REMARK    1  A    between atoms: C_2  and  C_5 
REMARK    2  A    between atoms: C_5  and  N_6 
REMARK       I    between atoms: N_6  and  C_7 
REMARK       I    between atoms: C_7  and  N_9 
REMARK    3  A    between atoms: N_9  and  C_10 
REMARK    4  A    between atoms: C_13  and  N_17 
ROOT
HETATM    1  C   UNL     1     -41.888 -44.619  11.098  1.00  0.00     0.051 A 
HETATM    2  C   UNL     1     -40.546 -44.290  11.070  1.00  0.00     0.035 A 
HETATM    3  C   UNL     1     -40.129 -43.011  11.438  1.00  0.00     0.051 A 
HETATM    4  C   UNL     1     -41.044 -42.059  11.877  1.00  0.00     0.103 A 
HETATM    5  N   UNL     1     -42.358 -42.380  11.947  1.00  0.00    -0.350 N 
ATOM      6  HN  UNL     1     -43.043 -41.701  12.278  1.00  0.00     0.166 HD
HETATM    7  C   UNL     1     -42.746 -43.630  11.567  1.00  0.00     0.119 A 
ENDROOT
BRANCH   1   8
HETATM    8  N   UNL     1     -42.384 -45.873  10.675  1.00  0.00    -0.308 N 
HETATM    9  C   UNL     1     -43.164 -46.078   9.558  1.00  0.00     0.321 C 
HETATM   10  N   UNL     1     -43.532 -47.395   9.415  1.00  0.00    -0.334 N 
HETATM   11  O   UNL     1     -43.580 -45.230   8.783  1.00  0.00    -0.247 OA
HETATM   12  H   UNL     1     -42.810 -48.067   9.640  1.00  0.00     0.164 HD
HETATM   13  H   UNL     1     -42.363 -46.627  11.345  1.00  0.00     0.170 HD
BRANCH  10  14
HETATM   14  C   UNL     1     -44.426 -47.741   8.299  1.00  0.00     0.241 C 
BRANCH  14  15
HETATM   15  C   UNL     1     -45.904 -47.957   8.656  1.00  0.00     0.403 C 
HETATM   16  F   UNL     1     -46.597 -46.796   8.672  1.00  0.00    -0.169 F 
HETATM   17  F   UNL     1     -46.063 -48.563   9.850  1.00  0.00    -0.169 F 
HETATM   18  F   UNL     1     -46.489 -48.748   7.721  1.00  0.00    -0.169 F 
ENDBRANCH  14  15
ENDBRANCH  10  14
ENDBRANCH   1   8
BRANCH   4  19
HETATM   19  N   UNL     1     -40.643 -40.808  12.258  1.00  0.00    -0.367 N 
HETATM   20  C   UNL     1     -39.545 -40.607  13.191  1.00  0.00     0.124 C 
HETATM   21  C   UNL     1     -39.187 -39.121  13.047  1.00  0.00     0.021 C 
HETATM   22  C   UNL     1     -39.926 -38.650  11.803  1.00  0.00     0.021 C 
HETATM   23  C   UNL     1     -41.150 -39.549  11.747  1.00  0.00     0.124 C 
ENDBRANCH   4  19
TORSDOF 4
ENDMDL
MODEL 7
REMARK VINA RESULT:      -5.5      4.578      5.498
REMARK  4 active torsions:
REMARK  status: ('A' for Active; 'I' for Inactive)
REMARK    1  A    between atoms: C_2  and  C_5 
REMARK    2  A    between atoms: C_5  and  N_6 
REMARK       I    between atoms: N_6  and  C_7 
REMARK       I    between atoms: C_7  and  N_9 
REMARK    3  A    between atoms: N_9  and  C_10 
REMARK    4  A    between atoms: C_13  and  N_17 
ROOT
HETATM    1  C   UNL     1     -40.239 -51.827  12.334  1.00  0.00     0.051 A 
HETATM    2  C   UNL     1     -39.335 -51.682  13.370  1.00  0.00     0.035 A 
HETATM    3  C   UNL     1     -39.241 -52.657  14.361  1.00  0.00     0.051 A 
HETATM    4  C   UNL     1     -40.021 -53.809  14.308  1.00  0.00     0.103 A 
HETATM    5  N   UNL     1     -40.882 -53.983  13.277  1.00  0.00    -0.350 N 
ATOM      6  HN  UNL     1     -41.453 -54.826  13.212  1.00  0.00     0.166 HD
HETATM    7  C   UNL     1     -40.970 -53.010  12.327  1.00  0.00     0.119 A 
ENDROOT
BRANCH   1   8
HETATM    8  N   UNL     1     -40.431 -50.846  11.334  1.00  0.00    -0.308 N 
HETATM    9  C   UNL     1     -41.210 -49.719  11.473  1.00  0.00     0.321 C 
HETATM   10  N   UNL     1     -41.243 -48.964  10.325  1.00  0.00    -0.334 N 
HETATM   11  O   UNL     1     -41.880 -49.401  12.445  1.00  0.00    -0.247 OA
HETATM   12  H   UNL     1     -40.362 -48.894   9.834  1.00  0.00     0.164 HD
HETATM   13  H   UNL     1     -40.174 -51.093  10.391  1.00  0.00     0.170 HD
BRANCH  10  14
HETATM   14  C   UNL     1     -42.097 -47.767  10.314  1.00  0.00     0.241 C 
BRANCH  14  15
HETATM   15  C   UNL     1     -41.421 -46.447  10.715  1.00  0.00     0.403 C 
HETATM   16  F   UNL     1     -41.613 -46.154  12.021  1.00  0.00    -0.169 F 
HETATM   17  F   UNL     1     -41.850 -45.403   9.977  1.00  0.00    -0.169 F 
HETATM   18  F   UNL     1     -40.079 -46.547  10.530  1.00  0.00    -0.169 F 
ENDBRANCH  14  15
ENDBRANCH  10  14
ENDBRANCH   1   8
BRANCH   4  19
HETATM   19  N   UNL     1     -39.923 -54.781  15.266  1.00  0.00    -0.367 N 
HETATM   20  C   UNL     1     -38.649 -55.394  15.606  1.00  0.00     0.124 C 
HETATM   21  C   UNL     1     -38.914 -56.115  16.935  1.00  0.00     0.021 C 
HETATM   22  C   UNL     1     -40.264 -55.598  17.409  1.00  0.00     0.021 C 
HETATM   23  C   UNL     1     -40.994 -55.258  16.120  1.00  0.00     0.124 C 
ENDBRANCH   4  19
TORSDOF 4
ENDMDL
MODEL 8
REMARK VINA RESULT:      -5.5      4.150      6.344
REMARK  4 active torsions:
REMARK  status: ('A' for Active; 'I' for Inactive)
REMARK    1  A    between atoms: C_2  and  C_5 
REMARK    2  A    between atoms: C_5  and  N_6 
REMARK       I    between atoms: N_6  and  C_7 
REMARK       I    between atoms: C_7  and  N_9 
REMARK    3  A    between atoms: N_9  and  C_10 
REMARK    4  A    between atoms: C_13  and  N_17 
ROOT
HETATM    1  C   UNL     1     -41.241 -47.868  10.870  1.00  0.00     0.051 A 
HETATM    2  C   UNL     1     -42.423 -47.224  10.553  1.00  0.00     0.035 A 
HETATM    3  C   UNL     1     -42.564 -45.858  10.793  1.00  0.00     0.051 A 
HETATM    4  C   UNL     1     -41.512 -45.111  11.315  1.00  0.00     0.103 A 
HETATM    5  N   UNL     1     -40.335 -45.720  11.592  1.00  0.00    -0.350 N 
ATOM      6  HN  UNL     1     -39.549 -45.188  11.963  1.00  0.00     0.166 HD
HETATM    7  C   UNL     1     -40.224 -47.059  11.366  1.00  0.00     0.119 A 
ENDROOT
BRANCH   1   8
HETATM    8  N   UNL     1     -41.054 -49.260  10.715  1.00  0.00    -0.308 N 
HETATM    9  C   UNL     1     -41.104 -50.182  11.737  1.00  0.00     0.321 C 
HETATM   10  N   UNL     1     -40.848 -51.460  11.299  1.00  0.00    -0.334 N 
HETATM   11  O   UNL     1     -41.276 -49.957  12.926  1.00  0.00    -0.247 OA
HETATM   12  H   UNL     1     -41.259 -51.695  10.405  1.00  0.00     0.164 HD
HETATM   13  H   UNL     1     -40.636 -49.576   9.853  1.00  0.00     0.170 HD
BRANCH  10  14
HETATM   14  C   UNL     1     -40.800 -52.534  12.302  1.00  0.00     0.241 C 
BRANCH  14  15
HETATM   15  C   UNL     1     -42.153 -53.115  12.739  1.00  0.00     0.403 C 
HETATM   16  F   UNL     1     -42.107 -54.459  12.880  1.00  0.00    -0.169 F 
HETATM   17  F   UNL     1     -43.146 -52.811  11.879  1.00  0.00    -0.169 F 
HETATM   18  F   UNL     1     -42.499 -52.607  13.950  1.00  0.00    -0.169 F 
ENDBRANCH  14  15
ENDBRANCH  10  14
ENDBRANCH   1   8
BRANCH   4  19
HETATM   19  N   UNL     1     -41.635 -43.766  11.536  1.00  0.00    -0.367 N 
HETATM   20  C   UNL     1     -40.486 -42.876  11.495  1.00  0.00     0.124 C 
HETATM   21  C   UNL     1     -41.094 -41.469  11.411  1.00  0.00     0.021 C 
HETATM   22  C   UNL     1     -42.568 -41.687  11.105  1.00  0.00     0.021 C 
HETATM   23  C   UNL     1     -42.873 -43.037  11.735  1.00  0.00     0.124 C 
ENDBRANCH   4  19
TORSDOF 4
ENDMDL
MODEL 9
REMARK VINA RESULT:      -5.5      4.445      5.405
REMARK  4 active torsions:
REMARK  status: ('A' for Active; 'I' for Inactive)
REMARK    1  A    between atoms: C_2  and  C_5 
REMARK    2  A    between atoms: C_5  and  N_6 
REMARK       I    between atoms: N_6  and  C_7 
REMARK       I    between atoms: C_7  and  N_9 
REMARK    3  A    between atoms: N_9  and  C_10 
REMARK    4  A    between atoms: C_13  and  N_17 
ROOT
HETATM    1  C   UNL     1     -39.688 -50.074  12.051  1.00  0.00     0.051 A 
HETATM    2  C   UNL     1     -38.511 -50.300  12.741  1.00  0.00     0.035 A 
HETATM    3  C   UNL     1     -38.425 -51.348  13.657  1.00  0.00     0.051 A 
HETATM    4  C   UNL     1     -39.500 -52.207  13.865  1.00  0.00     0.103 A 
HETATM    5  N   UNL     1     -40.645 -52.022  13.167  1.00  0.00    -0.350 N 
ATOM      6  HN  UNL     1     -41.440 -52.648  13.295  1.00  0.00     0.166 HD
HETATM    7  C   UNL     1     -40.715 -50.982  12.289  1.00  0.00     0.119 A 
ENDROOT
BRANCH   1   8
HETATM    8  N   UNL     1     -39.865 -48.992  11.160  1.00  0.00    -0.308 N 
HETATM    9  C   UNL     1     -40.290 -47.733  11.521  1.00  0.00     0.321 C 
HETATM   10  N   UNL     1     -40.407 -46.892  10.439  1.00  0.00    -0.334 N 
HETATM   11  O   UNL     1     -40.614 -47.356  12.638  1.00  0.00    -0.247 OA
HETATM   12  H   UNL     1     -39.675 -46.984   9.747  1.00  0.00     0.164 HD
HETATM   13  H   UNL     1     -39.905 -49.208  10.175  1.00  0.00     0.170 HD
BRANCH  10  14
HETATM   14  C   UNL     1     -40.920 -45.535  10.676  1.00  0.00     0.241 C 
BRANCH  14  15
HETATM   15  C   UNL     1     -39.883 -44.402  10.646  1.00  0.00     0.403 C 
HETATM   16  F   UNL     1     -39.169 -44.398   9.497  1.00  0.00    -0.169 F 
HETATM   17  F   UNL     1     -39.022 -44.464  11.681  1.00  0.00    -0.169 F 
HETATM   18  F   UNL     1     -40.514 -43.202  10.717  1.00  0.00    -0.169 F 
ENDBRANCH  14  15
ENDBRANCH  10  14
ENDBRANCH   1   8
BRANCH   4  19
HETATM   19  N   UNL     1     -39.418 -53.249  14.748  1.00  0.00    -0.367 N 
HETATM   20  C   UNL     1     -39.116 -54.602  14.308  1.00  0.00     0.124 C 
HETATM   21  C   UNL     1     -38.749 -55.351  15.597  1.00  0.00     0.021 C 
HETATM   22  C   UNL     1     -38.580 -54.269  16.655  1.00  0.00     0.021 C 
HETATM   23  C   UNL     1     -39.514 -53.163  16.192  1.00  0.00     0.124 C 
ENDBRANCH   4  19
TORSDOF 4
ENDMDL
