MODEL 1
REMARK VINA RESULT:      -6.6      0.000      0.000
REMARK  3 active torsions:
REMARK  status: ('A' for Active; 'I' for Inactive)
REMARK       I    between atoms: C_2  and  N_3 
REMARK       I    between atoms: C_2  and  N_13 
REMARK    1  A    between atoms: N_3  and  C_4 
REMARK    2  A    between atoms: C_4  and  C_5 
REMARK    3  A    between atoms: C_5  and  C_6 
ROOT
HETATM    1  O   UNL     1     -42.025 -49.435  13.589  1.00  0.00    -0.247 OA
HETATM    2  C   UNL     1     -42.057 -50.427  12.870  1.00  0.00     0.318 C 
HETATM    3  N   UNL     1     -41.513 -50.436  11.607  1.00  0.00    -0.343 N 
HETATM    4  N   UNL     1     -42.635 -51.633  13.254  1.00  0.00    -0.332 N 
HETATM    5  C   UNL     1     -42.811 -52.798  12.376  1.00  0.00     0.137 C 
HETATM    6  C   UNL     1     -44.249 -53.301  12.323  1.00  0.00     0.095 C 
HETATM    7  S   UNL     1     -44.822 -53.822  13.960  1.00  0.00    -0.156 SA
HETATM    8  C   UNL     1     -44.504 -52.239  14.887  1.00  0.00     0.024 C 
HETATM    9  C   UNL     1     -44.755 -52.526  16.389  1.00  0.00     0.022 C 
HETATM   10  C   UNL     1     -46.221 -52.838  16.719  1.00  0.00     0.002 C 
HETATM   11  C   UNL     1     -47.173 -51.764  16.198  1.00  0.00     0.000 C 
HETATM   12  C   UNL     1     -46.937 -51.426  14.729  1.00  0.00     0.002 C 
HETATM   13  C   UNL     1     -45.467 -51.114  14.444  1.00  0.00     0.022 C 
HETATM   14  C   UNL     1     -43.026 -51.812  14.665  1.00  0.00     0.148 C 
HETATM   15  H   UNL     1     -41.028 -51.294  11.400  1.00  0.00     0.164 HD
ENDROOT
BRANCH   3  16
HETATM   16  C   UNL     1     -40.863 -49.249  11.068  1.00  0.00     0.130 C 
BRANCH  16  17
HETATM   17  C   UNL     1     -41.894 -48.294  10.469  1.00  0.00     0.076 C 
BRANCH  17  18
HETATM   18  C   UNL     1     -41.536 -46.852  10.701  1.00  0.00     0.010 A 
HETATM   19  C   UNL     1     -42.473 -45.960  11.219  1.00  0.00     0.025 A 
HETATM   20  C   UNL     1     -42.102 -44.630  11.403  1.00  0.00     0.003 A 
HETATM   21  C   UNL     1     -40.814 -44.230  11.074  1.00  0.00     0.017 A 
HETATM   22  C   UNL     1     -39.943 -45.181  10.571  1.00  0.00     0.088 A 
HETATM   23  N   UNL     1     -40.274 -46.477  10.379  1.00  0.00    -0.369 N 
ATOM     24  HN  UNL     1     -39.602 -47.146  10.005  1.00  0.00     0.165 HD
ENDBRANCH  17  18
ENDBRANCH  16  17
ENDBRANCH   3  16
TORSDOF 3
ENDMDL
MODEL 2
REMARK VINA RESULT:      -6.5      1.713      2.151
REMARK  3 active torsions:
REMARK  status: ('A' for Active; 'I' for Inactive)
REMARK       I    between atoms: C_2  and  N_3 
REMARK       I    between atoms: C_2  and  N_13 
REMARK    1  A    between atoms: N_3  and  C_4 
REMARK    2  A    between atoms: C_4  and  C_5 
REMARK    3  A    between atoms: C_5  and  C_6 
ROOT
HETATM    1  O   UNL     1     -41.845 -49.993  14.009  1.00  0.00    -0.247 OA
HETATM    2  C   UNL     1     -42.191 -50.767  13.123  1.00  0.00     0.318 C 
HETATM    3  N   UNL     1     -41.857 -50.569  11.805  1.00  0.00    -0.343 N 
HETATM    4  N   UNL     1     -42.944 -51.913  13.359  1.00  0.00    -0.332 N 
HETATM    5  C   UNL     1     -43.489 -52.790  12.314  1.00  0.00     0.137 C 
HETATM    6  C   UNL     1     -44.992 -53.014  12.438  1.00  0.00     0.095 C 
HETATM    7  S   UNL     1     -45.408 -53.801  14.015  1.00  0.00    -0.156 SA
HETATM    8  C   UNL     1     -44.632 -52.560  15.165  1.00  0.00     0.024 C 
HETATM    9  C   UNL     1     -44.708 -53.147  16.597  1.00  0.00     0.022 C 
HETATM   10  C   UNL     1     -46.141 -53.274  17.133  1.00  0.00     0.002 C 
HETATM   11  C   UNL     1     -46.915 -51.962  17.034  1.00  0.00     0.000 C 
HETATM   12  C   UNL     1     -46.837 -51.331  15.647  1.00  0.00     0.002 C 
HETATM   13  C   UNL     1     -45.394 -51.215  15.153  1.00  0.00     0.022 C 
HETATM   14  C   UNL     1     -43.148 -52.350  14.753  1.00  0.00     0.148 C 
HETATM   15  H   UNL     1     -41.598 -51.424  11.338  1.00  0.00     0.164 HD
ENDROOT
BRANCH   3  16
HETATM   16  C   UNL     1     -41.061 -49.417  11.402  1.00  0.00     0.130 C 
BRANCH  16  17
HETATM   17  C   UNL     1     -41.861 -48.126  11.564  1.00  0.00     0.076 C 
BRANCH  17  18
HETATM   18  C   UNL     1     -42.854 -47.928  10.452  1.00  0.00     0.010 A 
HETATM   19  C   UNL     1     -44.193 -47.664  10.732  1.00  0.00     0.025 A 
HETATM   20  C   UNL     1     -45.080 -47.501   9.671  1.00  0.00     0.003 A 
HETATM   21  C   UNL     1     -44.610 -47.599   8.368  1.00  0.00     0.017 A 
HETATM   22  C   UNL     1     -43.263 -47.857   8.178  1.00  0.00     0.088 A 
HETATM   23  N   UNL     1     -42.379 -48.022   9.186  1.00  0.00    -0.369 N 
ATOM     24  HN  UNL     1     -41.394 -48.210   9.003  1.00  0.00     0.165 HD
ENDBRANCH  17  18
ENDBRANCH  16  17
ENDBRANCH   3  16
TORSDOF 3
ENDMDL
MODEL 3
REMARK VINA RESULT:      -6.4      2.069      2.645
REMARK  3 active torsions:
REMARK  status: ('A' for Active; 'I' for Inactive)
REMARK       I    between atoms: C_2  and  N_3 
REMARK       I    between atoms: C_2  and  N_13 
REMARK    1  A    between atoms: N_3  and  C_4 
REMARK    2  A    between atoms: C_4  and  C_5 
REMARK    3  A    between atoms: C_5  and  C_6 
ROOT
HETATM    1  O   UNL     1     -41.875 -49.584  13.428  1.00  0.00    -0.247 OA
HETATM    2  C   UNL     1     -41.835 -50.680  12.881  1.00  0.00     0.318 C 
HETATM    3  N   UNL     1     -41.166 -50.883  11.697  1.00  0.00    -0.343 N 
HETATM    4  N   UNL     1     -42.448 -51.817  13.396  1.00  0.00    -0.332 N 
HETATM    5  C   UNL     1     -42.535 -53.111  12.705  1.00  0.00     0.137 C 
HETATM    6  C   UNL     1     -43.961 -53.639  12.591  1.00  0.00     0.095 C 
HETATM    7  S   UNL     1     -44.696 -53.897  14.226  1.00  0.00    -0.156 SA
HETATM    8  C   UNL     1     -44.474 -52.181  14.911  1.00  0.00     0.024 C 
HETATM    9  C   UNL     1     -44.875 -52.225  16.407  1.00  0.00     0.022 C 
HETATM   10  C   UNL     1     -46.367 -52.503  16.635  1.00  0.00     0.002 C 
HETATM   11  C   UNL     1     -47.261 -51.544  15.854  1.00  0.00     0.000 C 
HETATM   12  C   UNL     1     -46.878 -51.443  14.380  1.00  0.00     0.002 C 
HETATM   13  C   UNL     1     -45.387 -51.158  14.197  1.00  0.00     0.022 C 
HETATM   14  C   UNL     1     -42.981 -51.771  14.771  1.00  0.00     0.148 C 
HETATM   15  H   UNL     1     -40.662 -51.755  11.681  1.00  0.00     0.164 HD
ENDROOT
BRANCH   3  16
HETATM   16  C   UNL     1     -40.464 -49.788  11.039  1.00  0.00     0.130 C 
BRANCH  16  17
HETATM   17  C   UNL     1     -38.989 -49.777  11.438  1.00  0.00     0.076 C 
BRANCH  17  18
HETATM   18  C   UNL     1     -38.704 -48.787  12.534  1.00  0.00     0.010 A 
HETATM   19  C   UNL     1     -37.671 -49.009  13.442  1.00  0.00     0.025 A 
HETATM   20  C   UNL     1     -37.451 -48.073  14.450  1.00  0.00     0.003 A 
HETATM   21  C   UNL     1     -38.258 -46.945  14.519  1.00  0.00     0.017 A 
HETATM   22  C   UNL     1     -39.257 -46.797  13.573  1.00  0.00     0.088 A 
HETATM   23  N   UNL     1     -39.496 -47.689  12.586  1.00  0.00    -0.369 N 
ATOM     24  HN  UNL     1     -40.243 -47.542  11.908  1.00  0.00     0.165 HD
ENDBRANCH  17  18
ENDBRANCH  16  17
ENDBRANCH   3  16
TORSDOF 3
ENDMDL
MODEL 4
REMARK VINA RESULT:      -6.3      1.765      2.512
REMARK  3 active torsions:
REMARK  status: ('A' for Active; 'I' for Inactive)
REMARK       I    between atoms: C_2  and  N_3 
REMARK       I    between atoms: C_2  and  N_13 
REMARK    1  A    between atoms: N_3  and  C_4 
REMARK    2  A    between atoms: C_4  and  C_5 
REMARK    3  A    between atoms: C_5  and  C_6 
ROOT
HETATM    1  O   UNL     1     -40.762 -50.160  14.700  1.00  0.00    -0.247 OA
HETATM    2  C   UNL     1     -40.616 -51.311  14.304  1.00  0.00     0.318 C 
HETATM    3  N   UNL     1     -39.512 -51.704  13.585  1.00  0.00    -0.343 N 
HETATM    4  N   UNL     1     -41.537 -52.326  14.542  1.00  0.00    -0.332 N 
HETATM    5  C   UNL     1     -41.463 -53.678  13.972  1.00  0.00     0.137 C 
HETATM    6  C   UNL     1     -42.733 -54.094  13.238  1.00  0.00     0.095 C 
HETATM    7  S   UNL     1     -44.161 -54.101  14.351  1.00  0.00    -0.156 SA
HETATM    8  C   UNL     1     -44.059 -52.342  14.953  1.00  0.00     0.024 C 
HETATM    9  C   UNL     1     -45.102 -52.181  16.087  1.00  0.00     0.022 C 
HETATM   10  C   UNL     1     -46.556 -52.304  15.608  1.00  0.00     0.002 C 
HETATM   11  C   UNL     1     -46.862 -51.368  14.442  1.00  0.00     0.000 C 
HETATM   12  C   UNL     1     -45.838 -51.470  13.315  1.00  0.00     0.002 C 
HETATM   13  C   UNL     1     -44.405 -51.334  13.833  1.00  0.00     0.022 C 
HETATM   14  C   UNL     1     -42.629 -52.079  15.502  1.00  0.00     0.148 C 
HETATM   15  H   UNL     1     -39.173 -52.612  13.861  1.00  0.00     0.164 HD
ENDROOT
BRANCH   3  16
HETATM   16  C   UNL     1     -38.453 -50.755  13.266  1.00  0.00     0.130 C 
BRANCH  16  17
HETATM   17  C   UNL     1     -38.529 -50.336  11.799  1.00  0.00     0.076 C 
BRANCH  17  18
HETATM   18  C   UNL     1     -39.520 -49.227  11.574  1.00  0.00     0.010 A 
HETATM   19  C   UNL     1     -39.354 -47.988  12.187  1.00  0.00     0.025 A 
HETATM   20  C   UNL     1     -40.304 -46.995  11.961  1.00  0.00     0.003 A 
HETATM   21  C   UNL     1     -41.384 -47.262  11.130  1.00  0.00     0.017 A 
HETATM   22  C   UNL     1     -41.470 -48.518  10.554  1.00  0.00     0.088 A 
HETATM   23  N   UNL     1     -40.566 -49.501  10.757  1.00  0.00    -0.369 N 
ATOM     24  HN  UNL     1     -40.667 -50.414  10.313  1.00  0.00     0.165 HD
ENDBRANCH  17  18
ENDBRANCH  16  17
ENDBRANCH   3  16
TORSDOF 3
ENDMDL
MODEL 5
REMARK VINA RESULT:      -6.2      2.507      7.578
REMARK  3 active torsions:
REMARK  status: ('A' for Active; 'I' for Inactive)
REMARK       I    between atoms: C_2  and  N_3 
REMARK       I    between atoms: C_2  and  N_13 
REMARK    1  A    between atoms: N_3  and  C_4 
REMARK    2  A    between atoms: C_4  and  C_5 
REMARK    3  A    between atoms: C_5  and  C_6 
ROOT
HETATM    1  O   UNL     1     -41.462 -48.934  13.553  1.00  0.00    -0.247 OA
HETATM    2  C   UNL     1     -42.131 -49.044  12.531  1.00  0.00     0.318 C 
HETATM    3  N   UNL     1     -42.366 -50.260  11.936  1.00  0.00    -0.343 N 
HETATM    4  N   UNL     1     -42.717 -47.963  11.880  1.00  0.00    -0.332 N 
HETATM    5  C   UNL     1     -43.410 -48.037  10.586  1.00  0.00     0.137 C 
HETATM    6  C   UNL     1     -42.868 -47.053   9.555  1.00  0.00     0.095 C 
HETATM    7  S   UNL     1     -43.054 -45.343  10.121  1.00  0.00    -0.156 SA
HETATM    8  C   UNL     1     -42.137 -45.479  11.736  1.00  0.00     0.024 C 
HETATM    9  C   UNL     1     -42.337 -44.142  12.494  1.00  0.00     0.022 C 
HETATM   10  C   UNL     1     -41.668 -42.942  11.810  1.00  0.00     0.002 C 
HETATM   11  C   UNL     1     -40.191 -43.192  11.516  1.00  0.00     0.000 C 
HETATM   12  C   UNL     1     -39.945 -44.517  10.800  1.00  0.00     0.002 C 
HETATM   13  C   UNL     1     -40.621 -45.687  11.516  1.00  0.00     0.022 C 
HETATM   14  C   UNL     1     -42.736 -46.654  12.559  1.00  0.00     0.148 C 
HETATM   15  H   UNL     1     -43.312 -50.352  11.600  1.00  0.00     0.164 HD
ENDROOT
BRANCH   3  16
HETATM   16  C   UNL     1     -41.826 -51.487  12.508  1.00  0.00     0.130 C 
BRANCH  16  17
HETATM   17  C   UNL     1     -42.869 -52.603  12.474  1.00  0.00     0.076 C 
BRANCH  17  18
HETATM   18  C   UNL     1     -44.184 -52.171  13.063  1.00  0.00     0.010 A 
HETATM   19  C   UNL     1     -44.263 -51.729  14.381  1.00  0.00     0.025 A 
HETATM   20  C   UNL     1     -45.504 -51.353  14.889  1.00  0.00     0.003 A 
HETATM   21  C   UNL     1     -46.624 -51.422  14.071  1.00  0.00     0.017 A 
HETATM   22  C   UNL     1     -46.457 -51.865  12.771  1.00  0.00     0.088 A 
HETATM   23  N   UNL     1     -45.267 -52.239  12.251  1.00  0.00    -0.369 N 
ATOM     24  HN  UNL     1     -45.187 -52.560  11.286  1.00  0.00     0.165 HD
ENDBRANCH  17  18
ENDBRANCH  16  17
ENDBRANCH   3  16
TORSDOF 3
ENDMDL
MODEL 6
REMARK VINA RESULT:      -6.0      3.710      7.341
REMARK  3 active torsions:
REMARK  status: ('A' for Active; 'I' for Inactive)
REMARK       I    between atoms: C_2  and  N_3 
REMARK       I    between atoms: C_2  and  N_13 
REMARK    1  A    between atoms: N_3  and  C_4 
REMARK    2  A    between atoms: C_4  and  C_5 
REMARK    3  A    between atoms: C_5  and  C_6 
ROOT
HETATM    1  O   UNL     1     -41.769 -51.966  15.082  1.00  0.00    -0.247 OA
HETATM    2  C   UNL     1     -41.400 -51.879  13.916  1.00  0.00     0.318 C 
HETATM    3  N   UNL     1     -41.747 -52.810  12.966  1.00  0.00    -0.343 N 
HETATM    4  N   UNL     1     -40.606 -50.841  13.440  1.00  0.00    -0.332 N 
HETATM    5  C   UNL     1     -40.034 -50.773  12.088  1.00  0.00     0.137 C 
HETATM    6  C   UNL     1     -38.524 -50.566  12.082  1.00  0.00     0.095 C 
HETATM    7  S   UNL     1     -38.072 -49.011  12.891  1.00  0.00    -0.156 SA
HETATM    8  C   UNL     1     -38.887 -49.302  14.539  1.00  0.00     0.024 C 
HETATM    9  C   UNL     1     -38.783 -47.984  15.346  1.00  0.00     0.022 C 
HETATM   10  C   UNL     1     -37.344 -47.609  15.727  1.00  0.00     0.002 C 
HETATM   11  C   UNL     1     -36.618 -48.747  16.439  1.00  0.00     0.000 C 
HETATM   12  C   UNL     1     -36.725 -50.075  15.694  1.00  0.00     0.002 C 
HETATM   13  C   UNL     1     -38.174 -50.416  15.340  1.00  0.00     0.022 C 
HETATM   14  C   UNL     1     -40.380 -49.669  14.306  1.00  0.00     0.148 C 
HETATM   15  H   UNL     1     -41.977 -52.391  12.079  1.00  0.00     0.164 HD
ENDROOT
BRANCH   3  16
HETATM   16  C   UNL     1     -42.585 -53.951  13.311  1.00  0.00     0.130 C 
BRANCH  16  17
HETATM   17  C   UNL     1     -43.956 -53.833  12.648  1.00  0.00     0.076 C 
BRANCH  17  18
HETATM   18  C   UNL     1     -44.904 -52.981  13.448  1.00  0.00     0.010 A 
HETATM   19  C   UNL     1     -45.913 -52.256  12.819  1.00  0.00     0.025 A 
HETATM   20  C   UNL     1     -46.758 -51.469  13.598  1.00  0.00     0.003 A 
HETATM   21  C   UNL     1     -46.580 -51.434  14.974  1.00  0.00     0.017 A 
HETATM   22  C   UNL     1     -45.557 -52.191  15.520  1.00  0.00     0.088 A 
HETATM   23  N   UNL     1     -44.720 -52.960  14.791  1.00  0.00    -0.369 N 
ATOM     24  HN  UNL     1     -43.979 -53.503  15.233  1.00  0.00     0.165 HD
ENDBRANCH  17  18
ENDBRANCH  16  17
ENDBRANCH   3  16
TORSDOF 3
ENDMDL
MODEL 7
REMARK VINA RESULT:      -6.0      3.013      7.934
REMARK  3 active torsions:
REMARK  status: ('A' for Active; 'I' for Inactive)
REMARK       I    between atoms: C_2  and  N_3 
REMARK       I    between atoms: C_2  and  N_13 
REMARK    1  A    between atoms: N_3  and  C_4 
REMARK    2  A    between atoms: C_4  and  C_5 
REMARK    3  A    between atoms: C_5  and  C_6 
ROOT
HETATM    1  O   UNL     1     -39.972 -49.185  13.790  1.00  0.00    -0.247 OA
HETATM    2  C   UNL     1     -40.906 -49.445  13.041  1.00  0.00     0.318 C 
HETATM    3  N   UNL     1     -41.224 -50.734  12.685  1.00  0.00    -0.343 N 
HETATM    4  N   UNL     1     -41.735 -48.475  12.485  1.00  0.00    -0.332 N 
HETATM    5  C   UNL     1     -42.777 -48.735  11.482  1.00  0.00     0.137 C 
HETATM    6  C   UNL     1     -42.639 -47.872  10.232  1.00  0.00     0.095 C 
HETATM    7  S   UNL     1     -42.764 -46.111  10.635  1.00  0.00    -0.156 SA
HETATM    8  C   UNL     1     -41.399 -46.012  11.897  1.00  0.00     0.024 C 
HETATM    9  C   UNL     1     -41.454 -44.597  12.527  1.00  0.00     0.022 C 
HETATM   10  C   UNL     1     -41.106 -43.471  11.543  1.00  0.00     0.002 C 
HETATM   11  C   UNL     1     -39.772 -43.709  10.841  1.00  0.00     0.000 C 
HETATM   12  C   UNL     1     -39.661 -45.105  10.234  1.00  0.00     0.002 C 
HETATM   13  C   UNL     1     -40.007 -46.196  11.248  1.00  0.00     0.022 C 
HETATM   14  C   UNL     1     -41.640 -47.092  12.988  1.00  0.00     0.148 C 
HETATM   15  H   UNL     1     -42.218 -50.898  12.667  1.00  0.00     0.164 HD
ENDROOT
BRANCH   3  16
HETATM   16  C   UNL     1     -40.453 -51.861  13.196  1.00  0.00     0.130 C 
BRANCH  16  17
HETATM   17  C   UNL     1     -40.872 -53.158  12.507  1.00  0.00     0.076 C 
BRANCH  17  18
HETATM   18  C   UNL     1     -42.123 -53.742  13.104  1.00  0.00     0.010 A 
HETATM   19  C   UNL     1     -42.088 -54.388  14.337  1.00  0.00     0.025 A 
HETATM   20  C   UNL     1     -43.267 -54.927  14.846  1.00  0.00     0.003 A 
HETATM   21  C   UNL     1     -44.443 -54.801  14.118  1.00  0.00     0.017 A 
HETATM   22  C   UNL     1     -44.392 -54.137  12.905  1.00  0.00     0.088 A 
HETATM   23  N   UNL     1     -43.263 -53.607  12.385  1.00  0.00    -0.369 N 
ATOM     24  HN  UNL     1     -43.269 -53.125  11.486  1.00  0.00     0.165 HD
ENDBRANCH  17  18
ENDBRANCH  16  17
ENDBRANCH   3  16
TORSDOF 3
ENDMDL
MODEL 8
REMARK VINA RESULT:      -5.9      1.524      2.071
REMARK  3 active torsions:
REMARK  status: ('A' for Active; 'I' for Inactive)
REMARK       I    between atoms: C_2  and  N_3 
REMARK       I    between atoms: C_2  and  N_13 
REMARK    1  A    between atoms: N_3  and  C_4 
REMARK    2  A    between atoms: C_4  and  C_5 
REMARK    3  A    between atoms: C_5  and  C_6 
ROOT
HETATM    1  O   UNL     1     -43.309 -47.719  12.486  1.00  0.00    -0.247 OA
HETATM    2  C   UNL     1     -42.554 -48.645  12.212  1.00  0.00     0.318 C 
HETATM    3  N   UNL     1     -41.671 -48.584  11.159  1.00  0.00    -0.343 N 
HETATM    4  N   UNL     1     -42.510 -49.836  12.930  1.00  0.00    -0.332 N 
HETATM    5  C   UNL     1     -41.718 -51.015  12.553  1.00  0.00     0.137 C 
HETATM    6  C   UNL     1     -42.546 -52.292  12.461  1.00  0.00     0.095 C 
HETATM    7  S   UNL     1     -43.310 -52.694  14.053  1.00  0.00    -0.156 SA
HETATM    8  C   UNL     1     -44.229 -51.100  14.336  1.00  0.00     0.024 C 
HETATM    9  C   UNL     1     -44.818 -51.154  15.768  1.00  0.00     0.022 C 
HETATM   10  C   UNL     1     -45.907 -52.223  15.944  1.00  0.00     0.002 C 
HETATM   11  C   UNL     1     -47.012 -52.101  14.899  1.00  0.00     0.000 C 
HETATM   12  C   UNL     1     -46.473 -52.010  13.474  1.00  0.00     0.002 C 
HETATM   13  C   UNL     1     -45.398 -50.929  13.339  1.00  0.00     0.022 C 
HETATM   14  C   UNL     1     -43.231 -49.914  14.214  1.00  0.00     0.148 C 
HETATM   15  H   UNL     1     -40.773 -48.982  11.383  1.00  0.00     0.164 HD
ENDROOT
BRANCH   3  16
HETATM   16  C   UNL     1     -41.593 -47.396  10.319  1.00  0.00     0.130 C 
BRANCH  16  17
HETATM   17  C   UNL     1     -40.482 -46.466  10.803  1.00  0.00     0.076 C 
BRANCH  17  18
HETATM   18  C   UNL     1     -40.979 -45.070  11.058  1.00  0.00     0.010 A 
HETATM   19  C   UNL     1     -40.087 -44.007  11.174  1.00  0.00     0.025 A 
HETATM   20  C   UNL     1     -40.590 -42.733  11.425  1.00  0.00     0.003 A 
HETATM   21  C   UNL     1     -41.962 -42.554  11.546  1.00  0.00     0.017 A 
HETATM   22  C   UNL     1     -42.780 -43.663  11.410  1.00  0.00     0.088 A 
HETATM   23  N   UNL     1     -42.320 -44.910  11.169  1.00  0.00    -0.369 N 
ATOM     24  HN  UNL     1     -42.958 -45.701  11.076  1.00  0.00     0.165 HD
ENDBRANCH  17  18
ENDBRANCH  16  17
ENDBRANCH   3  16
TORSDOF 3
ENDMDL
MODEL 9
REMARK VINA RESULT:      -5.8      3.506      7.032
REMARK  3 active torsions:
REMARK  status: ('A' for Active; 'I' for Inactive)
REMARK       I    between atoms: C_2  and  N_3 
REMARK       I    between atoms: C_2  and  N_13 
REMARK    1  A    between atoms: N_3  and  C_4 
REMARK    2  A    between atoms: C_4  and  C_5 
REMARK    3  A    between atoms: C_5  and  C_6 
ROOT
HETATM    1  O   UNL     1     -42.133 -48.945  14.117  1.00  0.00    -0.247 OA
HETATM    2  C   UNL     1     -42.590 -48.893  12.980  1.00  0.00     0.318 C 
HETATM    3  N   UNL     1     -42.861 -50.024  12.247  1.00  0.00    -0.343 N 
HETATM    4  N   UNL     1     -42.882 -47.701  12.326  1.00  0.00    -0.332 N 
HETATM    5  C   UNL     1     -43.302 -47.594  10.922  1.00  0.00     0.137 C 
HETATM    6  C   UNL     1     -42.437 -46.643  10.104  1.00  0.00     0.095 C 
HETATM    7  S   UNL     1     -42.502 -44.961  10.771  1.00  0.00    -0.156 SA
HETATM    8  C   UNL     1     -41.957 -45.326  12.514  1.00  0.00     0.024 C 
HETATM    9  C   UNL     1     -42.125 -44.022  13.333  1.00  0.00     0.022 C 
HETATM   10  C   UNL     1     -41.177 -42.896  12.898  1.00  0.00     0.002 C 
HETATM   11  C   UNL     1     -39.719 -43.345  12.872  1.00  0.00     0.000 C 
HETATM   12  C   UNL     1     -39.512 -44.647  12.103  1.00  0.00     0.002 C 
HETATM   13  C   UNL     1     -40.470 -45.744  12.572  1.00  0.00     0.022 C 
HETATM   14  C   UNL     1     -42.862 -46.446  13.101  1.00  0.00     0.148 C 
HETATM   15  H   UNL     1     -43.722 -49.954  11.730  1.00  0.00     0.164 HD
ENDROOT
BRANCH   3  16
HETATM   16  C   UNL     1     -42.617 -51.349  12.803  1.00  0.00     0.130 C 
BRANCH  16  17
HETATM   17  C   UNL     1     -41.493 -52.053  12.044  1.00  0.00     0.076 C 
BRANCH  17  18
HETATM   18  C   UNL     1     -40.138 -51.505  12.396  1.00  0.00     0.010 A 
HETATM   19  C   UNL     1     -39.522 -51.847  13.597  1.00  0.00     0.025 A 
HETATM   20  C   UNL     1     -38.272 -51.304  13.888  1.00  0.00     0.003 A 
HETATM   21  C   UNL     1     -37.673 -50.446  12.976  1.00  0.00     0.017 A 
HETATM   22  C   UNL     1     -38.350 -50.164  11.802  1.00  0.00     0.088 A 
HETATM   23  N   UNL     1     -39.563 -50.673  11.494  1.00  0.00    -0.369 N 
ATOM     24  HN  UNL     1     -40.029 -50.440  10.617  1.00  0.00     0.165 HD
ENDBRANCH  17  18
ENDBRANCH  16  17
ENDBRANCH   3  16
TORSDOF 3
ENDMDL
