MODEL 1
REMARK VINA RESULT:      -6.8      0.000      0.000
REMARK  6 active torsions:
REMARK  status: ('A' for Active; 'I' for Inactive)
REMARK    1  A    between atoms: N_1  and  C_9 
REMARK    2  A    between atoms: C_6  and  N_8 
REMARK    3  A    between atoms: C_15  and  C_27 
REMARK    4  A    between atoms: C_15  and  C_28 
REMARK    5  A    between atoms: C_27  and  O_29 
REMARK    6  A    between atoms: C_28  and  O_30 
ROOT
HETATM    1  N   UNL     1     -41.329 -49.174  11.811  1.00  0.00    -0.322 N 
HETATM    2  C   UNL     1     -40.044 -50.494  12.979  1.00  0.00     0.122 A 
HETATM    3  C   UNL     1     -40.037 -49.638  11.878  1.00  0.00     0.140 A 
HETATM    4  N   UNL     1     -41.291 -50.526  13.574  1.00  0.00    -0.346 N 
ATOM      5  HN  UNL     1     -41.574 -51.062  14.394  1.00  0.00     0.167 HD
HETATM    6  C   UNL     1     -38.846 -51.176  13.315  1.00  0.00     0.135 A 
HETATM    7  C   UNL     1     -42.028 -49.720  12.855  1.00  0.00     0.185 A 
HETATM    8  N   UNL     1     -38.981 -49.364  11.090  1.00  0.00    -0.336 N 
ATOM      9  HN  UNL     1     -39.006 -48.745  10.280  1.00  0.00     0.168 HD
HETATM   10  N   UNL     1     -37.751 -50.884  12.561  1.00  0.00    -0.337 N 
ATOM     11  HN  UNL     1     -36.847 -51.306  12.776  1.00  0.00     0.168 HD
HETATM   12  C   UNL     1     -37.881 -50.026  11.521  1.00  0.00     0.183 A 
ENDROOT
BRANCH   6  13
HETATM   13  N   UNL     1     -38.771 -52.058  14.387  1.00  0.00    -0.364 N 
HETATM   14  C   UNL     1     -39.524 -53.306  14.376  1.00  0.00     0.136 C 
HETATM   15  C   UNL     1     -39.373 -53.847  15.826  1.00  0.00     0.002 C 
HETATM   16  C   UNL     1     -40.727 -54.242  16.452  1.00  0.00     0.115 C 
HETATM   17  C   UNL     1     -38.516 -55.118  15.889  1.00  0.00     0.134 C 
HETATM   18  C   UNL     1     -38.696 -52.696  16.612  1.00  0.00     0.033 C 
HETATM   19  C   UNL     1     -40.671 -55.737  16.586  1.00  0.00     0.218 C 
HETATM   20  N   UNL     1     -39.404 -56.164  16.286  1.00  0.00    -0.360 N 
HETATM   21  O   UNL     1     -41.583 -56.461  16.936  1.00  0.00    -0.274 OA
HETATM   22  H   UNL     1     -39.157 -57.143  16.374  1.00  0.00     0.162 HD
HETATM   23  C   UNL     1     -38.833 -51.474  15.721  1.00  0.00     0.125 C 
ENDBRANCH   6  13
BRANCH   1  24
HETATM   24  C   UNL     1     -42.015 -48.337  10.872  1.00  0.00     0.094 C 
HETATM   25  C   UNL     1     -41.282 -47.019  10.494  1.00  0.00     0.039 C 
HETATM   26  C   UNL     1     -42.712 -46.417  10.229  1.00  0.00     0.006 C 
HETATM   27  C   UNL     1     -43.151 -47.406  11.380  1.00  0.00     0.039 C 
BRANCH  26  28
HETATM   28  C   UNL     1     -42.883 -44.938  10.564  1.00  0.00     0.175 C 
BRANCH  28  29
HETATM   29  O   UNL     1     -43.809 -44.351   9.652  1.00  0.00    -0.400 OA
HETATM   30  H   UNL     1     -43.666 -43.387   9.683  1.00  0.00     0.209 HD
ENDBRANCH  28  29
ENDBRANCH  26  28
BRANCH  26  31
HETATM   31  C   UNL     1     -43.331 -46.735   8.850  1.00  0.00     0.175 C 
BRANCH  31  32
HETATM   32  O   UNL     1     -42.667 -45.993   7.832  1.00  0.00    -0.400 OA
HETATM   33  H   UNL     1     -43.367 -45.653   7.238  1.00  0.00     0.209 HD
ENDBRANCH  31  32
ENDBRANCH  26  31
ENDBRANCH   1  24
TORSDOF 6
ENDMDL
MODEL 2
REMARK VINA RESULT:      -6.8      2.934      3.674
REMARK  6 active torsions:
REMARK  status: ('A' for Active; 'I' for Inactive)
REMARK    1  A    between atoms: N_1  and  C_9 
REMARK    2  A    between atoms: C_6  and  N_8 
REMARK    3  A    between atoms: C_15  and  C_27 
REMARK    4  A    between atoms: C_15  and  C_28 
REMARK    5  A    between atoms: C_27  and  O_29 
REMARK    6  A    between atoms: C_28  and  O_30 
ROOT
HETATM    1  N   UNL     1     -40.589 -48.012  11.596  1.00  0.00    -0.322 N 
HETATM    2  C   UNL     1     -40.944 -50.009  12.398  1.00  0.00     0.122 A 
HETATM    3  C   UNL     1     -40.062 -48.932  12.472  1.00  0.00     0.140 A 
HETATM    4  N   UNL     1     -41.983 -49.741  11.528  1.00  0.00    -0.346 N 
ATOM      5  HN  UNL     1     -42.767 -50.348  11.291  1.00  0.00     0.167 HD
HETATM    6  C   UNL     1     -40.669 -51.165  13.174  1.00  0.00     0.135 A 
HETATM    7  C   UNL     1     -41.742 -48.537  11.076  1.00  0.00     0.185 A 
HETATM    8  N   UNL     1     -38.958 -48.859  13.238  1.00  0.00    -0.336 N 
ATOM      9  HN  UNL     1     -38.320 -48.063  13.262  1.00  0.00     0.168 HD
HETATM   10  N   UNL     1     -39.582 -51.101  13.991  1.00  0.00    -0.337 N 
ATOM     11  HN  UNL     1     -39.352 -51.879  14.609  1.00  0.00     0.168 HD
HETATM   12  C   UNL     1     -38.811 -49.987  13.971  1.00  0.00     0.183 A 
ENDROOT
BRANCH   6  13
HETATM   13  N   UNL     1     -41.488 -52.287  13.148  1.00  0.00    -0.364 N 
HETATM   14  C   UNL     1     -42.840 -52.234  13.693  1.00  0.00     0.136 C 
HETATM   15  C   UNL     1     -43.296 -53.721  13.705  1.00  0.00     0.002 C 
HETATM   16  C   UNL     1     -43.878 -54.146  15.070  1.00  0.00     0.115 C 
HETATM   17  C   UNL     1     -44.413 -53.997  12.691  1.00  0.00     0.134 C 
HETATM   18  C   UNL     1     -42.025 -54.532  13.350  1.00  0.00     0.033 C 
HETATM   19  C   UNL     1     -45.339 -54.379  14.814  1.00  0.00     0.218 C 
HETATM   20  N   UNL     1     -45.571 -54.311  13.466  1.00  0.00    -0.360 N 
HETATM   21  O   UNL     1     -46.185 -54.624  15.653  1.00  0.00    -0.274 OA
HETATM   22  H   UNL     1     -46.494 -54.498  13.093  1.00  0.00     0.162 HD
HETATM   23  C   UNL     1     -40.873 -53.557  13.518  1.00  0.00     0.125 C 
ENDBRANCH   6  13
BRANCH   1  24
HETATM   24  C   UNL     1     -40.132 -46.735  11.134  1.00  0.00     0.094 C 
HETATM   25  C   UNL     1     -40.096 -45.612  12.209  1.00  0.00     0.039 C 
HETATM   26  C   UNL     1     -40.317 -44.604  11.020  1.00  0.00     0.006 C 
HETATM   27  C   UNL     1     -41.124 -45.805  10.383  1.00  0.00     0.039 C 
BRANCH  26  28
HETATM   28  C   UNL     1     -41.159 -43.373  11.340  1.00  0.00     0.175 C 
BRANCH  28  29
HETATM   29  O   UNL     1     -41.064 -42.444  10.263  1.00  0.00    -0.400 OA
HETATM   30  H   UNL     1     -41.588 -41.661  10.516  1.00  0.00     0.209 HD
ENDBRANCH  28  29
ENDBRANCH  26  28
BRANCH  26  31
HETATM   31  C   UNL     1     -39.051 -44.206  10.231  1.00  0.00     0.175 C 
BRANCH  31  32
HETATM   32  O   UNL     1     -39.330 -44.183   8.835  1.00  0.00    -0.400 OA
HETATM   33  H   UNL     1     -40.247 -43.852   8.744  1.00  0.00     0.209 HD
ENDBRANCH  31  32
ENDBRANCH  26  31
ENDBRANCH   1  24
TORSDOF 6
ENDMDL
MODEL 3
REMARK VINA RESULT:      -6.7      3.797      4.919
REMARK  6 active torsions:
REMARK  status: ('A' for Active; 'I' for Inactive)
REMARK    1  A    between atoms: N_1  and  C_9 
REMARK    2  A    between atoms: C_6  and  N_8 
REMARK    3  A    between atoms: C_15  and  C_27 
REMARK    4  A    between atoms: C_15  and  C_28 
REMARK    5  A    between atoms: C_27  and  O_29 
REMARK    6  A    between atoms: C_28  and  O_30 
ROOT
HETATM    1  N   UNL     1     -41.039 -48.054  11.582  1.00  0.00    -0.322 N 
HETATM    2  C   UNL     1     -39.621 -48.494  13.180  1.00  0.00     0.122 A 
HETATM    3  C   UNL     1     -39.906 -48.787  11.847  1.00  0.00     0.140 A 
HETATM    4  N   UNL     1     -40.533 -47.593  13.695  1.00  0.00    -0.346 N 
ATOM      5  HN  UNL     1     -40.557 -47.205  14.638  1.00  0.00     0.167 HD
HETATM    6  C   UNL     1     -38.504 -49.123  13.788  1.00  0.00     0.135 A 
HETATM    7  C   UNL     1     -41.358 -47.348  12.711  1.00  0.00     0.185 A 
HETATM    8  N   UNL     1     -39.205 -49.610  11.045  1.00  0.00    -0.336 N 
ATOM      9  HN  UNL     1     -39.444 -49.820  10.077  1.00  0.00     0.168 HD
HETATM   10  N   UNL     1     -37.752 -49.926  12.988  1.00  0.00    -0.337 N 
ATOM     11  HN  UNL     1     -36.909 -50.375  13.349  1.00  0.00     0.168 HD
HETATM   12  C   UNL     1     -38.139 -50.121  11.704  1.00  0.00     0.183 A 
ENDROOT
BRANCH   6  13
HETATM   13  N   UNL     1     -38.159 -48.897  15.115  1.00  0.00    -0.364 N 
HETATM   14  C   UNL     1     -37.089 -47.966  15.456  1.00  0.00     0.136 C 
HETATM   15  C   UNL     1     -36.857 -48.206  16.976  1.00  0.00     0.002 C 
HETATM   16  C   UNL     1     -35.368 -48.423  17.317  1.00  0.00     0.115 C 
HETATM   17  C   UNL     1     -37.292 -47.006  17.829  1.00  0.00     0.134 C 
HETATM   18  C   UNL     1     -37.708 -49.453  17.318  1.00  0.00     0.033 C 
HETATM   19  C   UNL     1     -34.970 -47.212  18.112  1.00  0.00     0.218 C 
HETATM   20  N   UNL     1     -36.091 -46.476  18.390  1.00  0.00    -0.360 N 
HETATM   21  O   UNL     1     -33.847 -46.935  18.484  1.00  0.00    -0.274 OA
HETATM   22  H   UNL     1     -36.030 -45.646  18.969  1.00  0.00     0.162 HD
HETATM   23  C   UNL     1     -38.066 -50.069  15.977  1.00  0.00     0.125 C 
ENDBRANCH   6  13
BRANCH   1  24
HETATM   24  C   UNL     1     -41.897 -47.968  10.437  1.00  0.00     0.094 C 
HETATM   25  C   UNL     1     -41.956 -46.575   9.751  1.00  0.00     0.039 C 
HETATM   26  C   UNL     1     -43.410 -46.971   9.296  1.00  0.00     0.006 C 
HETATM   27  C   UNL     1     -43.425 -47.782  10.652  1.00  0.00     0.039 C 
BRANCH  26  28
HETATM   28  C   UNL     1     -44.419 -45.829   9.230  1.00  0.00     0.175 C 
BRANCH  28  29
HETATM   29  O   UNL     1     -45.554 -46.245   8.473  1.00  0.00    -0.400 OA
HETATM   30  H   UNL     1     -45.774 -45.514   7.866  1.00  0.00     0.209 HD
ENDBRANCH  28  29
ENDBRANCH  26  28
BRANCH  26  31
HETATM   31  C   UNL     1     -43.503 -47.851   8.031  1.00  0.00     0.175 C 
BRANCH  31  32
HETATM   32  O   UNL     1     -43.011 -47.137   6.901  1.00  0.00    -0.400 OA
HETATM   33  H   UNL     1     -43.643 -47.307   6.172  1.00  0.00     0.209 HD
ENDBRANCH  31  32
ENDBRANCH  26  31
ENDBRANCH   1  24
TORSDOF 6
ENDMDL
MODEL 4
REMARK VINA RESULT:      -6.4      1.783      2.500
REMARK  6 active torsions:
REMARK  status: ('A' for Active; 'I' for Inactive)
REMARK    1  A    between atoms: N_1  and  C_9 
REMARK    2  A    between atoms: C_6  and  N_8 
REMARK    3  A    between atoms: C_15  and  C_27 
REMARK    4  A    between atoms: C_15  and  C_28 
REMARK    5  A    between atoms: C_27  and  O_29 
REMARK    6  A    between atoms: C_28  and  O_30 
ROOT
HETATM    1  N   UNL     1     -40.530 -47.391  12.356  1.00  0.00    -0.322 N 
HETATM    2  C   UNL     1     -40.268 -49.518  12.761  1.00  0.00     0.122 A 
HETATM    3  C   UNL     1     -39.702 -48.450  12.066  1.00  0.00     0.140 A 
HETATM    4  N   UNL     1     -41.384 -49.113  13.469  1.00  0.00    -0.346 N 
ATOM      5  HN  UNL     1     -41.983 -49.685  14.063  1.00  0.00     0.167 HD
HETATM    6  C   UNL     1     -39.662 -50.796  12.651  1.00  0.00     0.135 A 
HETATM    7  C   UNL     1     -41.504 -47.837  13.209  1.00  0.00     0.185 A 
HETATM    8  N   UNL     1     -38.599 -48.496  11.297  1.00  0.00    -0.336 N 
ATOM      9  HN  UNL     1     -38.213 -47.702  10.786  1.00  0.00     0.168 HD
HETATM   10  N   UNL     1     -38.519 -50.862  11.914  1.00  0.00    -0.337 N 
ATOM     11  HN  UNL     1     -38.007 -51.741  11.830  1.00  0.00     0.168 HD
HETATM   12  C   UNL     1     -38.072 -49.744  11.295  1.00  0.00     0.183 A 
ENDROOT
BRANCH   6  13
HETATM   13  N   UNL     1     -40.170 -51.915  13.299  1.00  0.00    -0.364 N 
HETATM   14  C   UNL     1     -39.422 -52.554  14.376  1.00  0.00     0.136 C 
HETATM   15  C   UNL     1     -40.195 -53.880  14.631  1.00  0.00     0.002 C 
HETATM   16  C   UNL     1     -39.263 -55.109  14.654  1.00  0.00     0.115 C 
HETATM   17  C   UNL     1     -40.904 -53.889  15.993  1.00  0.00     0.134 C 
HETATM   18  C   UNL     1     -41.228 -53.968  13.480  1.00  0.00     0.033 C 
HETATM   19  C   UNL     1     -39.283 -55.585  16.079  1.00  0.00     0.218 C 
HETATM   20  N   UNL     1     -40.238 -54.886  16.768  1.00  0.00    -0.360 N 
HETATM   21  O   UNL     1     -38.594 -56.470  16.549  1.00  0.00    -0.274 OA
HETATM   22  H   UNL     1     -40.437 -55.106  17.737  1.00  0.00     0.162 HD
HETATM   23  C   UNL     1     -40.769 -52.944  12.457  1.00  0.00     0.125 C 
ENDBRANCH   6  13
BRANCH   1  24
HETATM   24  C   UNL     1     -40.569 -46.033  11.898  1.00  0.00     0.094 C 
HETATM   25  C   UNL     1     -41.359 -45.047  12.804  1.00  0.00     0.039 C 
HETATM   26  C   UNL     1     -41.634 -44.219  11.494  1.00  0.00     0.006 C 
HETATM   27  C   UNL     1     -41.594 -45.638  10.799  1.00  0.00     0.039 C 
BRANCH  26  28
HETATM   28  C   UNL     1     -42.986 -43.517  11.424  1.00  0.00     0.175 C 
BRANCH  28  29
HETATM   29  O   UNL     1     -43.479 -43.573  10.087  1.00  0.00    -0.400 OA
HETATM   30  H   UNL     1     -42.742 -43.878   9.525  1.00  0.00     0.209 HD
ENDBRANCH  28  29
ENDBRANCH  26  28
BRANCH  26  31
HETATM   31  C   UNL     1     -40.503 -43.266  11.051  1.00  0.00     0.175 C 
BRANCH  31  32
HETATM   32  O   UNL     1     -41.055 -42.051  10.552  1.00  0.00    -0.400 OA
HETATM   33  H   UNL     1     -40.672 -41.332  11.094  1.00  0.00     0.209 HD
ENDBRANCH  31  32
ENDBRANCH  26  31
ENDBRANCH   1  24
TORSDOF 6
ENDMDL
MODEL 5
REMARK VINA RESULT:      -6.3      2.086      8.766
REMARK  6 active torsions:
REMARK  status: ('A' for Active; 'I' for Inactive)
REMARK    1  A    between atoms: N_1  and  C_9 
REMARK    2  A    between atoms: C_6  and  N_8 
REMARK    3  A    between atoms: C_15  and  C_27 
REMARK    4  A    between atoms: C_15  and  C_28 
REMARK    5  A    between atoms: C_27  and  O_29 
REMARK    6  A    between atoms: C_28  and  O_30 
ROOT
HETATM    1  N   UNL     1     -39.538 -51.660  14.043  1.00  0.00    -0.322 N 
HETATM    2  C   UNL     1     -39.757 -49.917  12.751  1.00  0.00     0.122 A 
HETATM    3  C   UNL     1     -38.875 -50.949  13.071  1.00  0.00     0.140 A 
HETATM    4  N   UNL     1     -40.924 -50.016  13.484  1.00  0.00    -0.346 N 
ATOM      5  HN  UNL     1     -41.735 -49.400  13.446  1.00  0.00     0.167 HD
HETATM    6  C   UNL     1     -39.359 -48.962  11.779  1.00  0.00     0.135 A 
HETATM    7  C   UNL     1     -40.760 -51.072  14.237  1.00  0.00     0.185 A 
HETATM    8  N   UNL     1     -37.662 -51.156  12.527  1.00  0.00    -0.336 N 
ATOM      9  HN  UNL     1     -37.029 -51.911  12.791  1.00  0.00     0.168 HD
HETATM   10  N   UNL     1     -38.154 -49.173  11.182  1.00  0.00    -0.337 N 
ATOM     11  HN  UNL     1     -37.826 -48.550  10.443  1.00  0.00     0.168 HD
HETATM   12  C   UNL     1     -37.397 -50.222  11.583  1.00  0.00     0.183 A 
ENDROOT
BRANCH   6  13
HETATM   13  N   UNL     1     -40.170 -47.895  11.413  1.00  0.00    -0.364 N 
HETATM   14  C   UNL     1     -40.350 -46.758  12.307  1.00  0.00     0.136 C 
HETATM   15  C   UNL     1     -41.504 -45.946  11.650  1.00  0.00     0.002 C 
HETATM   16  C   UNL     1     -42.618 -45.589  12.656  1.00  0.00     0.115 C 
HETATM   17  C   UNL     1     -41.025 -44.601  11.089  1.00  0.00     0.134 C 
HETATM   18  C   UNL     1     -42.032 -46.853  10.512  1.00  0.00     0.033 C 
HETATM   19  C   UNL     1     -42.535 -44.097  12.814  1.00  0.00     0.218 C 
HETATM   20  N   UNL     1     -41.651 -43.601  11.894  1.00  0.00    -0.360 N 
HETATM   21  O   UNL     1     -43.169 -43.423  13.602  1.00  0.00    -0.274 OA
HETATM   22  H   UNL     1     -41.502 -42.602  11.810  1.00  0.00     0.162 HD
HETATM   23  C   UNL     1     -41.449 -48.226  10.796  1.00  0.00     0.125 C 
ENDBRANCH   6  13
BRANCH   1  24
HETATM   24  C   UNL     1     -39.163 -52.779  14.856  1.00  0.00     0.094 C 
HETATM   25  C   UNL     1     -39.631 -54.167  14.337  1.00  0.00     0.039 C 
HETATM   26  C   UNL     1     -39.628 -54.621  15.845  1.00  0.00     0.006 C 
HETATM   27  C   UNL     1     -40.007 -53.111  16.118  1.00  0.00     0.039 C 
BRANCH  26  28
HETATM   28  C   UNL     1     -40.706 -55.626  16.238  1.00  0.00     0.175 C 
BRANCH  28  29
HETATM   29  O   UNL     1     -40.089 -56.843  16.652  1.00  0.00    -0.400 OA
HETATM   30  H   UNL     1     -40.361 -57.000  17.576  1.00  0.00     0.209 HD
ENDBRANCH  28  29
ENDBRANCH  26  28
BRANCH  26  31
HETATM   31  C   UNL     1     -38.258 -55.042  16.418  1.00  0.00     0.175 C 
BRANCH  31  32
HETATM   32  O   UNL     1     -37.668 -56.040  15.591  1.00  0.00    -0.400 OA
HETATM   33  H   UNL     1     -37.919 -55.818  14.671  1.00  0.00     0.209 HD
ENDBRANCH  31  32
ENDBRANCH  26  31
ENDBRANCH   1  24
TORSDOF 6
ENDMDL
MODEL 6
REMARK VINA RESULT:      -6.3      3.261      8.660
REMARK  6 active torsions:
REMARK  status: ('A' for Active; 'I' for Inactive)
REMARK    1  A    between atoms: N_1  and  C_9 
REMARK    2  A    between atoms: C_6  and  N_8 
REMARK    3  A    between atoms: C_15  and  C_27 
REMARK    4  A    between atoms: C_15  and  C_28 
REMARK    5  A    between atoms: C_27  and  O_29 
REMARK    6  A    between atoms: C_28  and  O_30 
ROOT
HETATM    1  N   UNL     1     -42.551 -51.121  12.852  1.00  0.00    -0.322 N 
HETATM    2  C   UNL     1     -41.755 -49.296  11.962  1.00  0.00     0.122 A 
HETATM    3  C   UNL     1     -41.416 -50.614  12.265  1.00  0.00     0.140 A 
HETATM    4  N   UNL     1     -43.059 -49.023  12.328  1.00  0.00    -0.346 N 
ATOM      5  HN  UNL     1     -43.564 -48.144  12.218  1.00  0.00     0.167 HD
HETATM    6  C   UNL     1     -40.775 -48.465  11.361  1.00  0.00     0.135 A 
HETATM    7  C   UNL     1     -43.504 -50.138  12.847  1.00  0.00     0.185 A 
HETATM    8  N   UNL     1     -40.233 -51.207  12.023  1.00  0.00    -0.336 N 
ATOM      9  HN  UNL     1     -40.005 -52.171  12.268  1.00  0.00     0.168 HD
HETATM   10  N   UNL     1     -39.583 -49.052  11.064  1.00  0.00    -0.337 N 
ATOM     11  HN  UNL     1     -38.849 -48.525  10.590  1.00  0.00     0.168 HD
HETATM   12  C   UNL     1     -39.387 -50.348  11.408  1.00  0.00     0.183 A 
ENDROOT
BRANCH   6  13
HETATM   13  N   UNL     1     -41.025 -47.137  11.040  1.00  0.00    -0.364 N 
HETATM   14  C   UNL     1     -40.825 -46.083  12.028  1.00  0.00     0.136 C 
HETATM   15  C   UNL     1     -41.455 -44.825  11.365  1.00  0.00     0.002 C 
HETATM   16  C   UNL     1     -42.434 -44.092  12.307  1.00  0.00     0.115 C 
HETATM   17  C   UNL     1     -40.402 -43.775  10.987  1.00  0.00     0.134 C 
HETATM   18  C   UNL     1     -42.172 -45.357  10.100  1.00  0.00     0.033 C 
HETATM   19  C   UNL     1     -41.763 -42.786  12.624  1.00  0.00     0.218 C 
HETATM   20  N   UNL     1     -40.651 -42.654  11.835  1.00  0.00    -0.360 N 
HETATM   21  O   UNL     1     -42.151 -41.955  13.422  1.00  0.00    -0.274 OA
HETATM   22  H   UNL     1     -40.095 -41.807  11.867  1.00  0.00     0.162 HD
HETATM   23  C   UNL     1     -42.244 -46.862  10.289  1.00  0.00     0.125 C 
ENDBRANCH   6  13
BRANCH   1  24
HETATM   24  C   UNL     1     -42.849 -52.380  13.469  1.00  0.00     0.094 C 
HETATM   25  C   UNL     1     -43.727 -53.345  12.625  1.00  0.00     0.039 C 
HETATM   26  C   UNL     1     -44.226 -53.933  13.998  1.00  0.00     0.006 C 
HETATM   27  C   UNL     1     -43.998 -52.456  14.513  1.00  0.00     0.039 C 
BRANCH  26  28
HETATM   28  C   UNL     1     -45.678 -54.398  14.033  1.00  0.00     0.175 C 
BRANCH  28  29
HETATM   29  O   UNL     1     -45.724 -55.815  13.871  1.00  0.00    -0.400 OA
HETATM   30  H   UNL     1     -45.193 -56.027  13.080  1.00  0.00     0.209 HD
ENDBRANCH  28  29
ENDBRANCH  26  28
BRANCH  26  31
HETATM   31  C   UNL     1     -43.304 -54.982  14.656  1.00  0.00     0.175 C 
BRANCH  31  32
HETATM   32  O   UNL     1     -43.801 -55.331  15.943  1.00  0.00    -0.400 OA
HETATM   33  H   UNL     1     -43.598 -56.281  16.068  1.00  0.00     0.209 HD
ENDBRANCH  31  32
ENDBRANCH  26  31
ENDBRANCH   1  24
TORSDOF 6
ENDMDL
MODEL 7
REMARK VINA RESULT:      -6.2      1.972      2.678
REMARK  6 active torsions:
REMARK  status: ('A' for Active; 'I' for Inactive)
REMARK    1  A    between atoms: N_1  and  C_9 
REMARK    2  A    between atoms: C_6  and  N_8 
REMARK    3  A    between atoms: C_15  and  C_27 
REMARK    4  A    between atoms: C_15  and  C_28 
REMARK    5  A    between atoms: C_27  and  O_29 
REMARK    6  A    between atoms: C_28  and  O_30 
ROOT
HETATM    1  N   UNL     1     -41.168 -48.899  12.945  1.00  0.00    -0.322 N 
HETATM    2  C   UNL     1     -40.825 -50.847  13.864  1.00  0.00     0.122 A 
HETATM    3  C   UNL     1     -41.254 -50.246  12.681  1.00  0.00     0.140 A 
HETATM    4  N   UNL     1     -40.466 -49.898  14.802  1.00  0.00    -0.346 N 
ATOM      5  HN  UNL     1     -40.115 -50.058  15.745  1.00  0.00     0.167 HD
HETATM    6  C   UNL     1     -40.819 -52.264  13.940  1.00  0.00     0.135 A 
HETATM    7  C   UNL     1     -40.677 -48.748  14.215  1.00  0.00     0.185 A 
HETATM    8  N   UNL     1     -41.654 -50.882  11.565  1.00  0.00    -0.336 N 
ATOM      9  HN  UNL     1     -41.978 -50.417  10.717  1.00  0.00     0.168 HD
HETATM   10  N   UNL     1     -41.177 -52.933  12.810  1.00  0.00    -0.337 N 
ATOM     11  HN  UNL     1     -41.152 -53.952  12.782  1.00  0.00     0.168 HD
HETATM   12  C   UNL     1     -41.568 -52.223  11.725  1.00  0.00     0.183 A 
ENDROOT
BRANCH   6  13
HETATM   13  N   UNL     1     -40.420 -52.942  15.086  1.00  0.00    -0.364 N 
HETATM   14  C   UNL     1     -39.026 -53.326  15.275  1.00  0.00     0.136 C 
HETATM   15  C   UNL     1     -39.062 -54.266  16.514  1.00  0.00     0.002 C 
HETATM   16  C   UNL     1     -38.313 -55.593  16.269  1.00  0.00     0.115 C 
HETATM   17  C   UNL     1     -38.381 -53.642  17.740  1.00  0.00     0.134 C 
HETATM   18  C   UNL     1     -40.567 -54.503  16.791  1.00  0.00     0.033 C 
HETATM   19  C   UNL     1     -37.110 -55.532  17.166  1.00  0.00     0.218 C 
HETATM   20  N   UNL     1     -37.219 -54.437  17.982  1.00  0.00    -0.360 N 
HETATM   21  O   UNL     1     -36.197 -56.334  17.198  1.00  0.00    -0.274 OA
HETATM   22  H   UNL     1     -36.525 -54.258  18.698  1.00  0.00     0.162 HD
HETATM   23  C   UNL     1     -41.281 -54.029  15.537  1.00  0.00     0.125 C 
ENDBRANCH   6  13
BRANCH   1  24
HETATM   24  C   UNL     1     -41.538 -47.735  12.196  1.00  0.00     0.094 C 
HETATM   25  C   UNL     1     -43.033 -47.663  11.773  1.00  0.00     0.039 C 
HETATM   26  C   UNL     1     -42.541 -46.805  10.548  1.00  0.00     0.006 C 
HETATM   27  C   UNL     1     -41.240 -47.694  10.671  1.00  0.00     0.039 C 
BRANCH  26  28
HETATM   28  C   UNL     1     -43.318 -46.995   9.249  1.00  0.00     0.175 C 
BRANCH  28  29
HETATM   29  O   UNL     1     -42.745 -46.177   8.231  1.00  0.00    -0.400 OA
HETATM   30  H   UNL     1     -41.776 -46.258   8.314  1.00  0.00     0.209 HD
ENDBRANCH  28  29
ENDBRANCH  26  28
BRANCH  26  31
HETATM   31  C   UNL     1     -42.311 -45.304  10.827  1.00  0.00     0.175 C 
BRANCH  31  32
HETATM   32  O   UNL     1     -43.379 -44.535  10.283  1.00  0.00    -0.400 OA
HETATM   33  H   UNL     1     -44.148 -44.678  10.872  1.00  0.00     0.209 HD
ENDBRANCH  31  32
ENDBRANCH  26  31
ENDBRANCH   1  24
TORSDOF 6
ENDMDL
MODEL 8
REMARK VINA RESULT:      -6.2      2.216      2.963
REMARK  6 active torsions:
REMARK  status: ('A' for Active; 'I' for Inactive)
REMARK    1  A    between atoms: N_1  and  C_9 
REMARK    2  A    between atoms: C_6  and  N_8 
REMARK    3  A    between atoms: C_15  and  C_27 
REMARK    4  A    between atoms: C_15  and  C_28 
REMARK    5  A    between atoms: C_27  and  O_29 
REMARK    6  A    between atoms: C_28  and  O_30 
ROOT
HETATM    1  N   UNL     1     -42.498 -49.087  12.642  1.00  0.00    -0.322 N 
HETATM    2  C   UNL     1     -42.366 -51.015  13.652  1.00  0.00     0.122 A 
HETATM    3  C   UNL     1     -42.020 -50.365  12.469  1.00  0.00     0.140 A 
HETATM    4  N   UNL     1     -43.006 -50.154  14.523  1.00  0.00    -0.346 N 
ATOM      5  HN  UNL     1     -43.360 -50.364  15.456  1.00  0.00     0.167 HD
HETATM    6  C   UNL     1     -42.037 -52.389  13.792  1.00  0.00     0.135 A 
HETATM    7  C   UNL     1     -43.059 -49.012  13.890  1.00  0.00     0.185 A 
HETATM    8  N   UNL     1     -41.372 -50.908  11.422  1.00  0.00    -0.336 N 
ATOM      9  HN  UNL     1     -41.144 -50.413  10.560  1.00  0.00     0.168 HD
HETATM   10  N   UNL     1     -41.342 -52.952  12.766  1.00  0.00    -0.337 N 
ATOM     11  HN  UNL     1     -41.035 -53.923  12.820  1.00  0.00     0.168 HD
HETATM   12  C   UNL     1     -41.064 -52.202  11.673  1.00  0.00     0.183 A 
ENDROOT
BRANCH   6  13
HETATM   13  N   UNL     1     -42.358 -53.115  14.932  1.00  0.00    -0.364 N 
HETATM   14  C   UNL     1     -41.328 -53.845  15.663  1.00  0.00     0.136 C 
HETATM   15  C   UNL     1     -42.131 -54.707  16.679  1.00  0.00     0.002 C 
HETATM   16  C   UNL     1     -41.703 -56.190  16.659  1.00  0.00     0.115 C 
HETATM   17  C   UNL     1     -41.919 -54.249  18.128  1.00  0.00     0.134 C 
HETATM   18  C   UNL     1     -43.613 -54.535  16.265  1.00  0.00     0.033 C 
HETATM   19  C   UNL     1     -41.037 -56.420  17.985  1.00  0.00     0.218 C 
HETATM   20  N   UNL     1     -41.215 -55.312  18.771  1.00  0.00    -0.360 N 
HETATM   21  O   UNL     1     -40.459 -57.432  18.332  1.00  0.00    -0.274 OA
HETATM   22  H   UNL     1     -40.881 -55.301  19.728  1.00  0.00     0.162 HD
HETATM   23  C   UNL     1     -43.568 -53.926  14.874  1.00  0.00     0.125 C 
ENDBRANCH   6  13
BRANCH   1  24
HETATM   24  C   UNL     1     -42.554 -47.944  11.780  1.00  0.00     0.094 C 
HETATM   25  C   UNL     1     -43.889 -47.760  11.004  1.00  0.00     0.039 C 
HETATM   26  C   UNL     1     -43.032 -47.031   9.902  1.00  0.00     0.006 C 
HETATM   27  C   UNL     1     -41.899 -48.027  10.373  1.00  0.00     0.039 C 
BRANCH  26  28
HETATM   28  C   UNL     1     -43.494 -47.231   8.462  1.00  0.00     0.175 C 
BRANCH  28  29
HETATM   29  O   UNL     1     -42.800 -46.319   7.613  1.00  0.00    -0.400 OA
HETATM   30  H   UNL     1     -41.851 -46.530   7.685  1.00  0.00     0.209 HD
ENDBRANCH  28  29
ENDBRANCH  26  28
BRANCH  26  31
HETATM   31  C   UNL     1     -42.717 -45.543  10.170  1.00  0.00     0.175 C 
BRANCH  31  32
HETATM   32  O   UNL     1     -43.723 -44.719   9.590  1.00  0.00    -0.400 OA
HETATM   33  H   UNL     1     -43.636 -43.840  10.013  1.00  0.00     0.209 HD
ENDBRANCH  31  32
ENDBRANCH  26  31
ENDBRANCH   1  24
TORSDOF 6
ENDMDL
MODEL 9
REMARK VINA RESULT:      -6.1      4.302      5.665
REMARK  6 active torsions:
REMARK  status: ('A' for Active; 'I' for Inactive)
REMARK    1  A    between atoms: N_1  and  C_9 
REMARK    2  A    between atoms: C_6  and  N_8 
REMARK    3  A    between atoms: C_15  and  C_27 
REMARK    4  A    between atoms: C_15  and  C_28 
REMARK    5  A    between atoms: C_27  and  O_29 
REMARK    6  A    between atoms: C_28  and  O_30 
ROOT
HETATM    1  N   UNL     1     -42.519 -50.530  13.637  1.00  0.00    -0.322 N 
HETATM    2  C   UNL     1     -40.425 -49.952  13.833  1.00  0.00     0.122 A 
HETATM    3  C   UNL     1     -41.405 -50.243  12.884  1.00  0.00     0.140 A 
HETATM    4  N   UNL     1     -40.936 -50.035  15.114  1.00  0.00    -0.346 N 
ATOM      5  HN  UNL     1     -40.443 -49.868  15.991  1.00  0.00     0.167 HD
HETATM    6  C   UNL     1     -39.118 -49.635  13.383  1.00  0.00     0.135 A 
HETATM    7  C   UNL     1     -42.189 -50.373  14.957  1.00  0.00     0.185 A 
HETATM    8  N   UNL     1     -41.245 -50.234  11.548  1.00  0.00    -0.336 N 
ATOM      9  HN  UNL     1     -41.975 -50.466  10.875  1.00  0.00     0.168 HD
HETATM   10  N   UNL     1     -38.940 -49.576  12.034  1.00  0.00    -0.337 N 
ATOM     11  HN  UNL     1     -38.036 -49.310  11.642  1.00  0.00     0.168 HD
HETATM   12  C   UNL     1     -39.981 -49.876  11.222  1.00  0.00     0.183 A 
ENDROOT
BRANCH   6  13
HETATM   13  N   UNL     1     -38.080 -49.347  14.262  1.00  0.00    -0.364 N 
HETATM   14  C   UNL     1     -37.786 -50.236  15.380  1.00  0.00     0.136 C 
HETATM   15  C   UNL     1     -36.765 -49.434  16.236  1.00  0.00     0.002 C 
HETATM   16  C   UNL     1     -37.158 -49.383  17.727  1.00  0.00     0.115 C 
HETATM   17  C   UNL     1     -35.364 -50.060  16.212  1.00  0.00     0.134 C 
HETATM   18  C   UNL     1     -36.739 -48.019  15.605  1.00  0.00     0.033 C 
HETATM   19  C   UNL     1     -36.115 -50.203  18.432  1.00  0.00     0.218 C 
HETATM   20  N   UNL     1     -35.126 -50.526  17.540  1.00  0.00    -0.360 N 
HETATM   21  O   UNL     1     -36.117 -50.508  19.609  1.00  0.00    -0.274 OA
HETATM   22  H   UNL     1     -34.304 -51.034  17.847  1.00  0.00     0.162 HD
HETATM   23  C   UNL     1     -37.962 -47.964  14.707  1.00  0.00     0.125 C 
ENDBRANCH   6  13
BRANCH   1  24
HETATM   24  C   UNL     1     -43.833 -50.989  13.293  1.00  0.00     0.094 C 
HETATM   25  C   UNL     1     -44.721 -51.425  14.493  1.00  0.00     0.039 C 
HETATM   26  C   UNL     1     -45.439 -52.393  13.481  1.00  0.00     0.006 C 
HETATM   27  C   UNL     1     -44.016 -52.449  12.796  1.00  0.00     0.039 C 
BRANCH  26  28
HETATM   28  C   UNL     1     -45.917 -53.722  14.058  1.00  0.00     0.175 C 
BRANCH  28  29
HETATM   29  O   UNL     1     -47.325 -53.662  14.275  1.00  0.00    -0.400 OA
HETATM   30  H   UNL     1     -47.642 -54.582  14.340  1.00  0.00     0.209 HD
ENDBRANCH  28  29
ENDBRANCH  26  28
BRANCH  26  31
HETATM   31  C   UNL     1     -46.538 -51.755  12.604  1.00  0.00     0.175 C 
BRANCH  31  32
HETATM   32  O   UNL     1     -46.916 -52.652  11.564  1.00  0.00    -0.400 OA
HETATM   33  H   UNL     1     -47.651 -52.220  11.082  1.00  0.00     0.209 HD
ENDBRANCH  31  32
ENDBRANCH  26  31
ENDBRANCH   1  24
TORSDOF 6
ENDMDL
