MODEL 1
REMARK VINA RESULT:      -6.2      0.000      0.000
REMARK  6 active torsions:
REMARK  status: ('A' for Active; 'I' for Inactive)
REMARK    1  A    between atoms: C_2  and  C_3 
REMARK       I    between atoms: C_2  and  N_16 
REMARK    2  A    between atoms: C_3  and  C_4 
REMARK    3  A    between atoms: C_4  and  N_5 
REMARK    4  A    between atoms: N_16  and  C_17 
REMARK    5  A    between atoms: C_17  and  C_18 
REMARK    6  A    between atoms: C_18  and  C_19 
ROOT
HETATM    1  O   UNL     1     -39.866 -51.509  15.178  1.00  0.00    -0.274 OA
HETATM    2  C   UNL     1     -39.886 -52.203  14.167  1.00  0.00     0.219 C 
HETATM    3  N   UNL     1     -39.697 -51.692  12.897  1.00  0.00    -0.361 N 
HETATM    4  H   UNL     1     -39.934 -52.274  12.104  1.00  0.00     0.162 HD
ENDROOT
BRANCH   2   5
HETATM    5  C   UNL     1     -40.056 -53.708  14.207  1.00  0.00     0.123 C 
BRANCH   5   6
HETATM    6  C   UNL     1     -41.106 -54.166  13.195  1.00  0.00     0.144 C 
BRANCH   6   7
HETATM    7  N   UNL     1     -42.443 -53.715  13.557  1.00  0.00    -0.287 N 
HETATM    8  C   UNL     1     -43.063 -52.607  13.020  1.00  0.00     0.231 C 
HETATM    9  O   UNL     1     -42.678 -51.913  12.096  1.00  0.00    -0.273 OA
HETATM   10  C   UNL     1     -44.290 -52.377  13.866  1.00  0.00     0.091 C 
HETATM   11  C   UNL     1     -45.496 -51.657  13.298  1.00  0.00     0.015 C 
HETATM   12  C   UNL     1     -44.643 -53.812  14.216  1.00  0.00     0.091 C 
HETATM   13  C   UNL     1     -46.632 -51.700  14.336  1.00  0.00     0.001 C 
HETATM   14  C   UNL     1     -46.936 -53.123  14.833  1.00  0.00     0.001 C 
HETATM   15  C   UNL     1     -45.678 -53.863  15.317  1.00  0.00     0.015 C 
HETATM   16  C   UNL     1     -43.272 -54.398  14.422  1.00  0.00     0.231 C 
HETATM   17  O   UNL     1     -42.999 -55.354  15.123  1.00  0.00    -0.273 OA
ENDBRANCH   6   7
ENDBRANCH   5   6
ENDBRANCH   2   5
BRANCH   3  18
HETATM   18  C   UNL     1     -39.574 -50.253  12.694  1.00  0.00     0.128 C 
BRANCH  18  19
HETATM   19  C   UNL     1     -39.885 -49.831  11.261  1.00  0.00     0.076 C 
BRANCH  19  20
HETATM   20  C   UNL     1     -41.118 -48.966  11.192  1.00  0.00     0.010 A 
HETATM   21  C   UNL     1     -41.826 -48.642  12.348  1.00  0.00     0.025 A 
HETATM   22  C   UNL     1     -42.972 -47.857  12.239  1.00  0.00     0.003 A 
HETATM   23  C   UNL     1     -43.381 -47.421  10.985  1.00  0.00     0.017 A 
HETATM   24  C   UNL     1     -42.624 -47.790   9.887  1.00  0.00     0.088 A 
HETATM   25  N   UNL     1     -41.508 -48.550   9.962  1.00  0.00    -0.369 N 
ATOM     26  HN  UNL     1     -40.981 -48.801   9.127  1.00  0.00     0.165 HD
ENDBRANCH  19  20
ENDBRANCH  18  19
ENDBRANCH   3  18
TORSDOF 6
ENDMDL
MODEL 2
REMARK VINA RESULT:      -6.2      1.621      5.716
REMARK  6 active torsions:
REMARK  status: ('A' for Active; 'I' for Inactive)
REMARK    1  A    between atoms: C_2  and  C_3 
REMARK       I    between atoms: C_2  and  N_16 
REMARK    2  A    between atoms: C_3  and  C_4 
REMARK    3  A    between atoms: C_4  and  N_5 
REMARK    4  A    between atoms: N_16  and  C_17 
REMARK    5  A    between atoms: C_17  and  C_18 
REMARK    6  A    between atoms: C_18  and  C_19 
ROOT
HETATM    1  O   UNL     1     -41.387 -55.007  16.196  1.00  0.00    -0.274 OA
HETATM    2  C   UNL     1     -41.476 -54.437  15.114  1.00  0.00     0.219 C 
HETATM    3  N   UNL     1     -42.632 -54.434  14.356  1.00  0.00    -0.361 N 
HETATM    4  H   UNL     1     -42.574 -54.132  13.392  1.00  0.00     0.162 HD
ENDROOT
BRANCH   2   5
HETATM    5  C   UNL     1     -40.347 -53.620  14.520  1.00  0.00     0.123 C 
BRANCH   5   6
HETATM    6  C   UNL     1     -40.538 -53.439  13.015  1.00  0.00     0.144 C 
BRANCH   6   7
HETATM    7  N   UNL     1     -40.664 -52.036  12.648  1.00  0.00    -0.287 N 
HETATM    8  C   UNL     1     -41.865 -51.384  12.467  1.00  0.00     0.231 C 
HETATM    9  O   UNL     1     -42.985 -51.807  12.698  1.00  0.00    -0.273 OA
HETATM   10  C   UNL     1     -41.518 -50.055  11.846  1.00  0.00     0.091 C 
HETATM   11  C   UNL     1     -42.435 -48.860  12.013  1.00  0.00     0.015 C 
HETATM   12  C   UNL     1     -40.178 -49.793  12.513  1.00  0.00     0.091 C 
HETATM   13  C   UNL     1     -41.754 -47.624  11.399  1.00  0.00     0.001 C 
HETATM   14  C   UNL     1     -40.333 -47.394  11.936  1.00  0.00     0.001 C 
HETATM   15  C   UNL     1     -39.452 -48.650  11.840  1.00  0.00     0.015 C 
HETATM   16  C   UNL     1     -39.592 -51.179  12.520  1.00  0.00     0.231 C 
HETATM   17  O   UNL     1     -38.407 -51.456  12.529  1.00  0.00    -0.273 OA
ENDBRANCH   6   7
ENDBRANCH   5   6
ENDBRANCH   2   5
BRANCH   3  18
HETATM   18  C   UNL     1     -43.787 -55.222  14.773  1.00  0.00     0.128 C 
BRANCH  18  19
HETATM   19  C   UNL     1     -44.974 -55.075  13.825  1.00  0.00     0.076 C 
BRANCH  19  20
HETATM   20  C   UNL     1     -45.650 -53.737  13.986  1.00  0.00     0.010 A 
HETATM   21  C   UNL     1     -46.045 -53.285  15.244  1.00  0.00     0.025 A 
HETATM   22  C   UNL     1     -46.685 -52.052  15.346  1.00  0.00     0.003 A 
HETATM   23  C   UNL     1     -46.917 -51.308  14.196  1.00  0.00     0.017 A 
HETATM   24  C   UNL     1     -46.498 -51.830  12.986  1.00  0.00     0.088 A 
HETATM   25  N   UNL     1     -45.874 -53.023  12.855  1.00  0.00    -0.369 N 
ATOM     26  HN  UNL     1     -45.584 -53.372  11.942  1.00  0.00     0.165 HD
ENDBRANCH  19  20
ENDBRANCH  18  19
ENDBRANCH   3  18
TORSDOF 6
ENDMDL
MODEL 3
REMARK VINA RESULT:      -6.2      1.113      2.194
REMARK  6 active torsions:
REMARK  status: ('A' for Active; 'I' for Inactive)
REMARK    1  A    between atoms: C_2  and  C_3 
REMARK       I    between atoms: C_2  and  N_16 
REMARK    2  A    between atoms: C_3  and  C_4 
REMARK    3  A    between atoms: C_4  and  N_5 
REMARK    4  A    between atoms: N_16  and  C_17 
REMARK    5  A    between atoms: C_17  and  C_18 
REMARK    6  A    between atoms: C_18  and  C_19 
ROOT
HETATM    1  O   UNL     1     -38.249 -51.156  13.912  1.00  0.00    -0.274 OA
HETATM    2  C   UNL     1     -39.236 -51.631  13.362  1.00  0.00     0.219 C 
HETATM    3  N   UNL     1     -39.728 -51.162  12.158  1.00  0.00    -0.361 N 
HETATM    4  H   UNL     1     -40.654 -51.452  11.871  1.00  0.00     0.162 HD
ENDROOT
BRANCH   2   5
HETATM    5  C   UNL     1     -39.988 -52.826  13.911  1.00  0.00     0.123 C 
BRANCH   5   6
HETATM    6  C   UNL     1     -40.972 -53.373  12.878  1.00  0.00     0.144 C 
BRANCH   6   7
HETATM    7  N   UNL     1     -42.355 -53.133  13.265  1.00  0.00    -0.287 N 
HETATM    8  C   UNL     1     -43.128 -54.021  13.983  1.00  0.00     0.231 C 
HETATM    9  O   UNL     1     -42.773 -55.060  14.511  1.00  0.00    -0.273 OA
HETATM   10  C   UNL     1     -44.535 -53.482  13.919  1.00  0.00     0.091 C 
HETATM   11  C   UNL     1     -45.541 -53.815  15.001  1.00  0.00     0.015 C 
HETATM   12  C   UNL     1     -44.246 -51.990  13.901  1.00  0.00     0.091 C 
HETATM   13  C   UNL     1     -46.830 -53.014  14.742  1.00  0.00     0.001 C 
HETATM   14  C   UNL     1     -46.576 -51.508  14.573  1.00  0.00     0.001 C 
HETATM   15  C   UNL     1     -45.484 -51.203  13.535  1.00  0.00     0.015 C 
HETATM   16  C   UNL     1     -43.023 -51.950  13.026  1.00  0.00     0.231 C 
HETATM   17  O   UNL     1     -42.657 -51.008  12.347  1.00  0.00    -0.273 OA
ENDBRANCH   6   7
ENDBRANCH   5   6
ENDBRANCH   2   5
BRANCH   3  18
HETATM   18  C   UNL     1     -39.141 -49.981  11.534  1.00  0.00     0.128 C 
BRANCH  18  19
HETATM   19  C   UNL     1     -39.572 -48.682  12.208  1.00  0.00     0.076 C 
BRANCH  19  20
HETATM   20  C   UNL     1     -40.558 -47.918  11.361  1.00  0.00     0.010 A 
HETATM   21  C   UNL     1     -40.474 -46.532  11.246  1.00  0.00     0.025 A 
HETATM   22  C   UNL     1     -41.418 -45.862  10.470  1.00  0.00     0.003 A 
HETATM   23  C   UNL     1     -42.418 -46.589   9.836  1.00  0.00     0.017 A 
HETATM   24  C   UNL     1     -42.433 -47.962  10.006  1.00  0.00     0.088 A 
HETATM   25  N   UNL     1     -41.532 -48.639  10.751  1.00  0.00    -0.369 N 
ATOM     26  HN  UNL     1     -41.581 -49.653  10.852  1.00  0.00     0.165 HD
ENDBRANCH  19  20
ENDBRANCH  18  19
ENDBRANCH   3  18
TORSDOF 6
ENDMDL
MODEL 4
REMARK VINA RESULT:      -6.2      1.785      4.191
REMARK  6 active torsions:
REMARK  status: ('A' for Active; 'I' for Inactive)
REMARK    1  A    between atoms: C_2  and  C_3 
REMARK       I    between atoms: C_2  and  N_16 
REMARK    2  A    between atoms: C_3  and  C_4 
REMARK    3  A    between atoms: C_4  and  N_5 
REMARK    4  A    between atoms: N_16  and  C_17 
REMARK    5  A    between atoms: C_17  and  C_18 
REMARK    6  A    between atoms: C_18  and  C_19 
ROOT
HETATM    1  O   UNL     1     -43.850 -50.481  14.742  1.00  0.00    -0.274 OA
HETATM    2  C   UNL     1     -44.201 -50.819  13.617  1.00  0.00     0.219 C 
HETATM    3  N   UNL     1     -43.750 -50.200  12.467  1.00  0.00    -0.361 N 
HETATM    4  H   UNL     1     -44.234 -50.386  11.599  1.00  0.00     0.162 HD
ENDROOT
BRANCH   2   5
HETATM    5  C   UNL     1     -45.120 -51.997  13.363  1.00  0.00     0.123 C 
BRANCH   5   6
HETATM    6  C   UNL     1     -44.409 -53.078  12.551  1.00  0.00     0.144 C 
BRANCH   6   7
HETATM    7  N   UNL     1     -43.231 -53.588  13.238  1.00  0.00    -0.287 N 
HETATM    8  C   UNL     1     -41.933 -53.287  12.884  1.00  0.00     0.231 C 
HETATM    9  O   UNL     1     -41.555 -52.477  12.056  1.00  0.00    -0.273 OA
HETATM   10  C   UNL     1     -41.065 -54.228  13.681  1.00  0.00     0.091 C 
HETATM   11  C   UNL     1     -39.633 -53.863  14.016  1.00  0.00     0.015 C 
HETATM   12  C   UNL     1     -41.894 -54.343  14.949  1.00  0.00     0.091 C 
HETATM   13  C   UNL     1     -39.053 -54.940  14.949  1.00  0.00     0.001 C 
HETATM   14  C   UNL     1     -39.931 -55.200  16.184  1.00  0.00     0.001 C 
HETATM   15  C   UNL     1     -41.399 -55.476  15.820  1.00  0.00     0.015 C 
HETATM   16  C   UNL     1     -43.285 -54.366  14.374  1.00  0.00     0.231 C 
HETATM   17  O   UNL     1     -44.265 -54.874  14.888  1.00  0.00    -0.273 OA
ENDBRANCH   6   7
ENDBRANCH   5   6
ENDBRANCH   2   5
BRANCH   3  18
HETATM   18  C   UNL     1     -42.901 -49.017  12.554  1.00  0.00     0.128 C 
BRANCH  18  19
HETATM   19  C   UNL     1     -41.946 -48.888  11.370  1.00  0.00     0.076 C 
BRANCH  19  20
HETATM   20  C   UNL     1     -40.510 -49.065  11.793  1.00  0.00     0.010 A 
HETATM   21  C   UNL     1     -39.976 -48.310  12.835  1.00  0.00     0.025 A 
HETATM   22  C   UNL     1     -38.638 -48.490  13.181  1.00  0.00     0.003 A 
HETATM   23  C   UNL     1     -37.872 -49.411  12.479  1.00  0.00     0.017 A 
HETATM   24  C   UNL     1     -38.477 -50.118  11.455  1.00  0.00     0.088 A 
HETATM   25  N   UNL     1     -39.772 -49.965  11.097  1.00  0.00    -0.369 N 
ATOM     26  HN  UNL     1     -40.178 -50.506  10.334  1.00  0.00     0.165 HD
ENDBRANCH  19  20
ENDBRANCH  18  19
ENDBRANCH   3  18
TORSDOF 6
ENDMDL
MODEL 5
REMARK VINA RESULT:      -6.2      2.072      6.033
REMARK  6 active torsions:
REMARK  status: ('A' for Active; 'I' for Inactive)
REMARK    1  A    between atoms: C_2  and  C_3 
REMARK       I    between atoms: C_2  and  N_16 
REMARK    2  A    between atoms: C_3  and  C_4 
REMARK    3  A    between atoms: C_4  and  N_5 
REMARK    4  A    between atoms: N_16  and  C_17 
REMARK    5  A    between atoms: C_17  and  C_18 
REMARK    6  A    between atoms: C_18  and  C_19 
ROOT
HETATM    1  O   UNL     1     -42.899 -53.895  14.580  1.00  0.00    -0.274 OA
HETATM    2  C   UNL     1     -42.566 -53.657  13.424  1.00  0.00     0.219 C 
HETATM    3  N   UNL     1     -43.472 -53.358  12.424  1.00  0.00    -0.361 N 
HETATM    4  H   UNL     1     -43.154 -53.381  11.464  1.00  0.00     0.162 HD
ENDROOT
BRANCH   2   5
HETATM    5  C   UNL     1     -41.119 -53.602  12.980  1.00  0.00     0.123 C 
BRANCH   5   6
HETATM    6  C   UNL     1     -40.925 -52.563  11.878  1.00  0.00     0.144 C 
BRANCH   6   7
HETATM    7  N   UNL     1     -40.490 -51.279  12.411  1.00  0.00    -0.287 N 
HETATM    8  C   UNL     1     -39.178 -50.951  12.677  1.00  0.00     0.231 C 
HETATM    9  O   UNL     1     -38.179 -51.594  12.405  1.00  0.00    -0.273 OA
HETATM   10  C   UNL     1     -39.230 -49.657  13.449  1.00  0.00     0.091 C 
HETATM   11  C   UNL     1     -38.056 -48.699  13.433  1.00  0.00     0.015 C 
HETATM   12  C   UNL     1     -40.449 -49.015  12.809  1.00  0.00     0.091 C 
HETATM   13  C   UNL     1     -38.454 -47.416  14.185  1.00  0.00     0.001 C 
HETATM   14  C   UNL     1     -39.764 -46.801  13.668  1.00  0.00     0.001 C 
HETATM   15  C   UNL     1     -40.914 -47.819  13.608  1.00  0.00     0.015 C 
HETATM   16  C   UNL     1     -41.339 -50.216  12.632  1.00  0.00     0.231 C 
HETATM   17  O   UNL     1     -42.555 -50.205  12.582  1.00  0.00    -0.273 OA
ENDBRANCH   6   7
ENDBRANCH   5   6
ENDBRANCH   2   5
BRANCH   3  18
HETATM   18  C   UNL     1     -44.906 -53.423  12.687  1.00  0.00     0.128 C 
BRANCH  18  19
HETATM   19  C   UNL     1     -45.554 -52.044  12.766  1.00  0.00     0.076 C 
BRANCH  19  20
HETATM   20  C   UNL     1     -45.683 -51.573  14.192  1.00  0.00     0.010 A 
HETATM   21  C   UNL     1     -46.905 -51.646  14.859  1.00  0.00     0.025 A 
HETATM   22  C   UNL     1     -46.986 -51.181  16.170  1.00  0.00     0.003 A 
HETATM   23  C   UNL     1     -45.853 -50.653  16.776  1.00  0.00     0.017 A 
HETATM   24  C   UNL     1     -44.680 -50.613  16.043  1.00  0.00     0.088 A 
HETATM   25  N   UNL     1     -44.571 -51.057  14.771  1.00  0.00    -0.369 N 
ATOM     26  HN  UNL     1     -43.687 -51.006  14.266  1.00  0.00     0.165 HD
ENDBRANCH  19  20
ENDBRANCH  18  19
ENDBRANCH   3  18
TORSDOF 6
ENDMDL
MODEL 6
REMARK VINA RESULT:      -6.2      1.670      2.751
REMARK  6 active torsions:
REMARK  status: ('A' for Active; 'I' for Inactive)
REMARK    1  A    between atoms: C_2  and  C_3 
REMARK       I    between atoms: C_2  and  N_16 
REMARK    2  A    between atoms: C_3  and  C_4 
REMARK    3  A    between atoms: C_4  and  N_5 
REMARK    4  A    between atoms: N_16  and  C_17 
REMARK    5  A    between atoms: C_17  and  C_18 
REMARK    6  A    between atoms: C_18  and  C_19 
ROOT
HETATM    1  O   UNL     1     -38.517 -49.940  15.316  1.00  0.00    -0.274 OA
HETATM    2  C   UNL     1     -38.504 -51.044  14.781  1.00  0.00     0.219 C 
HETATM    3  N   UNL     1     -37.977 -51.267  13.523  1.00  0.00    -0.361 N 
HETATM    4  H   UNL     1     -38.186 -52.143  13.062  1.00  0.00     0.162 HD
ENDROOT
BRANCH   2   5
HETATM    5  C   UNL     1     -39.006 -52.297  15.470  1.00  0.00     0.123 C 
BRANCH   5   6
HETATM    6  C   UNL     1     -39.207 -53.429  14.464  1.00  0.00     0.144 C 
BRANCH   6   7
HETATM    7  N   UNL     1     -40.615 -53.643  14.162  1.00  0.00    -0.287 N 
HETATM    8  C   UNL     1     -41.448 -54.474  14.880  1.00  0.00     0.231 C 
HETATM    9  O   UNL     1     -41.204 -55.051  15.926  1.00  0.00    -0.273 OA
HETATM   10  C   UNL     1     -42.711 -54.591  14.065  1.00  0.00     0.091 C 
HETATM   11  C   UNL     1     -44.032 -54.919  14.729  1.00  0.00     0.015 C 
HETATM   12  C   UNL     1     -42.755 -53.204  13.447  1.00  0.00     0.091 C 
HETATM   13  C   UNL     1     -45.151 -54.828  13.675  1.00  0.00     0.001 C 
HETATM   14  C   UNL     1     -45.153 -53.492  12.916  1.00  0.00     0.001 C 
HETATM   15  C   UNL     1     -43.775 -53.139  12.332  1.00  0.00     0.015 C 
HETATM   16  C   UNL     1     -41.295 -52.972  13.167  1.00  0.00     0.231 C 
HETATM   17  O   UNL     1     -40.836 -52.244  12.307  1.00  0.00    -0.273 OA
ENDBRANCH   6   7
ENDBRANCH   5   6
ENDBRANCH   2   5
BRANCH   3  18
HETATM   18  C   UNL     1     -37.504 -50.148  12.715  1.00  0.00     0.128 C 
BRANCH  18  19
HETATM   19  C   UNL     1     -38.244 -50.026  11.387  1.00  0.00     0.076 C 
BRANCH  19  20
HETATM   20  C   UNL     1     -39.454 -49.134  11.505  1.00  0.00     0.010 A 
HETATM   21  C   UNL     1     -39.440 -48.022  12.345  1.00  0.00     0.025 A 
HETATM   22  C   UNL     1     -40.586 -47.236  12.441  1.00  0.00     0.003 A 
HETATM   23  C   UNL     1     -41.712 -47.581  11.704  1.00  0.00     0.017 A 
HETATM   24  C   UNL     1     -41.645 -48.703  10.898  1.00  0.00     0.088 A 
HETATM   25  N   UNL     1     -40.548 -49.485  10.784  1.00  0.00    -0.369 N 
ATOM     26  HN  UNL     1     -40.542 -50.306  10.179  1.00  0.00     0.165 HD
ENDBRANCH  19  20
ENDBRANCH  18  19
ENDBRANCH   3  18
TORSDOF 6
ENDMDL
MODEL 7
REMARK VINA RESULT:      -6.1      2.154      2.505
REMARK  6 active torsions:
REMARK  status: ('A' for Active; 'I' for Inactive)
REMARK    1  A    between atoms: C_2  and  C_3 
REMARK       I    between atoms: C_2  and  N_16 
REMARK    2  A    between atoms: C_3  and  C_4 
REMARK    3  A    between atoms: C_4  and  N_5 
REMARK    4  A    between atoms: N_16  and  C_17 
REMARK    5  A    between atoms: C_17  and  C_18 
REMARK    6  A    between atoms: C_18  and  C_19 
ROOT
HETATM    1  O   UNL     1     -38.764 -49.456  14.941  1.00  0.00    -0.274 OA
HETATM    2  C   UNL     1     -38.789 -50.516  14.326  1.00  0.00     0.219 C 
HETATM    3  N   UNL     1     -38.595 -50.601  12.960  1.00  0.00    -0.361 N 
HETATM    4  H   UNL     1     -38.837 -51.465  12.492  1.00  0.00     0.162 HD
ENDROOT
BRANCH   2   5
HETATM    5  C   UNL     1     -38.973 -51.857  15.007  1.00  0.00     0.123 C 
BRANCH   5   6
HETATM    6  C   UNL     1     -39.254 -52.955  13.982  1.00  0.00     0.144 C 
BRANCH   6   7
HETATM    7  N   UNL     1     -40.674 -53.265  13.892  1.00  0.00    -0.287 N 
HETATM    8  C   UNL     1     -41.526 -52.739  12.945  1.00  0.00     0.231 C 
HETATM    9  O   UNL     1     -41.237 -52.055  11.979  1.00  0.00    -0.273 OA
HETATM   10  C   UNL     1     -42.916 -53.119  13.392  1.00  0.00     0.091 C 
HETATM   11  C   UNL     1     -44.045 -53.237  12.389  1.00  0.00     0.015 C 
HETATM   12  C   UNL     1     -42.629 -54.466  14.032  1.00  0.00     0.091 C 
HETATM   13  C   UNL     1     -45.294 -53.774  13.112  1.00  0.00     0.001 C 
HETATM   14  C   UNL     1     -45.023 -55.067  13.896  1.00  0.00     0.001 C 
HETATM   15  C   UNL     1     -43.814 -54.947  14.838  1.00  0.00     0.015 C 
HETATM   16  C   UNL     1     -41.308 -54.187  14.697  1.00  0.00     0.231 C 
HETATM   17  O   UNL     1     -40.864 -54.757  15.677  1.00  0.00    -0.273 OA
ENDBRANCH   6   7
ENDBRANCH   5   6
ENDBRANCH   2   5
BRANCH   3  18
HETATM   18  C   UNL     1     -38.458 -49.389  12.160  1.00  0.00     0.128 C 
BRANCH  18  19
HETATM   19  C   UNL     1     -39.803 -48.813  11.727  1.00  0.00     0.076 C 
BRANCH  19  20
HETATM   20  C   UNL     1     -39.789 -47.306  11.730  1.00  0.00     0.010 A 
HETATM   21  C   UNL     1     -39.560 -46.597  12.908  1.00  0.00     0.025 A 
HETATM   22  C   UNL     1     -39.576 -45.205  12.871  1.00  0.00     0.003 A 
HETATM   23  C   UNL     1     -39.822 -44.559  11.666  1.00  0.00     0.017 A 
HETATM   24  C   UNL     1     -40.044 -45.336  10.543  1.00  0.00     0.088 A 
HETATM   25  N   UNL     1     -40.035 -46.687  10.548  1.00  0.00    -0.369 N 
ATOM     26  HN  UNL     1     -40.206 -47.222   9.697  1.00  0.00     0.165 HD
ENDBRANCH  19  20
ENDBRANCH  18  19
ENDBRANCH   3  18
TORSDOF 6
ENDMDL
MODEL 8
REMARK VINA RESULT:      -6.0      1.812      6.061
REMARK  6 active torsions:
REMARK  status: ('A' for Active; 'I' for Inactive)
REMARK    1  A    between atoms: C_2  and  C_3 
REMARK       I    between atoms: C_2  and  N_16 
REMARK    2  A    between atoms: C_3  and  C_4 
REMARK    3  A    between atoms: C_4  and  N_5 
REMARK    4  A    between atoms: N_16  and  C_17 
REMARK    5  A    between atoms: C_17  and  C_18 
REMARK    6  A    between atoms: C_18  and  C_19 
ROOT
HETATM    1  O   UNL     1     -39.810 -54.176  13.255  1.00  0.00    -0.274 OA
HETATM    2  C   UNL     1     -40.301 -53.065  13.421  1.00  0.00     0.219 C 
HETATM    3  N   UNL     1     -41.607 -52.870  13.831  1.00  0.00    -0.361 N 
HETATM    4  H   UNL     1     -42.006 -51.944  13.744  1.00  0.00     0.162 HD
ENDROOT
BRANCH   2   5
HETATM    5  C   UNL     1     -39.510 -51.783  13.256  1.00  0.00     0.123 C 
BRANCH   5   6
HETATM    6  C   UNL     1     -40.206 -50.618  13.956  1.00  0.00     0.144 C 
BRANCH   6   7
HETATM    7  N   UNL     1     -40.651 -49.603  13.012  1.00  0.00    -0.287 N 
HETATM    8  C   UNL     1     -41.904 -49.571  12.438  1.00  0.00     0.231 C 
HETATM    9  O   UNL     1     -42.864 -50.274  12.703  1.00  0.00    -0.273 OA
HETATM   10  C   UNL     1     -41.828 -48.530  11.350  1.00  0.00     0.091 C 
HETATM   11  C   UNL     1     -43.073 -47.802  10.887  1.00  0.00     0.015 C 
HETATM   12  C   UNL     1     -40.848 -47.557  11.983  1.00  0.00     0.091 C 
HETATM   13  C   UNL     1     -42.663 -46.710   9.881  1.00  0.00     0.001 C 
HETATM   14  C   UNL     1     -41.566 -45.780  10.422  1.00  0.00     0.001 C 
HETATM   15  C   UNL     1     -40.353 -46.549  10.970  1.00  0.00     0.015 C 
HETATM   16  C   UNL     1     -39.893 -48.511  12.648  1.00  0.00     0.231 C 
HETATM   17  O   UNL     1     -38.723 -48.293  12.905  1.00  0.00    -0.273 OA
ENDBRANCH   6   7
ENDBRANCH   5   6
ENDBRANCH   2   5
BRANCH   3  18
HETATM   18  C   UNL     1     -42.508 -54.008  13.980  1.00  0.00     0.128 C 
BRANCH  18  19
HETATM   19  C   UNL     1     -43.713 -53.931  13.046  1.00  0.00     0.076 C 
BRANCH  19  20
HETATM   20  C   UNL     1     -44.806 -53.067  13.620  1.00  0.00     0.010 A 
HETATM   21  C   UNL     1     -45.671 -52.363  12.783  1.00  0.00     0.025 A 
HETATM   22  C   UNL     1     -46.655 -51.559  13.355  1.00  0.00     0.003 A 
HETATM   23  C   UNL     1     -46.747 -51.475  14.738  1.00  0.00     0.017 A 
HETATM   24  C   UNL     1     -45.847 -52.201  15.497  1.00  0.00     0.088 A 
HETATM   25  N   UNL     1     -44.882 -52.990  14.972  1.00  0.00    -0.369 N 
ATOM     26  HN  UNL     1     -44.237 -53.507  15.568  1.00  0.00     0.165 HD
ENDBRANCH  19  20
ENDBRANCH  18  19
ENDBRANCH   3  18
TORSDOF 6
ENDMDL
MODEL 9
REMARK VINA RESULT:      -5.9      2.508      6.166
REMARK  6 active torsions:
REMARK  status: ('A' for Active; 'I' for Inactive)
REMARK    1  A    between atoms: C_2  and  C_3 
REMARK       I    between atoms: C_2  and  N_16 
REMARK    2  A    between atoms: C_3  and  C_4 
REMARK    3  A    between atoms: C_4  and  N_5 
REMARK    4  A    between atoms: N_16  and  C_17 
REMARK    5  A    between atoms: C_17  and  C_18 
REMARK    6  A    between atoms: C_18  and  C_19 
ROOT
HETATM    1  O   UNL     1     -44.124 -50.203  14.292  1.00  0.00    -0.274 OA
HETATM    2  C   UNL     1     -43.847 -50.887  13.313  1.00  0.00     0.219 C 
HETATM    3  N   UNL     1     -44.798 -51.553  12.564  1.00  0.00    -0.361 N 
HETATM    4  H   UNL     1     -44.487 -52.259  11.909  1.00  0.00     0.162 HD
ENDROOT
BRANCH   2   5
HETATM    5  C   UNL     1     -42.435 -51.023  12.779  1.00  0.00     0.123 C 
BRANCH   5   6
HETATM    6  C   UNL     1     -42.151 -52.462  12.351  1.00  0.00     0.144 C 
BRANCH   6   7
HETATM    7  N   UNL     1     -41.645 -53.268  13.453  1.00  0.00    -0.287 N 
HETATM    8  C   UNL     1     -42.434 -54.044  14.276  1.00  0.00     0.231 C 
HETATM    9  O   UNL     1     -43.622 -54.288  14.156  1.00  0.00    -0.273 OA
HETATM   10  C   UNL     1     -41.540 -54.472  15.412  1.00  0.00     0.091 C 
HETATM   11  C   UNL     1     -41.829 -55.742  16.186  1.00  0.00     0.015 C 
HETATM   12  C   UNL     1     -40.215 -54.588  14.677  1.00  0.00     0.091 C 
HETATM   13  C   UNL     1     -40.677 -55.990  17.177  1.00  0.00     0.001 C 
HETATM   14  C   UNL     1     -39.295 -55.975  16.505  1.00  0.00     0.001 C 
HETATM   15  C   UNL     1     -39.065 -54.718  15.650  1.00  0.00     0.015 C 
HETATM   16  C   UNL     1     -40.306 -53.408  13.747  1.00  0.00     0.231 C 
HETATM   17  O   UNL     1     -39.367 -52.796  13.272  1.00  0.00    -0.273 OA
ENDBRANCH   6   7
ENDBRANCH   5   6
ENDBRANCH   2   5
BRANCH   3  18
HETATM   18  C   UNL     1     -46.195 -51.559  12.986  1.00  0.00     0.128 C 
BRANCH  18  19
HETATM   19  C   UNL     1     -46.577 -52.828  13.743  1.00  0.00     0.076 C 
BRANCH  19  20
HETATM   20  C   UNL     1     -46.631 -52.592  15.231  1.00  0.00     0.010 A 
HETATM   21  C   UNL     1     -47.304 -51.489  15.753  1.00  0.00     0.025 A 
HETATM   22  C   UNL     1     -47.313 -51.296  17.133  1.00  0.00     0.003 A 
HETATM   23  C   UNL     1     -46.649 -52.202  17.951  1.00  0.00     0.017 A 
HETATM   24  C   UNL     1     -46.001 -53.268  17.352  1.00  0.00     0.088 A 
HETATM   25  N   UNL     1     -45.976 -53.481  16.018  1.00  0.00    -0.369 N 
ATOM     26  HN  UNL     1     -45.484 -54.279  15.617  1.00  0.00     0.165 HD
ENDBRANCH  19  20
ENDBRANCH  18  19
ENDBRANCH   3  18
TORSDOF 6
ENDMDL
