MODEL 1
REMARK VINA RESULT:      -6.0      0.000      0.000
REMARK  6 active torsions:
REMARK  status: ('A' for Active; 'I' for Inactive)
REMARK    1  A    between atoms: C_2  and  C_3 
REMARK       I    between atoms: C_2  and  N_13 
REMARK    2  A    between atoms: C_3  and  N_4 
REMARK    3  A    between atoms: N_4  and  C_5 
REMARK    4  A    between atoms: C_5  and  C_6 
REMARK    5  A    between atoms: C_6  and  N_7 
REMARK    6  A    between atoms: N_13  and  C_14 
ROOT
HETATM    1  C   UNL     1     -44.132 -53.547  13.935  1.00  0.00     0.122 C 
HETATM    2  C   UNL     1     -45.526 -53.773  13.301  1.00  0.00     0.046 C 
HETATM    3  C   UNL     1     -46.137 -52.491  12.734  1.00  0.00     0.004 C 
HETATM    4  C   UNL     1     -46.215 -51.390  13.785  1.00  0.00     0.000 C 
HETATM    5  C   UNL     1     -44.849 -51.114  14.399  1.00  0.00     0.004 C 
HETATM    6  C   UNL     1     -44.220 -52.389  14.967  1.00  0.00     0.046 C 
HETATM    7  C   UNL     1     -43.720 -54.772  14.683  1.00  0.00     0.091 C 
HETATM    8  N   UNL     1     -43.401 -55.694  15.313  1.00  0.00    -0.195 NA
ENDROOT
BRANCH   1   9
HETATM    9  N   UNL     1     -43.117 -53.187  12.922  1.00  0.00    -0.338 N 
HETATM   10  C   UNL     1     -41.785 -52.990  13.207  1.00  0.00     0.247 C 
HETATM   11  O   UNL     1     -41.311 -53.082  14.336  1.00  0.00    -0.272 OA
HETATM   12  H   UNL     1     -43.397 -53.207  11.950  1.00  0.00     0.164 HD
BRANCH  10  13
HETATM   13  C   UNL     1     -40.928 -52.648  11.980  1.00  0.00     0.371 C 
BRANCH  13  14
HETATM   14  N   UNL     1     -41.369 -51.400  11.328  1.00  0.00     0.093 N 
HETATM   15  H   UNL     1     -42.357 -51.531  11.081  1.00  0.00     0.316 HD
BRANCH  14  16
HETATM   16  C   UNL     1     -41.287 -50.215  12.202  1.00  0.00     0.291 C 
BRANCH  16  17
HETATM   17  C   UNL     1     -40.918 -48.914  11.482  1.00  0.00     0.178 C 
BRANCH  17  18
HETATM   18  N   UNL     1     -42.052 -48.334  10.788  1.00  0.00    -0.302 N 
HETATM   19  C   UNL     1     -43.229 -47.912  11.337  1.00  0.00     0.111 A 
HETATM   20  C   UNL     1     -43.988 -47.440  10.294  1.00  0.00     0.037 A 
HETATM   21  C   UNL     1     -43.190 -47.635   9.155  1.00  0.00     0.108 A 
HETATM   22  N   UNL     1     -42.008 -48.185   9.449  1.00  0.00    -0.310 N 
ATOM     23  HN  UNL     1     -41.252 -48.432   8.811  1.00  0.00     0.186 HD
ENDBRANCH  17  18
ENDBRANCH  16  17
ENDBRANCH  14  16
ENDBRANCH  13  14
ENDBRANCH  10  13
ENDBRANCH   1   9
TORSDOF 6
ENDMDL
MODEL 2
REMARK VINA RESULT:      -5.9      2.372      3.400
REMARK  6 active torsions:
REMARK  status: ('A' for Active; 'I' for Inactive)
REMARK    1  A    between atoms: C_2  and  C_3 
REMARK       I    between atoms: C_2  and  N_13 
REMARK    2  A    between atoms: C_3  and  N_4 
REMARK    3  A    between atoms: N_4  and  C_5 
REMARK    4  A    between atoms: C_5  and  C_6 
REMARK    5  A    between atoms: C_6  and  N_7 
REMARK    6  A    between atoms: N_13  and  C_14 
ROOT
HETATM    1  C   UNL     1     -45.590 -53.531  14.615  1.00  0.00     0.122 C 
HETATM    2  C   UNL     1     -46.718 -52.677  13.986  1.00  0.00     0.046 C 
HETATM    3  C   UNL     1     -46.827 -51.284  14.605  1.00  0.00     0.004 C 
HETATM    4  C   UNL     1     -47.006 -51.350  16.117  1.00  0.00     0.000 C 
HETATM    5  C   UNL     1     -45.886 -52.149  16.771  1.00  0.00     0.004 C 
HETATM    6  C   UNL     1     -45.761 -53.546  16.160  1.00  0.00     0.046 C 
HETATM    7  C   UNL     1     -45.713 -54.943  14.145  1.00  0.00     0.091 C 
HETATM    8  N   UNL     1     -45.818 -56.058  13.835  1.00  0.00    -0.195 NA
ENDROOT
BRANCH   1   9
HETATM    9  N   UNL     1     -44.251 -52.991  14.303  1.00  0.00    -0.338 N 
HETATM   10  C   UNL     1     -43.717 -52.949  13.035  1.00  0.00     0.247 C 
HETATM   11  O   UNL     1     -44.298 -53.369  12.039  1.00  0.00    -0.272 OA
HETATM   12  H   UNL     1     -43.752 -52.517  15.045  1.00  0.00     0.164 HD
BRANCH  10  13
HETATM   13  C   UNL     1     -42.317 -52.320  12.968  1.00  0.00     0.371 C 
BRANCH  13  14
HETATM   14  N   UNL     1     -42.183 -51.390  11.830  1.00  0.00     0.093 N 
HETATM   15  H   UNL     1     -43.125 -51.262  11.442  1.00  0.00     0.316 HD
BRANCH  14  16
HETATM   16  C   UNL     1     -41.681 -50.057  12.211  1.00  0.00     0.291 C 
BRANCH  16  17
HETATM   17  C   UNL     1     -40.614 -49.483  11.272  1.00  0.00     0.178 C 
BRANCH  17  18
HETATM   18  N   UNL     1     -39.284 -49.952  11.609  1.00  0.00    -0.302 N 
HETATM   19  C   UNL     1     -38.880 -50.518  12.784  1.00  0.00     0.111 A 
HETATM   20  C   UNL     1     -37.543 -50.798  12.633  1.00  0.00     0.037 A 
HETATM   21  C   UNL     1     -37.230 -50.349  11.340  1.00  0.00     0.108 A 
HETATM   22  N   UNL     1     -38.287 -49.828  10.710  1.00  0.00    -0.310 N 
ATOM     23  HN  UNL     1     -38.329 -49.430   9.772  1.00  0.00     0.186 HD
ENDBRANCH  17  18
ENDBRANCH  16  17
ENDBRANCH  14  16
ENDBRANCH  13  14
ENDBRANCH  10  13
ENDBRANCH   1   9
TORSDOF 6
ENDMDL
MODEL 3
REMARK VINA RESULT:      -5.8      1.603      2.121
REMARK  6 active torsions:
REMARK  status: ('A' for Active; 'I' for Inactive)
REMARK    1  A    between atoms: C_2  and  C_3 
REMARK       I    between atoms: C_2  and  N_13 
REMARK    2  A    between atoms: C_3  and  N_4 
REMARK    3  A    between atoms: N_4  and  C_5 
REMARK    4  A    between atoms: C_5  and  C_6 
REMARK    5  A    between atoms: C_6  and  N_7 
REMARK    6  A    between atoms: N_13  and  C_14 
ROOT
HETATM    1  C   UNL     1     -44.239 -52.201  13.473  1.00  0.00     0.122 C 
HETATM    2  C   UNL     1     -45.587 -52.579  12.813  1.00  0.00     0.046 C 
HETATM    3  C   UNL     1     -46.718 -51.616  13.174  1.00  0.00     0.004 C 
HETATM    4  C   UNL     1     -46.894 -51.494  14.683  1.00  0.00     0.000 C 
HETATM    5  C   UNL     1     -45.593 -51.081  15.360  1.00  0.00     0.004 C 
HETATM    6  C   UNL     1     -44.448 -52.032  15.003  1.00  0.00     0.046 C 
HETATM    7  C   UNL     1     -43.261 -53.314  13.283  1.00  0.00     0.091 C 
HETATM    8  N   UNL     1     -42.500 -54.187  13.193  1.00  0.00    -0.195 NA
ENDROOT
BRANCH   1   9
HETATM    9  N   UNL     1     -43.698 -50.934  12.938  1.00  0.00    -0.338 N 
HETATM   10  C   UNL     1     -42.508 -50.374  13.345  1.00  0.00     0.247 C 
HETATM   11  O   UNL     1     -41.784 -50.868  14.205  1.00  0.00    -0.272 OA
HETATM   12  H   UNL     1     -44.170 -50.522  12.143  1.00  0.00     0.164 HD
BRANCH  10  13
HETATM   13  C   UNL     1     -42.154 -49.067  12.622  1.00  0.00     0.371 C 
BRANCH  13  14
HETATM   14  N   UNL     1     -41.493 -49.314  11.326  1.00  0.00     0.093 N 
HETATM   15  H   UNL     1     -42.154 -49.856  10.758  1.00  0.00     0.316 HD
BRANCH  14  16
HETATM   16  C   UNL     1     -41.178 -48.082  10.578  1.00  0.00     0.291 C 
BRANCH  16  17
HETATM   17  C   UNL     1     -42.322 -47.065  10.508  1.00  0.00     0.178 C 
BRANCH  17  18
HETATM   18  N   UNL     1     -43.318 -47.433   9.521  1.00  0.00    -0.302 N 
HETATM   19  C   UNL     1     -44.676 -47.394   9.662  1.00  0.00     0.111 A 
HETATM   20  C   UNL     1     -45.196 -47.829   8.468  1.00  0.00     0.037 A 
HETATM   21  C   UNL     1     -44.074 -48.123   7.676  1.00  0.00     0.108 A 
HETATM   22  N   UNL     1     -42.924 -47.887   8.314  1.00  0.00    -0.310 N 
ATOM     23  HN  UNL     1     -41.974 -48.019   7.970  1.00  0.00     0.186 HD
ENDBRANCH  17  18
ENDBRANCH  16  17
ENDBRANCH  14  16
ENDBRANCH  13  14
ENDBRANCH  10  13
ENDBRANCH   1   9
TORSDOF 6
ENDMDL
MODEL 4
REMARK VINA RESULT:      -5.6      2.267      2.520
REMARK  6 active torsions:
REMARK  status: ('A' for Active; 'I' for Inactive)
REMARK    1  A    between atoms: C_2  and  C_3 
REMARK       I    between atoms: C_2  and  N_13 
REMARK    2  A    between atoms: C_3  and  N_4 
REMARK    3  A    between atoms: N_4  and  C_5 
REMARK    4  A    between atoms: C_5  and  C_6 
REMARK    5  A    between atoms: C_6  and  N_7 
REMARK    6  A    between atoms: N_13  and  C_14 
ROOT
HETATM    1  C   UNL     1     -43.824 -52.598  13.837  1.00  0.00     0.122 C 
HETATM    2  C   UNL     1     -44.885 -53.058  12.807  1.00  0.00     0.046 C 
HETATM    3  C   UNL     1     -45.984 -52.020  12.581  1.00  0.00     0.004 C 
HETATM    4  C   UNL     1     -46.663 -51.623  13.886  1.00  0.00     0.000 C 
HETATM    5  C   UNL     1     -45.649 -51.125  14.908  1.00  0.00     0.004 C 
HETATM    6  C   UNL     1     -44.538 -52.150  15.143  1.00  0.00     0.046 C 
HETATM    7  C   UNL     1     -42.941 -53.749  14.191  1.00  0.00     0.091 C 
HETATM    8  N   UNL     1     -42.274 -54.642  14.520  1.00  0.00    -0.195 NA
ENDROOT
BRANCH   1   9
HETATM    9  N   UNL     1     -43.024 -51.461  13.335  1.00  0.00    -0.338 N 
HETATM   10  C   UNL     1     -42.086 -51.567  12.333  1.00  0.00     0.247 C 
HETATM   11  O   UNL     1     -41.812 -52.621  11.767  1.00  0.00    -0.272 OA
HETATM   12  H   UNL     1     -43.268 -50.535  13.662  1.00  0.00     0.164 HD
BRANCH  10  13
HETATM   13  C   UNL     1     -41.405 -50.238  11.974  1.00  0.00     0.371 C 
BRANCH  13  14
HETATM   14  N   UNL     1     -42.366 -49.248  11.452  1.00  0.00     0.093 N 
HETATM   15  H   UNL     1     -42.788 -48.789  12.267  1.00  0.00     0.316 HD
BRANCH  14  16
HETATM   16  C   UNL     1     -41.742 -48.194  10.629  1.00  0.00     0.291 C 
BRANCH  16  17
HETATM   17  C   UNL     1     -42.365 -46.804  10.791  1.00  0.00     0.178 C 
BRANCH  17  18
HETATM   18  N   UNL     1     -41.373 -45.750  10.706  1.00  0.00    -0.302 N 
HETATM   19  C   UNL     1     -41.494 -44.463  11.146  1.00  0.00     0.111 A 
HETATM   20  C   UNL     1     -40.304 -43.844  10.850  1.00  0.00     0.037 A 
HETATM   21  C   UNL     1     -39.536 -44.835  10.217  1.00  0.00     0.108 A 
HETATM   22  N   UNL     1     -40.183 -46.000  10.122  1.00  0.00    -0.310 N 
ATOM     23  HN  UNL     1     -39.856 -46.872   9.707  1.00  0.00     0.186 HD
ENDBRANCH  17  18
ENDBRANCH  16  17
ENDBRANCH  14  16
ENDBRANCH  13  14
ENDBRANCH  10  13
ENDBRANCH   1   9
TORSDOF 6
ENDMDL
MODEL 5
REMARK VINA RESULT:      -5.4      2.428      4.333
REMARK  6 active torsions:
REMARK  status: ('A' for Active; 'I' for Inactive)
REMARK    1  A    between atoms: C_2  and  C_3 
REMARK       I    between atoms: C_2  and  N_13 
REMARK    2  A    between atoms: C_3  and  N_4 
REMARK    3  A    between atoms: N_4  and  C_5 
REMARK    4  A    between atoms: C_5  and  C_6 
REMARK    5  A    between atoms: C_6  and  N_7 
REMARK    6  A    between atoms: N_13  and  C_14 
ROOT
HETATM    1  C   UNL     1     -42.593 -53.065  13.465  1.00  0.00     0.122 C 
HETATM    2  C   UNL     1     -42.627 -53.131  15.011  1.00  0.00     0.046 C 
HETATM    3  C   UNL     1     -41.280 -52.795  15.651  1.00  0.00     0.004 C 
HETATM    4  C   UNL     1     -40.163 -53.684  15.116  1.00  0.00     0.000 C 
HETATM    5  C   UNL     1     -40.077 -53.608  13.597  1.00  0.00     0.004 C 
HETATM    6  C   UNL     1     -41.419 -53.937  12.941  1.00  0.00     0.046 C 
HETATM    7  C   UNL     1     -43.854 -53.647  12.914  1.00  0.00     0.091 C 
HETATM    8  N   UNL     1     -44.802 -54.141  12.460  1.00  0.00    -0.195 NA
ENDROOT
BRANCH   1   9
HETATM    9  N   UNL     1     -42.398 -51.684  12.976  1.00  0.00    -0.338 N 
HETATM   10  C   UNL     1     -43.269 -50.649  13.231  1.00  0.00     0.247 C 
HETATM   11  O   UNL     1     -44.303 -50.776  13.881  1.00  0.00    -0.272 OA
HETATM   12  H   UNL     1     -41.515 -51.464  12.534  1.00  0.00     0.164 HD
BRANCH  10  13
HETATM   13  C   UNL     1     -42.833 -49.304  12.633  1.00  0.00     0.371 C 
BRANCH  13  14
HETATM   14  N   UNL     1     -42.242 -49.461  11.291  1.00  0.00     0.093 N 
HETATM   15  H   UNL     1     -42.922 -49.078  10.624  1.00  0.00     0.316 HD
BRANCH  14  16
HETATM   16  C   UNL     1     -40.981 -48.720  11.108  1.00  0.00     0.291 C 
BRANCH  16  17
HETATM   17  C   UNL     1     -40.101 -48.635  12.360  1.00  0.00     0.178 C 
BRANCH  17  18
HETATM   18  N   UNL     1     -38.965 -49.534  12.289  1.00  0.00    -0.302 N 
HETATM   19  C   UNL     1     -38.397 -50.231  13.316  1.00  0.00     0.111 A 
HETATM   20  C   UNL     1     -37.359 -50.942  12.766  1.00  0.00     0.037 A 
HETATM   21  C   UNL     1     -37.370 -50.595  11.406  1.00  0.00     0.108 A 
HETATM   22  N   UNL     1     -38.346 -49.732  11.108  1.00  0.00    -0.310 N 
ATOM     23  HN  UNL     1     -38.570 -49.322  10.202  1.00  0.00     0.186 HD
ENDBRANCH  17  18
ENDBRANCH  16  17
ENDBRANCH  14  16
ENDBRANCH  13  14
ENDBRANCH  10  13
ENDBRANCH   1   9
TORSDOF 6
ENDMDL
MODEL 6
REMARK VINA RESULT:      -5.3      2.394      6.345
REMARK  6 active torsions:
REMARK  status: ('A' for Active; 'I' for Inactive)
REMARK    1  A    between atoms: C_2  and  C_3 
REMARK       I    between atoms: C_2  and  N_13 
REMARK    2  A    between atoms: C_3  and  N_4 
REMARK    3  A    between atoms: N_4  and  C_5 
REMARK    4  A    between atoms: C_5  and  C_6 
REMARK    5  A    between atoms: C_6  and  N_7 
REMARK    6  A    between atoms: N_13  and  C_14 
ROOT
HETATM    1  C   UNL     1     -39.233 -49.285  12.312  1.00  0.00     0.122 C 
HETATM    2  C   UNL     1     -38.857 -49.246  13.814  1.00  0.00     0.046 C 
HETATM    3  C   UNL     1     -39.921 -48.566  14.676  1.00  0.00     0.004 C 
HETATM    4  C   UNL     1     -40.236 -47.160  14.181  1.00  0.00     0.000 C 
HETATM    5  C   UNL     1     -40.650 -47.170  12.715  1.00  0.00     0.004 C 
HETATM    6  C   UNL     1     -39.598 -47.852  11.838  1.00  0.00     0.046 C 
HETATM    7  C   UNL     1     -38.050 -49.725  11.514  1.00  0.00     0.091 C 
HETATM    8  N   UNL     1     -37.129 -50.015  10.868  1.00  0.00    -0.195 NA
ENDROOT
BRANCH   1   9
HETATM    9  N   UNL     1     -40.392 -50.166  12.057  1.00  0.00    -0.338 N 
HETATM   10  C   UNL     1     -40.408 -51.514  12.337  1.00  0.00     0.247 C 
HETATM   11  O   UNL     1     -39.453 -52.119  12.817  1.00  0.00    -0.272 OA
HETATM   12  H   UNL     1     -41.260 -49.729  11.775  1.00  0.00     0.164 HD
BRANCH  10  13
HETATM   13  C   UNL     1     -41.738 -52.205  12.003  1.00  0.00     0.371 C 
BRANCH  13  14
HETATM   14  N   UNL     1     -41.762 -53.608  12.459  1.00  0.00     0.093 N 
HETATM   15  H   UNL     1     -40.904 -53.755  13.002  1.00  0.00     0.316 HD
BRANCH  14  16
HETATM   16  C   UNL     1     -42.901 -53.924  13.341  1.00  0.00     0.291 C 
BRANCH  16  17
HETATM   17  C   UNL     1     -44.261 -53.969  12.638  1.00  0.00     0.178 C 
BRANCH  17  18
HETATM   18  N   UNL     1     -45.267 -53.203  13.347  1.00  0.00    -0.302 N 
HETATM   19  C   UNL     1     -45.344 -51.845  13.461  1.00  0.00     0.111 A 
HETATM   20  C   UNL     1     -46.461 -51.588  14.218  1.00  0.00     0.037 A 
HETATM   21  C   UNL     1     -46.980 -52.855  14.528  1.00  0.00     0.108 A 
HETATM   22  N   UNL     1     -46.255 -53.846  14.002  1.00  0.00    -0.310 N 
ATOM     23  HN  UNL     1     -46.411 -54.851  14.078  1.00  0.00     0.186 HD
ENDBRANCH  17  18
ENDBRANCH  16  17
ENDBRANCH  14  16
ENDBRANCH  13  14
ENDBRANCH  10  13
ENDBRANCH   1   9
TORSDOF 6
ENDMDL
MODEL 7
REMARK VINA RESULT:      -5.3      2.761      7.293
REMARK  6 active torsions:
REMARK  status: ('A' for Active; 'I' for Inactive)
REMARK    1  A    between atoms: C_2  and  C_3 
REMARK       I    between atoms: C_2  and  N_13 
REMARK    2  A    between atoms: C_3  and  N_4 
REMARK    3  A    between atoms: N_4  and  C_5 
REMARK    4  A    between atoms: C_5  and  C_6 
REMARK    5  A    between atoms: C_6  and  N_7 
REMARK    6  A    between atoms: N_13  and  C_14 
ROOT
HETATM    1  C   UNL     1     -41.223 -45.938  10.967  1.00  0.00     0.122 C 
HETATM    2  C   UNL     1     -40.262 -44.735  10.798  1.00  0.00     0.046 C 
HETATM    3  C   UNL     1     -39.369 -44.511  12.017  1.00  0.00     0.004 C 
HETATM    4  C   UNL     1     -40.186 -44.349  13.294  1.00  0.00     0.000 C 
HETATM    5  C   UNL     1     -41.113 -45.538  13.511  1.00  0.00     0.004 C 
HETATM    6  C   UNL     1     -42.011 -45.780  12.297  1.00  0.00     0.046 C 
HETATM    7  C   UNL     1     -42.225 -45.935   9.859  1.00  0.00     0.091 C 
HETATM    8  N   UNL     1     -43.045 -45.924   9.037  1.00  0.00    -0.195 NA
ENDROOT
BRANCH   1   9
HETATM    9  N   UNL     1     -40.496 -47.223  11.010  1.00  0.00    -0.338 N 
HETATM   10  C   UNL     1     -41.113 -48.453  11.061  1.00  0.00     0.247 C 
HETATM   11  O   UNL     1     -42.331 -48.601  11.088  1.00  0.00    -0.272 OA
HETATM   12  H   UNL     1     -39.494 -47.200  10.872  1.00  0.00     0.164 HD
BRANCH  10  13
HETATM   13  C   UNL     1     -40.138 -49.640  11.075  1.00  0.00     0.371 C 
BRANCH  13  14
HETATM   14  N   UNL     1     -40.844 -50.935  11.071  1.00  0.00     0.093 N 
HETATM   15  H   UNL     1     -40.360 -51.532  10.391  1.00  0.00     0.316 HD
BRANCH  14  16
HETATM   16  C   UNL     1     -40.811 -51.632  12.370  1.00  0.00     0.291 C 
BRANCH  16  17
HETATM   17  C   UNL     1     -42.044 -51.405  13.250  1.00  0.00     0.178 C 
BRANCH  17  18
HETATM   18  N   UNL     1     -42.919 -52.561  13.271  1.00  0.00    -0.302 N 
HETATM   19  C   UNL     1     -43.171 -53.387  14.328  1.00  0.00     0.111 A 
HETATM   20  C   UNL     1     -44.058 -54.331  13.872  1.00  0.00     0.037 A 
HETATM   21  C   UNL     1     -44.268 -53.999  12.523  1.00  0.00     0.108 A 
HETATM   22  N   UNL     1     -43.573 -52.922  12.149  1.00  0.00    -0.310 N 
ATOM     23  HN  UNL     1     -43.543 -52.478  11.231  1.00  0.00     0.186 HD
ENDBRANCH  17  18
ENDBRANCH  16  17
ENDBRANCH  14  16
ENDBRANCH  13  14
ENDBRANCH  10  13
ENDBRANCH   1   9
TORSDOF 6
ENDMDL
MODEL 8
REMARK VINA RESULT:      -5.2      2.494      3.250
REMARK  6 active torsions:
REMARK  status: ('A' for Active; 'I' for Inactive)
REMARK    1  A    between atoms: C_2  and  C_3 
REMARK       I    between atoms: C_2  and  N_13 
REMARK    2  A    between atoms: C_3  and  N_4 
REMARK    3  A    between atoms: N_4  and  C_5 
REMARK    4  A    between atoms: C_5  and  C_6 
REMARK    5  A    between atoms: C_6  and  N_7 
REMARK    6  A    between atoms: N_13  and  C_14 
ROOT
HETATM    1  C   UNL     1     -45.164 -53.342  15.346  1.00  0.00     0.122 C 
HETATM    2  C   UNL     1     -45.965 -53.903  14.145  1.00  0.00     0.046 C 
HETATM    3  C   UNL     1     -45.826 -53.049  12.885  1.00  0.00     0.004 C 
HETATM    4  C   UNL     1     -46.218 -51.598  13.141  1.00  0.00     0.000 C 
HETATM    5  C   UNL     1     -45.416 -51.003  14.292  1.00  0.00     0.004 C 
HETATM    6  C   UNL     1     -45.540 -51.850  15.559  1.00  0.00     0.046 C 
HETATM    7  C   UNL     1     -45.550 -54.076  16.588  1.00  0.00     0.091 C 
HETATM    8  N   UNL     1     -45.871 -54.597  17.576  1.00  0.00    -0.195 NA
ENDROOT
BRANCH   1   9
HETATM    9  N   UNL     1     -43.706 -53.425  15.122  1.00  0.00    -0.338 N 
HETATM   10  C   UNL     1     -43.015 -54.608  14.989  1.00  0.00     0.247 C 
HETATM   11  O   UNL     1     -43.544 -55.714  15.055  1.00  0.00    -0.272 OA
HETATM   12  H   UNL     1     -43.211 -52.562  14.937  1.00  0.00     0.164 HD
BRANCH  10  13
HETATM   13  C   UNL     1     -41.510 -54.428  14.741  1.00  0.00     0.371 C 
BRANCH  13  14
HETATM   14  N   UNL     1     -41.188 -53.071  14.259  1.00  0.00     0.093 N 
HETATM   15  H   UNL     1     -40.469 -52.699  14.889  1.00  0.00     0.316 HD
BRANCH  14  16
HETATM   16  C   UNL     1     -40.633 -53.045  12.893  1.00  0.00     0.291 C 
BRANCH  16  17
HETATM   17  C   UNL     1     -41.044 -51.826  12.059  1.00  0.00     0.178 C 
BRANCH  17  18
HETATM   18  N   UNL     1     -40.039 -50.781  12.092  1.00  0.00    -0.302 N 
HETATM   19  C   UNL     1     -38.768 -50.871  12.582  1.00  0.00     0.111 A 
HETATM   20  C   UNL     1     -38.198 -49.636  12.394  1.00  0.00     0.037 A 
HETATM   21  C   UNL     1     -39.209 -48.864  11.799  1.00  0.00     0.108 A 
HETATM   22  N   UNL     1     -40.337 -49.556  11.615  1.00  0.00    -0.310 N 
ATOM     23  HN  UNL     1     -41.216 -49.233  11.210  1.00  0.00     0.186 HD
ENDBRANCH  17  18
ENDBRANCH  16  17
ENDBRANCH  14  16
ENDBRANCH  13  14
ENDBRANCH  10  13
ENDBRANCH   1   9
TORSDOF 6
ENDMDL
MODEL 9
REMARK VINA RESULT:      -4.8      4.156      5.917
REMARK  6 active torsions:
REMARK  status: ('A' for Active; 'I' for Inactive)
REMARK    1  A    between atoms: C_2  and  C_3 
REMARK       I    between atoms: C_2  and  N_13 
REMARK    2  A    between atoms: C_3  and  N_4 
REMARK    3  A    between atoms: N_4  and  C_5 
REMARK    4  A    between atoms: C_5  and  C_6 
REMARK    5  A    between atoms: C_6  and  N_7 
REMARK    6  A    between atoms: N_13  and  C_14 
ROOT
HETATM    1  C   UNL     1     -38.540 -49.530  12.964  1.00  0.00     0.122 C 
HETATM    2  C   UNL     1     -38.613 -50.802  13.844  1.00  0.00     0.046 C 
HETATM    3  C   UNL     1     -39.166 -50.528  15.242  1.00  0.00     0.004 C 
HETATM    4  C   UNL     1     -38.373 -49.442  15.961  1.00  0.00     0.000 C 
HETATM    5  C   UNL     1     -38.320 -48.161  15.137  1.00  0.00     0.004 C 
HETATM    6  C   UNL     1     -37.773 -48.419  13.732  1.00  0.00     0.046 C 
HETATM    7  C   UNL     1     -37.762 -49.826  11.724  1.00  0.00     0.091 C 
HETATM    8  N   UNL     1     -37.118 -50.017  10.777  1.00  0.00    -0.195 NA
ENDROOT
BRANCH   1   9
HETATM    9  N   UNL     1     -39.884 -49.015  12.628  1.00  0.00    -0.338 N 
HETATM   10  C   UNL     1     -40.850 -49.754  11.982  1.00  0.00     0.247 C 
HETATM   11  O   UNL     1     -40.683 -50.913  11.611  1.00  0.00    -0.272 OA
HETATM   12  H   UNL     1     -40.147 -48.112  13.001  1.00  0.00     0.164 HD
BRANCH  10  13
HETATM   13  C   UNL     1     -42.171 -49.002  11.767  1.00  0.00     0.371 C 
BRANCH  13  14
HETATM   14  N   UNL     1     -42.338 -48.566  10.368  1.00  0.00     0.093 N 
HETATM   15  H   UNL     1     -42.763 -49.352   9.863  1.00  0.00     0.316 HD
BRANCH  14  16
HETATM   16  C   UNL     1     -43.237 -47.407  10.213  1.00  0.00     0.291 C 
BRANCH  16  17
HETATM   17  C   UNL     1     -42.533 -46.096   9.846  1.00  0.00     0.178 C 
BRANCH  17  18
HETATM   18  N   UNL     1     -41.562 -45.700  10.848  1.00  0.00    -0.302 N 
HETATM   19  C   UNL     1     -40.203 -45.678  10.719  1.00  0.00     0.111 A 
HETATM   20  C   UNL     1     -39.712 -45.233  11.922  1.00  0.00     0.037 A 
HETATM   21  C   UNL     1     -40.852 -45.030  12.718  1.00  0.00     0.108 A 
HETATM   22  N   UNL     1     -41.984 -45.317  12.070  1.00  0.00    -0.310 N 
ATOM     23  HN  UNL     1     -42.941 -45.259  12.417  1.00  0.00     0.186 HD
ENDBRANCH  17  18
ENDBRANCH  16  17
ENDBRANCH  14  16
ENDBRANCH  13  14
ENDBRANCH  10  13
ENDBRANCH   1   9
TORSDOF 6
ENDMDL
