MODEL 1
REMARK VINA RESULT:      -6.8      0.000      0.000
REMARK  8 active torsions:
REMARK  status: ('A' for Active; 'I' for Inactive)
REMARK    1  A    between atoms: C_2  and  C_3 
REMARK    2  A    between atoms: C_2  and  N_11 
REMARK    3  A    between atoms: C_3  and  N_4 
REMARK    4  A    between atoms: N_11  and  C_12 
REMARK    5  A    between atoms: C_12  and  C_13 
REMARK       I    between atoms: C_13  and  N_15 
REMARK    6  A    between atoms: N_15  and  C_16 
REMARK    7  A    between atoms: C_16  and  C_21 
REMARK    8  A    between atoms: C_21  and  N_22 
ROOT
HETATM    1  C   UNL     1     -41.212 -51.245  12.327  1.00  0.00     0.372 C 
ENDROOT
BRANCH   1   2
HETATM    2  N   UNL     1     -41.828 -50.296  11.378  1.00  0.00     0.098 N 
HETATM    3  H   UNL     1     -41.335 -50.404  10.486  1.00  0.00     0.317 HD
BRANCH   2   4
HETATM    4  C   UNL     1     -41.660 -48.889  11.820  1.00  0.00     0.236 C 
HETATM    5  C   UNL     1     -40.391 -48.858  12.679  1.00  0.00     0.044 C 
BRANCH   4   6
HETATM    6  C   UNL     1     -41.571 -47.915  10.632  1.00  0.00     0.183 C 
BRANCH   6   7
HETATM    7  N   UNL     1     -42.782 -47.824   9.847  1.00  0.00    -0.301 N 
HETATM    8  C   UNL     1     -44.028 -47.521  10.315  1.00  0.00     0.118 A 
HETATM    9  C   UNL     1     -44.846 -47.436   9.208  1.00  0.00    -0.028 A 
HETATM   10  C   UNL     1     -46.286 -47.106   9.165  1.00  0.00     0.051 C 
HETATM   11  C   UNL     1     -43.987 -47.721   8.122  1.00  0.00     0.115 A 
HETATM   12  N   UNL     1     -42.731 -47.960   8.509  1.00  0.00    -0.310 N 
ATOM     13  HN  UNL     1     -41.925 -48.190   7.928  1.00  0.00     0.186 HD
ENDBRANCH   6   7
ENDBRANCH   4   6
ENDBRANCH   2   4
ENDBRANCH   1   2
BRANCH   1  14
HETATM   14  C   UNL     1     -42.236 -52.300  12.736  1.00  0.00     0.247 C 
HETATM   15  O   UNL     1     -41.903 -53.351  13.272  1.00  0.00    -0.272 OA
HETATM   16  N   UNL     1     -43.553 -51.947  12.489  1.00  0.00    -0.339 N 
HETATM   17  H   UNL     1     -43.714 -50.999  12.164  1.00  0.00     0.164 HD
BRANCH  16  18
HETATM   18  C   UNL     1     -44.650 -52.798  12.935  1.00  0.00     0.104 C 
HETATM   19  C   UNL     1     -44.855 -52.656  14.466  1.00  0.00     0.045 C 
HETATM   20  C   UNL     1     -45.153 -54.046  15.020  1.00  0.00     0.004 C 
HETATM   21  C   UNL     1     -45.238 -54.962  13.813  1.00  0.00     0.004 C 
HETATM   22  C   UNL     1     -44.360 -54.292  12.760  1.00  0.00     0.045 C 
BRANCH  18  23
HETATM   23  C   UNL     1     -45.917 -52.397  12.198  1.00  0.00    -0.046 C 
BRANCH  23  24
HETATM   24  N   UNL     1     -46.969 -52.064  11.587  1.00  0.00    -0.367 N 
ATOM     25  HN2 UNL     1     -46.127 -52.349  12.087  1.00  0.00     0.165 HD
ATOM     26  HN1 UNL     1     -47.819 -51.794  11.093  1.00  0.00     0.165 HD
ENDBRANCH  23  24
ENDBRANCH  18  23
ENDBRANCH  16  18
ENDBRANCH   1  14
TORSDOF 8
ENDMDL
MODEL 2
REMARK VINA RESULT:      -6.7      1.222      1.964
REMARK  8 active torsions:
REMARK  status: ('A' for Active; 'I' for Inactive)
REMARK    1  A    between atoms: C_2  and  C_3 
REMARK    2  A    between atoms: C_2  and  N_11 
REMARK    3  A    between atoms: C_3  and  N_4 
REMARK    4  A    between atoms: N_11  and  C_12 
REMARK    5  A    between atoms: C_12  and  C_13 
REMARK       I    between atoms: C_13  and  N_15 
REMARK    6  A    between atoms: N_15  and  C_16 
REMARK    7  A    between atoms: C_16  and  C_21 
REMARK    8  A    between atoms: C_21  and  N_22 
ROOT
HETATM    1  C   UNL     1     -41.166 -50.811  12.022  1.00  0.00     0.372 C 
ENDROOT
BRANCH   1   2
HETATM    2  N   UNL     1     -41.921 -49.767  11.299  1.00  0.00     0.098 N 
HETATM    3  H   UNL     1     -41.751 -49.915  10.299  1.00  0.00     0.317 HD
BRANCH   2   4
HETATM    4  C   UNL     1     -41.442 -48.405  11.642  1.00  0.00     0.236 C 
HETATM    5  C   UNL     1     -39.980 -48.559  12.073  1.00  0.00     0.044 C 
BRANCH   4   6
HETATM    6  C   UNL     1     -41.592 -47.425  10.466  1.00  0.00     0.183 C 
BRANCH   6   7
HETATM    7  N   UNL     1     -42.831 -47.560   9.733  1.00  0.00    -0.301 N 
HETATM    8  C   UNL     1     -44.081 -47.265  10.197  1.00  0.00     0.118 A 
HETATM    9  C   UNL     1     -44.939 -47.436   9.132  1.00  0.00    -0.028 A 
HETATM   10  C   UNL     1     -46.400 -47.220   9.098  1.00  0.00     0.051 C 
HETATM   11  C   UNL     1     -44.097 -47.853   8.075  1.00  0.00     0.115 A 
HETATM   12  N   UNL     1     -42.814 -47.930   8.440  1.00  0.00    -0.310 N 
ATOM     13  HN  UNL     1     -42.013 -48.205   7.873  1.00  0.00     0.186 HD
ENDBRANCH   6   7
ENDBRANCH   4   6
ENDBRANCH   2   4
ENDBRANCH   1   2
BRANCH   1  14
HETATM   14  C   UNL     1     -42.098 -51.550  12.978  1.00  0.00     0.247 C 
HETATM   15  O   UNL     1     -41.669 -52.217  13.913  1.00  0.00    -0.272 OA
HETATM   16  N   UNL     1     -43.446 -51.367  12.720  1.00  0.00    -0.339 N 
HETATM   17  H   UNL     1     -43.683 -50.689  12.002  1.00  0.00     0.164 HD
BRANCH  16  18
HETATM   18  C   UNL     1     -44.459 -51.911  13.618  1.00  0.00     0.104 C 
HETATM   19  C   UNL     1     -45.867 -51.793  12.978  1.00  0.00     0.045 C 
HETATM   20  C   UNL     1     -46.840 -51.390  14.081  1.00  0.00     0.004 C 
HETATM   21  C   UNL     1     -46.032 -51.389  15.366  1.00  0.00     0.004 C 
HETATM   22  C   UNL     1     -44.599 -51.111  14.918  1.00  0.00     0.045 C 
BRANCH  18  23
HETATM   23  C   UNL     1     -44.135 -53.368  13.905  1.00  0.00    -0.046 C 
BRANCH  23  24
HETATM   24  N   UNL     1     -43.865 -54.576  14.142  1.00  0.00    -0.367 N 
ATOM     25  HN2 UNL     1     -44.082 -53.602  13.932  1.00  0.00     0.165 HD
ATOM     26  HN1 UNL     1     -43.647 -55.554  14.334  1.00  0.00     0.165 HD
ENDBRANCH  23  24
ENDBRANCH  18  23
ENDBRANCH  16  18
ENDBRANCH   1  14
TORSDOF 8
ENDMDL
MODEL 3
REMARK VINA RESULT:      -6.4      1.856      2.743
REMARK  8 active torsions:
REMARK  status: ('A' for Active; 'I' for Inactive)
REMARK    1  A    between atoms: C_2  and  C_3 
REMARK    2  A    between atoms: C_2  and  N_11 
REMARK    3  A    between atoms: C_3  and  N_4 
REMARK    4  A    between atoms: N_11  and  C_12 
REMARK    5  A    between atoms: C_12  and  C_13 
REMARK       I    between atoms: C_13  and  N_15 
REMARK    6  A    between atoms: N_15  and  C_16 
REMARK    7  A    between atoms: C_16  and  C_21 
REMARK    8  A    between atoms: C_21  and  N_22 
ROOT
HETATM    1  C   UNL     1     -41.216 -53.311  12.242  1.00  0.00     0.372 C 
ENDROOT
BRANCH   1   2
HETATM    2  N   UNL     1     -41.242 -52.151  11.328  1.00  0.00     0.098 N 
HETATM    3  H   UNL     1     -40.590 -52.358  10.565  1.00  0.00     0.317 HD
BRANCH   2   4
HETATM    4  C   UNL     1     -40.774 -50.912  11.999  1.00  0.00     0.236 C 
HETATM    5  C   UNL     1     -39.541 -51.307  12.818  1.00  0.00     0.044 C 
BRANCH   4   6
HETATM    6  C   UNL     1     -40.458 -49.793  10.992  1.00  0.00     0.183 C 
BRANCH   6   7
HETATM    7  N   UNL     1     -41.375 -48.675  11.038  1.00  0.00    -0.301 N 
HETATM    8  C   UNL     1     -41.045 -47.354  10.944  1.00  0.00     0.118 A 
HETATM    9  C   UNL     1     -42.235 -46.659  10.922  1.00  0.00    -0.028 A 
HETATM   10  C   UNL     1     -42.433 -45.199  10.804  1.00  0.00     0.051 C 
HETATM   11  C   UNL     1     -43.223 -47.665  11.024  1.00  0.00     0.115 A 
HETATM   12  N   UNL     1     -42.702 -48.893  11.097  1.00  0.00    -0.310 N 
ATOM     13  HN  UNL     1     -43.192 -49.783  11.177  1.00  0.00     0.186 HD
ENDBRANCH   6   7
ENDBRANCH   4   6
ENDBRANCH   2   4
ENDBRANCH   1   2
BRANCH   1  14
HETATM   14  C   UNL     1     -42.525 -53.378  13.024  1.00  0.00     0.247 C 
HETATM   15  O   UNL     1     -42.554 -53.673  14.213  1.00  0.00    -0.272 OA
HETATM   16  N   UNL     1     -43.650 -53.042  12.289  1.00  0.00    -0.339 N 
HETATM   17  H   UNL     1     -43.489 -52.688  11.351  1.00  0.00     0.164 HD
BRANCH  16  18
HETATM   18  C   UNL     1     -44.958 -52.943  12.928  1.00  0.00     0.104 C 
HETATM   19  C   UNL     1     -46.002 -52.374  11.932  1.00  0.00     0.045 C 
HETATM   20  C   UNL     1     -46.895 -51.408  12.707  1.00  0.00     0.004 C 
HETATM   21  C   UNL     1     -46.450 -51.506  14.155  1.00  0.00     0.004 C 
HETATM   22  C   UNL     1     -44.987 -51.933  14.080  1.00  0.00     0.045 C 
BRANCH  18  23
HETATM   23  C   UNL     1     -45.383 -54.324  13.400  1.00  0.00    -0.046 C 
BRANCH  23  24
HETATM   24  N   UNL     1     -45.735 -55.469  13.791  1.00  0.00    -0.367 N 
ATOM     25  HN2 UNL     1     -45.452 -54.548  13.457  1.00  0.00     0.165 HD
ATOM     26  HN1 UNL     1     -46.021 -56.395  14.108  1.00  0.00     0.165 HD
ENDBRANCH  23  24
ENDBRANCH  18  23
ENDBRANCH  16  18
ENDBRANCH   1  14
TORSDOF 8
ENDMDL
MODEL 4
REMARK VINA RESULT:      -6.2      2.460      3.260
REMARK  8 active torsions:
REMARK  status: ('A' for Active; 'I' for Inactive)
REMARK    1  A    between atoms: C_2  and  C_3 
REMARK    2  A    between atoms: C_2  and  N_11 
REMARK    3  A    between atoms: C_3  and  N_4 
REMARK    4  A    between atoms: N_11  and  C_12 
REMARK    5  A    between atoms: C_12  and  C_13 
REMARK       I    between atoms: C_13  and  N_15 
REMARK    6  A    between atoms: N_15  and  C_16 
REMARK    7  A    between atoms: C_16  and  C_21 
REMARK    8  A    between atoms: C_21  and  N_22 
ROOT
HETATM    1  C   UNL     1     -42.862 -49.471  13.102  1.00  0.00     0.372 C 
ENDROOT
BRANCH   1   2
HETATM    2  N   UNL     1     -42.301 -49.787  11.773  1.00  0.00     0.098 N 
HETATM    3  H   UNL     1     -41.483 -50.385  11.929  1.00  0.00     0.317 HD
BRANCH   2   4
HETATM    4  C   UNL     1     -41.839 -48.566  11.066  1.00  0.00     0.236 C 
HETATM    5  C   UNL     1     -43.094 -47.733  10.785  1.00  0.00     0.044 C 
BRANCH   4   6
HETATM    6  C   UNL     1     -40.801 -47.779  11.886  1.00  0.00     0.183 C 
BRANCH   6   7
HETATM    7  N   UNL     1     -40.559 -46.437  11.405  1.00  0.00    -0.301 N 
HETATM    8  C   UNL     1     -40.957 -45.278  12.008  1.00  0.00     0.118 A 
HETATM    9  C   UNL     1     -40.413 -44.251  11.266  1.00  0.00    -0.028 A 
HETATM   10  C   UNL     1     -40.522 -42.798  11.511  1.00  0.00     0.051 C 
HETATM   11  C   UNL     1     -39.715 -44.908  10.227  1.00  0.00     0.115 A 
HETATM   12  N   UNL     1     -39.804 -46.238  10.309  1.00  0.00    -0.310 N 
ATOM     13  HN  UNL     1     -39.397 -46.937   9.688  1.00  0.00     0.186 HD
ENDBRANCH   6   7
ENDBRANCH   4   6
ENDBRANCH   2   4
ENDBRANCH   1   2
BRANCH   1  14
HETATM   14  C   UNL     1     -43.779 -50.603  13.555  1.00  0.00     0.247 C 
HETATM   15  O   UNL     1     -43.603 -51.192  14.616  1.00  0.00    -0.272 OA
HETATM   16  N   UNL     1     -44.830 -50.869  12.694  1.00  0.00    -0.339 N 
HETATM   17  H   UNL     1     -44.949 -50.230  11.914  1.00  0.00     0.164 HD
BRANCH  16  18
HETATM   18  C   UNL     1     -45.859 -51.841  13.049  1.00  0.00     0.104 C 
HETATM   19  C   UNL     1     -46.620 -51.379  14.319  1.00  0.00     0.045 C 
HETATM   20  C   UNL     1     -46.865 -52.615  15.181  1.00  0.00     0.004 C 
HETATM   21  C   UNL     1     -46.359 -53.792  14.368  1.00  0.00     0.004 C 
HETATM   22  C   UNL     1     -45.284 -53.200  13.461  1.00  0.00     0.045 C 
BRANCH  18  23
HETATM   23  C   UNL     1     -46.825 -51.985  11.884  1.00  0.00    -0.046 C 
BRANCH  23  24
HETATM   24  N   UNL     1     -47.626 -52.105  10.918  1.00  0.00    -0.367 N 
ATOM     25  HN2 UNL     1     -46.979 -51.990  11.698  1.00  0.00     0.165 HD
ATOM     26  HN1 UNL     1     -48.274 -52.203  10.137  1.00  0.00     0.165 HD
ENDBRANCH  23  24
ENDBRANCH  18  23
ENDBRANCH  16  18
ENDBRANCH   1  14
TORSDOF 8
ENDMDL
MODEL 5
REMARK VINA RESULT:      -6.2      2.592      4.230
REMARK  8 active torsions:
REMARK  status: ('A' for Active; 'I' for Inactive)
REMARK    1  A    between atoms: C_2  and  C_3 
REMARK    2  A    between atoms: C_2  and  N_11 
REMARK    3  A    between atoms: C_3  and  N_4 
REMARK    4  A    between atoms: N_11  and  C_12 
REMARK    5  A    between atoms: C_12  and  C_13 
REMARK       I    between atoms: C_13  and  N_15 
REMARK    6  A    between atoms: N_15  and  C_16 
REMARK    7  A    between atoms: C_16  and  C_21 
REMARK    8  A    between atoms: C_21  and  N_22 
ROOT
HETATM    1  C   UNL     1     -42.856 -49.351  13.373  1.00  0.00     0.372 C 
ENDROOT
BRANCH   1   2
HETATM    2  N   UNL     1     -42.525 -49.417  11.936  1.00  0.00     0.098 N 
HETATM    3  H   UNL     1     -42.586 -50.402  11.661  1.00  0.00     0.317 HD
BRANCH   2   4
HETATM    4  C   UNL     1     -41.138 -48.959  11.670  1.00  0.00     0.236 C 
HETATM    5  C   UNL     1     -40.657 -48.277  12.955  1.00  0.00     0.044 C 
BRANCH   4   6
HETATM    6  C   UNL     1     -40.214 -50.118  11.257  1.00  0.00     0.183 C 
BRANCH   6   7
HETATM    7  N   UNL     1     -40.485 -51.365  11.937  1.00  0.00    -0.301 N 
HETATM    8  C   UNL     1     -40.078 -51.705  13.195  1.00  0.00     0.118 A 
HETATM    9  C   UNL     1     -40.655 -52.926  13.470  1.00  0.00    -0.028 A 
HETATM   10  C   UNL     1     -40.552 -53.721  14.712  1.00  0.00     0.051 C 
HETATM   11  C   UNL     1     -41.381 -53.237  12.297  1.00  0.00     0.115 A 
HETATM   12  N   UNL     1     -41.277 -52.289  11.362  1.00  0.00    -0.310 N 
ATOM     13  HN  UNL     1     -41.697 -52.270  10.433  1.00  0.00     0.186 HD
ENDBRANCH   6   7
ENDBRANCH   4   6
ENDBRANCH   2   4
ENDBRANCH   1   2
BRANCH   1  14
HETATM   14  C   UNL     1     -43.748 -50.530  13.750  1.00  0.00     0.247 C 
HETATM   15  O   UNL     1     -43.572 -51.171  14.780  1.00  0.00    -0.272 OA
HETATM   16  N   UNL     1     -44.780 -50.776  12.859  1.00  0.00    -0.339 N 
HETATM   17  H   UNL     1     -44.905 -50.099  12.113  1.00  0.00     0.164 HD
BRANCH  16  18
HETATM   18  C   UNL     1     -45.787 -51.792  13.145  1.00  0.00     0.104 C 
HETATM   19  C   UNL     1     -46.632 -51.381  14.378  1.00  0.00     0.045 C 
HETATM   20  C   UNL     1     -46.874 -52.639  15.208  1.00  0.00     0.004 C 
HETATM   21  C   UNL     1     -46.279 -53.783  14.408  1.00  0.00     0.004 C 
HETATM   22  C   UNL     1     -45.181 -53.134  13.569  1.00  0.00     0.045 C 
BRANCH  18  23
HETATM   23  C   UNL     1     -46.682 -51.956  11.928  1.00  0.00    -0.046 C 
BRANCH  23  24
HETATM   24  N   UNL     1     -47.425 -52.092  10.918  1.00  0.00    -0.367 N 
ATOM     25  HN2 UNL     1     -46.811 -51.991  11.726  1.00  0.00     0.165 HD
ATOM     26  HN1 UNL     1     -48.026 -52.201  10.102  1.00  0.00     0.165 HD
ENDBRANCH  23  24
ENDBRANCH  18  23
ENDBRANCH  16  18
ENDBRANCH   1  14
TORSDOF 8
ENDMDL
MODEL 6
REMARK VINA RESULT:      -6.1      2.407      6.843
REMARK  8 active torsions:
REMARK  status: ('A' for Active; 'I' for Inactive)
REMARK    1  A    between atoms: C_2  and  C_3 
REMARK    2  A    between atoms: C_2  and  N_11 
REMARK    3  A    between atoms: C_3  and  N_4 
REMARK    4  A    between atoms: N_11  and  C_12 
REMARK    5  A    between atoms: C_12  and  C_13 
REMARK       I    between atoms: C_13  and  N_15 
REMARK    6  A    between atoms: N_15  and  C_16 
REMARK    7  A    between atoms: C_16  and  C_21 
REMARK    8  A    between atoms: C_21  and  N_22 
ROOT
HETATM    1  C   UNL     1     -43.783 -50.110  13.990  1.00  0.00     0.372 C 
ENDROOT
BRANCH   1   2
HETATM    2  N   UNL     1     -44.644 -50.731  12.963  1.00  0.00     0.098 N 
HETATM    3  H   UNL     1     -45.489 -50.155  12.894  1.00  0.00     0.317 HD
BRANCH   2   4
HETATM    4  C   UNL     1     -45.062 -52.102  13.352  1.00  0.00     0.236 C 
HETATM    5  C   UNL     1     -46.590 -52.130  13.248  1.00  0.00     0.044 C 
BRANCH   4   6
HETATM    6  C   UNL     1     -44.408 -53.179  12.469  1.00  0.00     0.183 C 
BRANCH   6   7
HETATM    7  N   UNL     1     -42.967 -53.243  12.580  1.00  0.00    -0.301 N 
HETATM    8  C   UNL     1     -42.259 -53.925  13.527  1.00  0.00     0.118 A 
HETATM    9  C   UNL     1     -40.931 -53.800  13.180  1.00  0.00    -0.028 A 
HETATM   10  C   UNL     1     -39.755 -54.376  13.865  1.00  0.00     0.051 C 
HETATM   11  C   UNL     1     -40.953 -53.007  12.009  1.00  0.00     0.115 A 
HETATM   12  N   UNL     1     -42.192 -52.666  11.644  1.00  0.00    -0.310 N 
ATOM     13  HN  UNL     1     -42.481 -52.102  10.845  1.00  0.00     0.186 HD
ENDBRANCH   6   7
ENDBRANCH   4   6
ENDBRANCH   2   4
ENDBRANCH   1   2
BRANCH   1  14
HETATM   14  C   UNL     1     -42.522 -49.555  13.335  1.00  0.00     0.247 C 
HETATM   15  O   UNL     1     -41.430 -50.097  13.471  1.00  0.00    -0.272 OA
HETATM   16  N   UNL     1     -42.728 -48.429  12.556  1.00  0.00    -0.339 N 
HETATM   17  H   UNL     1     -43.694 -48.149  12.411  1.00  0.00     0.164 HD
BRANCH  16  18
HETATM   18  C   UNL     1     -41.641 -47.854  11.770  1.00  0.00     0.104 C 
HETATM   19  C   UNL     1     -40.616 -47.154  12.699  1.00  0.00     0.045 C 
HETATM   20  C   UNL     1     -40.179 -45.865  12.010  1.00  0.00     0.004 C 
HETATM   21  C   UNL     1     -40.849 -45.876  10.649  1.00  0.00     0.004 C 
HETATM   22  C   UNL     1     -42.103 -46.724  10.845  1.00  0.00     0.045 C 
BRANCH  18  23
HETATM   23  C   UNL     1     -40.962 -48.963  10.982  1.00  0.00    -0.046 C 
BRANCH  23  24
HETATM   24  N   UNL     1     -40.398 -49.882  10.329  1.00  0.00    -0.367 N 
ATOM     25  HN2 UNL     1     -40.838 -49.132  10.862  1.00  0.00     0.165 HD
ATOM     26  HN1 UNL     1     -39.943 -50.625   9.800  1.00  0.00     0.165 HD
ENDBRANCH  23  24
ENDBRANCH  18  23
ENDBRANCH  16  18
ENDBRANCH   1  14
TORSDOF 8
ENDMDL
MODEL 7
REMARK VINA RESULT:      -6.1      1.462      2.198
REMARK  8 active torsions:
REMARK  status: ('A' for Active; 'I' for Inactive)
REMARK    1  A    between atoms: C_2  and  C_3 
REMARK    2  A    between atoms: C_2  and  N_11 
REMARK    3  A    between atoms: C_3  and  N_4 
REMARK    4  A    between atoms: N_11  and  C_12 
REMARK    5  A    between atoms: C_12  and  C_13 
REMARK       I    between atoms: C_13  and  N_15 
REMARK    6  A    between atoms: N_15  and  C_16 
REMARK    7  A    between atoms: C_16  and  C_21 
REMARK    8  A    between atoms: C_21  and  N_22 
ROOT
HETATM    1  C   UNL     1     -42.773 -49.563  12.612  1.00  0.00     0.372 C 
ENDROOT
BRANCH   1   2
HETATM    2  N   UNL     1     -41.723 -49.031  11.722  1.00  0.00     0.098 N 
HETATM    3  H   UNL     1     -40.823 -49.333  12.109  1.00  0.00     0.317 HD
BRANCH   2   4
HETATM    4  C   UNL     1     -41.726 -47.547  11.693  1.00  0.00     0.236 C 
HETATM    5  C   UNL     1     -40.428 -47.101  12.373  1.00  0.00     0.044 C 
BRANCH   4   6
HETATM    6  C   UNL     1     -41.841 -46.997  10.260  1.00  0.00     0.183 C 
BRANCH   6   7
HETATM    7  N   UNL     1     -43.078 -47.334   9.591  1.00  0.00    -0.301 N 
HETATM    8  C   UNL     1     -44.334 -47.241  10.118  1.00  0.00     0.118 A 
HETATM    9  C   UNL     1     -45.205 -47.554   9.097  1.00  0.00    -0.028 A 
HETATM   10  C   UNL     1     -46.682 -47.575   9.138  1.00  0.00     0.051 C 
HETATM   11  C   UNL     1     -44.361 -47.835   7.998  1.00  0.00     0.115 A 
HETATM   12  N   UNL     1     -43.066 -47.703   8.297  1.00  0.00    -0.310 N 
ATOM     13  HN  UNL     1     -42.260 -47.849   7.689  1.00  0.00     0.186 HD
ENDBRANCH   6   7
ENDBRANCH   4   6
ENDBRANCH   2   4
ENDBRANCH   1   2
BRANCH   1  14
HETATM   14  C   UNL     1     -42.417 -50.985  13.036  1.00  0.00     0.247 C 
HETATM   15  O   UNL     1     -41.312 -51.270  13.483  1.00  0.00    -0.272 OA
HETATM   16  N   UNL     1     -43.452 -51.898  12.908  1.00  0.00    -0.339 N 
HETATM   17  H   UNL     1     -44.359 -51.520  12.652  1.00  0.00     0.164 HD
BRANCH  16  18
HETATM   18  C   UNL     1     -43.302 -53.268  13.385  1.00  0.00     0.104 C 
HETATM   19  C   UNL     1     -44.474 -54.147  12.875  1.00  0.00     0.045 C 
HETATM   20  C   UNL     1     -44.879 -55.077  14.015  1.00  0.00     0.004 C 
HETATM   21  C   UNL     1     -43.880 -54.825  15.129  1.00  0.00     0.004 C 
HETATM   22  C   UNL     1     -43.414 -53.389  14.908  1.00  0.00     0.045 C 
BRANCH  18  23
HETATM   23  C   UNL     1     -41.977 -53.822  12.888  1.00  0.00    -0.046 C 
BRANCH  23  24
HETATM   24  N   UNL     1     -40.878 -54.282  12.475  1.00  0.00    -0.367 N 
ATOM     25  HN2 UNL     1     -41.761 -53.911  12.826  1.00  0.00     0.165 HD
ATOM     26  HN1 UNL     1     -39.989 -54.653  12.140  1.00  0.00     0.165 HD
ENDBRANCH  23  24
ENDBRANCH  18  23
ENDBRANCH  16  18
ENDBRANCH   1  14
TORSDOF 8
ENDMDL
MODEL 8
REMARK VINA RESULT:      -6.0      3.463      7.714
REMARK  8 active torsions:
REMARK  status: ('A' for Active; 'I' for Inactive)
REMARK    1  A    between atoms: C_2  and  C_3 
REMARK    2  A    between atoms: C_2  and  N_11 
REMARK    3  A    between atoms: C_3  and  N_4 
REMARK    4  A    between atoms: N_11  and  C_12 
REMARK    5  A    between atoms: C_12  and  C_13 
REMARK       I    between atoms: C_13  and  N_15 
REMARK    6  A    between atoms: N_15  and  C_16 
REMARK    7  A    between atoms: C_16  and  C_21 
REMARK    8  A    between atoms: C_21  and  N_22 
ROOT
HETATM    1  C   UNL     1     -42.050 -50.978  12.193  1.00  0.00     0.372 C 
ENDROOT
BRANCH   1   2
HETATM    2  N   UNL     1     -42.394 -52.371  11.842  1.00  0.00     0.098 N 
HETATM    3  H   UNL     1     -43.044 -52.328  11.051  1.00  0.00     0.317 HD
BRANCH   2   4
HETATM    4  C   UNL     1     -43.085 -53.064  12.958  1.00  0.00     0.236 C 
HETATM    5  C   UNL     1     -44.497 -53.383  12.456  1.00  0.00     0.044 C 
BRANCH   4   6
HETATM    6  C   UNL     1     -42.337 -54.332  13.404  1.00  0.00     0.183 C 
BRANCH   6   7
HETATM    7  N   UNL     1     -41.053 -54.078  14.020  1.00  0.00    -0.301 N 
HETATM    8  C   UNL     1     -40.839 -53.482  15.229  1.00  0.00     0.118 A 
HETATM    9  C   UNL     1     -39.482 -53.552  15.460  1.00  0.00    -0.028 A 
HETATM   10  C   UNL     1     -38.736 -53.074  16.643  1.00  0.00     0.051 C 
HETATM   11  C   UNL     1     -38.970 -54.201  14.313  1.00  0.00     0.115 A 
HETATM   12  N   UNL     1     -39.924 -54.520  13.434  1.00  0.00    -0.310 N 
ATOM     13  HN  UNL     1     -39.822 -54.988  12.534  1.00  0.00     0.186 HD
ENDBRANCH   6   7
ENDBRANCH   4   6
ENDBRANCH   2   4
ENDBRANCH   1   2
BRANCH   1  14
HETATM   14  C   UNL     1     -40.545 -50.860  12.412  1.00  0.00     0.247 C 
HETATM   15  O   UNL     1     -39.768 -51.739  12.057  1.00  0.00    -0.272 OA
HETATM   16  N   UNL     1     -40.143 -49.672  13.001  1.00  0.00    -0.339 N 
HETATM   17  H   UNL     1     -40.861 -48.965  13.130  1.00  0.00     0.164 HD
BRANCH  16  18
HETATM   18  C   UNL     1     -38.727 -49.361  13.165  1.00  0.00     0.104 C 
HETATM   19  C   UNL     1     -38.111 -50.232  14.291  1.00  0.00     0.045 C 
HETATM   20  C   UNL     1     -37.156 -49.346  15.085  1.00  0.00     0.004 C 
HETATM   21  C   UNL     1     -37.129 -48.013  14.359  1.00  0.00     0.004 C 
HETATM   22  C   UNL     1     -38.480 -47.931  13.656  1.00  0.00     0.045 C 
BRANCH  18  23
HETATM   23  C   UNL     1     -38.009 -49.620  11.851  1.00  0.00    -0.046 C 
BRANCH  23  24
HETATM   24  N   UNL     1     -37.414 -49.835  10.760  1.00  0.00    -0.367 N 
ATOM     25  HN2 UNL     1     -37.900 -49.645  11.636  1.00  0.00     0.165 HD
ATOM     26  HN1 UNL     1     -36.933 -50.010   9.878  1.00  0.00     0.165 HD
ENDBRANCH  23  24
ENDBRANCH  18  23
ENDBRANCH  16  18
ENDBRANCH   1  14
TORSDOF 8
ENDMDL
MODEL 9
REMARK VINA RESULT:      -6.0      2.115      6.121
REMARK  8 active torsions:
REMARK  status: ('A' for Active; 'I' for Inactive)
REMARK    1  A    between atoms: C_2  and  C_3 
REMARK    2  A    between atoms: C_2  and  N_11 
REMARK    3  A    between atoms: C_3  and  N_4 
REMARK    4  A    between atoms: N_11  and  C_12 
REMARK    5  A    between atoms: C_12  and  C_13 
REMARK       I    between atoms: C_13  and  N_15 
REMARK    6  A    between atoms: N_15  and  C_16 
REMARK    7  A    between atoms: C_16  and  C_21 
REMARK    8  A    between atoms: C_21  and  N_22 
ROOT
HETATM    1  C   UNL     1     -40.154 -49.752  11.255  1.00  0.00     0.372 C 
ENDROOT
BRANCH   1   2
HETATM    2  N   UNL     1     -41.074 -50.902  11.166  1.00  0.00     0.098 N 
HETATM    3  H   UNL     1     -42.004 -50.526  10.958  1.00  0.00     0.317 HD
BRANCH   2   4
HETATM    4  C   UNL     1     -41.162 -51.638  12.452  1.00  0.00     0.236 C 
HETATM    5  C   UNL     1     -39.723 -51.808  12.949  1.00  0.00     0.044 C 
BRANCH   4   6
HETATM    6  C   UNL     1     -42.039 -50.903  13.481  1.00  0.00     0.183 C 
BRANCH   6   7
HETATM    7  N   UNL     1     -43.406 -51.371  13.539  1.00  0.00    -0.301 N 
HETATM    8  C   UNL     1     -44.379 -50.926  14.388  1.00  0.00     0.118 A 
HETATM    9  C   UNL     1     -45.541 -51.566  14.014  1.00  0.00    -0.028 A 
HETATM   10  C   UNL     1     -46.890 -51.415  14.598  1.00  0.00     0.051 C 
HETATM   11  C   UNL     1     -45.148 -52.389  12.933  1.00  0.00     0.115 A 
HETATM   12  N   UNL     1     -43.850 -52.274  12.644  1.00  0.00    -0.310 N 
ATOM     13  HN  UNL     1     -43.320 -52.755  11.918  1.00  0.00     0.186 HD
ENDBRANCH   6   7
ENDBRANCH   4   6
ENDBRANCH   2   4
ENDBRANCH   1   2
BRANCH   1  14
HETATM   14  C   UNL     1     -40.952 -48.451  11.230  1.00  0.00     0.247 C 
HETATM   15  O   UNL     1     -40.456 -47.381  11.565  1.00  0.00    -0.272 OA
HETATM   16  N   UNL     1     -42.249 -48.584  10.764  1.00  0.00    -0.339 N 
HETATM   17  H   UNL     1     -42.506 -49.493  10.391  1.00  0.00     0.164 HD
BRANCH  16  18
HETATM   18  C   UNL     1     -43.096 -47.412  10.567  1.00  0.00     0.104 C 
HETATM   19  C   UNL     1     -44.515 -47.843  10.112  1.00  0.00     0.045 C 
HETATM   20  C   UNL     1     -44.974 -46.853   9.045  1.00  0.00     0.004 C 
HETATM   21  C   UNL     1     -43.888 -45.796   8.968  1.00  0.00     0.004 C 
HETATM   22  C   UNL     1     -42.620 -46.513   9.422  1.00  0.00     0.045 C 
BRANCH  18  23
HETATM   23  C   UNL     1     -43.178 -46.638  11.873  1.00  0.00    -0.046 C 
BRANCH  23  24
HETATM   24  N   UNL     1     -43.247 -45.996  12.955  1.00  0.00    -0.367 N 
ATOM     25  HN2 UNL     1     -43.206 -46.525  12.084  1.00  0.00     0.165 HD
ATOM     26  HN1 UNL     1     -43.302 -45.476  13.831  1.00  0.00     0.165 HD
ENDBRANCH  23  24
ENDBRANCH  18  23
ENDBRANCH  16  18
ENDBRANCH   1  14
TORSDOF 8
ENDMDL
