MODEL 1
REMARK VINA RESULT:      -6.8      0.000      0.000
REMARK  7 active torsions:
REMARK  status: ('A' for Active; 'I' for Inactive)
REMARK    1  A    between atoms: O_2  and  C_3 
REMARK    2  A    between atoms: C_10  and  O_11 
REMARK    3  A    between atoms: O_11  and  C_12 
REMARK    4  A    between atoms: C_12  and  C_13 
REMARK    5  A    between atoms: C_13  and  N_14 
REMARK    6  A    between atoms: C_15  and  C_24 
REMARK    7  A    between atoms: C_24  and  O_26 
ROOT
HETATM    1  C   UNL     1     -40.991 -48.957  11.435  1.00  0.00     0.102 A 
HETATM    2  C   UNL     1     -41.589 -48.132  10.471  1.00  0.00     0.062 A 
HETATM    3  C   UNL     1     -42.478 -47.116  10.847  1.00  0.00     0.047 A 
HETATM    4  C   UNL     1     -43.045 -46.262   9.845  1.00  0.00     0.099 C 
HETATM    5  N   UNL     1     -43.497 -45.574   9.029  1.00  0.00    -0.191 NA
HETATM    6  C   UNL     1     -42.785 -46.924  12.191  1.00  0.00     0.025 A 
HETATM    7  C   UNL     1     -42.191 -47.736  13.155  1.00  0.00     0.041 A 
HETATM    8  C   UNL     1     -41.283 -48.744  12.797  1.00  0.00     0.102 A 
ENDROOT
BRANCH   1   9
HETATM    9  O   UNL     1     -40.071 -49.911  11.083  1.00  0.00    -0.353 OA
HETATM   10  C   UNL     1     -38.740 -49.749  11.566  1.00  0.00     0.210 C 
ENDBRANCH   1   9
BRANCH   8  11
HETATM   11  O   UNL     1     -40.784 -49.383  13.903  1.00  0.00    -0.347 OA
BRANCH  11  12
HETATM   12  C   UNL     1     -41.672 -49.794  14.939  1.00  0.00     0.196 C 
BRANCH  12  13
HETATM   13  C   UNL     1     -41.894 -51.304  14.904  1.00  0.00     0.157 C 
BRANCH  13  14
HETATM   14  N   UNL     1     -42.875 -51.837  13.973  1.00  0.00    -0.331 N 
HETATM   15  C   UNL     1     -42.529 -52.544  12.822  1.00  0.00     0.113 A 
HETATM   16  N   UNL     1     -43.607 -52.866  12.132  1.00  0.00    -0.342 N 
HETATM   17  C   UNL     1     -44.669 -52.395  12.844  1.00  0.00     0.060 A 
ATOM     18  HN  UNL     1     -43.638 -53.366  11.244  1.00  0.00     0.167 HD
HETATM   19  C   UNL     1     -46.034 -52.505  12.538  1.00  0.00     0.032 A 
HETATM   20  C   UNL     1     -44.257 -51.747  14.008  1.00  0.00     0.062 A 
HETATM   21  C   UNL     1     -46.975 -51.942  13.400  1.00  0.00     0.002 A 
HETATM   22  C   UNL     1     -46.562 -51.293  14.558  1.00  0.00     0.002 A 
HETATM   23  C   UNL     1     -45.206 -51.195  14.887  1.00  0.00     0.032 A 
BRANCH  15  24
HETATM   24  C   UNL     1     -41.132 -52.935  12.427  1.00  0.00     0.181 C 
HETATM   25  C   UNL     1     -40.782 -54.351  12.884  1.00  0.00     0.047 C 
BRANCH  24  26
HETATM   26  O   UNL     1     -41.038 -52.876  11.004  1.00  0.00    -0.388 OA
HETATM   27  H   UNL     1     -41.354 -51.992  10.744  1.00  0.00     0.210 HD
ENDBRANCH  24  26
ENDBRANCH  15  24
ENDBRANCH  13  14
ENDBRANCH  12  13
ENDBRANCH  11  12
ENDBRANCH   8  11
TORSDOF 7
ENDMDL
MODEL 2
REMARK VINA RESULT:      -6.6      2.061      3.337
REMARK  7 active torsions:
REMARK  status: ('A' for Active; 'I' for Inactive)
REMARK    1  A    between atoms: O_2  and  C_3 
REMARK    2  A    between atoms: C_10  and  O_11 
REMARK    3  A    between atoms: O_11  and  C_12 
REMARK    4  A    between atoms: C_12  and  C_13 
REMARK    5  A    between atoms: C_13  and  N_14 
REMARK    6  A    between atoms: C_15  and  C_24 
REMARK    7  A    between atoms: C_24  and  O_26 
ROOT
HETATM    1  C   UNL     1     -39.246 -48.859  12.544  1.00  0.00     0.102 A 
HETATM    2  C   UNL     1     -38.480 -49.023  11.380  1.00  0.00     0.062 A 
HETATM    3  C   UNL     1     -37.542 -50.059  11.275  1.00  0.00     0.047 A 
HETATM    4  C   UNL     1     -36.802 -50.227  10.060  1.00  0.00     0.099 C 
HETATM    5  N   UNL     1     -36.209 -50.358   9.073  1.00  0.00    -0.191 NA
HETATM    6  C   UNL     1     -37.354 -50.934  12.341  1.00  0.00     0.025 A 
HETATM    7  C   UNL     1     -38.113 -50.782  13.499  1.00  0.00     0.041 A 
HETATM    8  C   UNL     1     -39.071 -49.762  13.612  1.00  0.00     0.102 A 
ENDROOT
BRANCH   1   9
HETATM    9  O   UNL     1     -40.211 -47.890  12.630  1.00  0.00    -0.353 OA
HETATM   10  C   UNL     1     -40.776 -47.415  11.410  1.00  0.00     0.210 C 
ENDBRANCH   1   9
BRANCH   8  11
HETATM   11  O   UNL     1     -39.735 -49.830  14.809  1.00  0.00    -0.347 OA
BRANCH  11  12
HETATM   12  C   UNL     1     -41.158 -49.897  14.823  1.00  0.00     0.196 C 
BRANCH  12  13
HETATM   13  C   UNL     1     -41.639 -51.334  15.003  1.00  0.00     0.157 C 
BRANCH  13  14
HETATM   14  N   UNL     1     -42.577 -51.876  14.033  1.00  0.00    -0.331 N 
HETATM   15  C   UNL     1     -42.180 -52.596  12.907  1.00  0.00     0.113 A 
HETATM   16  N   UNL     1     -43.225 -52.923  12.171  1.00  0.00    -0.342 N 
HETATM   17  C   UNL     1     -44.318 -52.443  12.828  1.00  0.00     0.060 A 
ATOM     18  HN  UNL     1     -43.217 -53.432  11.288  1.00  0.00     0.167 HD
HETATM   19  C   UNL     1     -45.667 -52.553  12.460  1.00  0.00     0.032 A 
HETATM   20  C   UNL     1     -43.959 -51.783  14.003  1.00  0.00     0.062 A 
HETATM   21  C   UNL     1     -46.646 -51.980  13.273  1.00  0.00     0.002 A 
HETATM   22  C   UNL     1     -46.285 -51.319  14.441  1.00  0.00     0.002 A 
HETATM   23  C   UNL     1     -44.946 -51.220  14.832  1.00  0.00     0.032 A 
BRANCH  15  24
HETATM   24  C   UNL     1     -40.766 -52.993  12.581  1.00  0.00     0.181 C 
HETATM   25  C   UNL     1     -40.322 -54.225  13.369  1.00  0.00     0.047 C 
BRANCH  24  26
HETATM   26  O   UNL     1     -40.698 -53.291  11.187  1.00  0.00    -0.388 OA
HETATM   27  H   UNL     1     -41.561 -53.672  10.944  1.00  0.00     0.210 HD
ENDBRANCH  24  26
ENDBRANCH  15  24
ENDBRANCH  13  14
ENDBRANCH  12  13
ENDBRANCH  11  12
ENDBRANCH   8  11
TORSDOF 7
ENDMDL
MODEL 3
REMARK VINA RESULT:      -6.5      1.328      2.164
REMARK  7 active torsions:
REMARK  status: ('A' for Active; 'I' for Inactive)
REMARK    1  A    between atoms: O_2  and  C_3 
REMARK    2  A    between atoms: C_10  and  O_11 
REMARK    3  A    between atoms: O_11  and  C_12 
REMARK    4  A    between atoms: C_12  and  C_13 
REMARK    5  A    between atoms: C_13  and  N_14 
REMARK    6  A    between atoms: C_15  and  C_24 
REMARK    7  A    between atoms: C_24  and  O_26 
ROOT
HETATM    1  C   UNL     1     -42.448 -46.684  13.343  1.00  0.00     0.102 A 
HETATM    2  C   UNL     1     -42.620 -46.028  12.116  1.00  0.00     0.062 A 
HETATM    3  C   UNL     1     -42.973 -46.740  10.962  1.00  0.00     0.047 A 
HETATM    4  C   UNL     1     -43.180 -46.038   9.729  1.00  0.00     0.099 C 
HETATM    5  N   UNL     1     -43.348 -45.463   8.738  1.00  0.00    -0.191 NA
HETATM    6  C   UNL     1     -43.147 -48.119  11.024  1.00  0.00     0.025 A 
HETATM    7  C   UNL     1     -42.984 -48.779  12.240  1.00  0.00     0.041 A 
HETATM    8  C   UNL     1     -42.650 -48.078  13.409  1.00  0.00     0.102 A 
ENDROOT
BRANCH   1   9
HETATM    9  O   UNL     1     -42.166 -45.988  14.490  1.00  0.00    -0.353 OA
HETATM   10  C   UNL     1     -43.267 -45.462  15.226  1.00  0.00     0.210 C 
ENDBRANCH   1   9
BRANCH   8  11
HETATM   11  O   UNL     1     -42.592 -48.914  14.494  1.00  0.00    -0.347 OA
BRANCH  11  12
HETATM   12  C   UNL     1     -41.434 -49.717  14.702  1.00  0.00     0.196 C 
BRANCH  12  13
HETATM   13  C   UNL     1     -41.812 -51.180  14.922  1.00  0.00     0.157 C 
BRANCH  13  14
HETATM   14  N   UNL     1     -42.713 -51.811  13.972  1.00  0.00    -0.331 N 
HETATM   15  C   UNL     1     -42.270 -52.574  12.892  1.00  0.00     0.113 A 
HETATM   16  N   UNL     1     -43.290 -52.983  12.162  1.00  0.00    -0.342 N 
HETATM   17  C   UNL     1     -44.411 -52.514  12.778  1.00  0.00     0.060 A 
ATOM     18  HN  UNL     1     -43.248 -53.539  11.308  1.00  0.00     0.167 HD
HETATM   19  C   UNL     1     -45.750 -52.700  12.400  1.00  0.00     0.032 A 
HETATM   20  C   UNL     1     -44.097 -51.777  13.919  1.00  0.00     0.062 A 
HETATM   21  C   UNL     1     -46.763 -52.124  13.167  1.00  0.00     0.002 A 
HETATM   22  C   UNL     1     -46.446 -51.387  14.302  1.00  0.00     0.002 A 
HETATM   23  C   UNL     1     -45.118 -51.212  14.703  1.00  0.00     0.032 A 
BRANCH  15  24
HETATM   24  C   UNL     1     -40.837 -52.930  12.605  1.00  0.00     0.181 C 
HETATM   25  C   UNL     1     -40.394 -54.178  13.368  1.00  0.00     0.047 C 
BRANCH  24  26
HETATM   26  O   UNL     1     -40.711 -53.178  11.206  1.00  0.00    -0.388 OA
HETATM   27  H   UNL     1     -40.017 -52.576  10.881  1.00  0.00     0.210 HD
ENDBRANCH  24  26
ENDBRANCH  15  24
ENDBRANCH  13  14
ENDBRANCH  12  13
ENDBRANCH  11  12
ENDBRANCH   8  11
TORSDOF 7
ENDMDL
MODEL 4
REMARK VINA RESULT:      -6.4      2.267      6.321
REMARK  7 active torsions:
REMARK  status: ('A' for Active; 'I' for Inactive)
REMARK    1  A    between atoms: O_2  and  C_3 
REMARK    2  A    between atoms: C_10  and  O_11 
REMARK    3  A    between atoms: O_11  and  C_12 
REMARK    4  A    between atoms: C_12  and  C_13 
REMARK    5  A    between atoms: C_13  and  N_14 
REMARK    6  A    between atoms: C_15  and  C_24 
REMARK    7  A    between atoms: C_24  and  O_26 
ROOT
HETATM    1  C   UNL     1     -43.054 -51.959  12.819  1.00  0.00     0.102 A 
HETATM    2  C   UNL     1     -43.592 -53.243  12.987  1.00  0.00     0.062 A 
HETATM    3  C   UNL     1     -44.810 -53.431  13.654  1.00  0.00     0.047 A 
HETATM    4  C   UNL     1     -45.356 -54.751  13.777  1.00  0.00     0.099 C 
HETATM    5  N   UNL     1     -45.792 -55.820  13.870  1.00  0.00    -0.191 NA
HETATM    6  C   UNL     1     -45.496 -52.335  14.169  1.00  0.00     0.025 A 
HETATM    7  C   UNL     1     -44.971 -51.055  14.002  1.00  0.00     0.041 A 
HETATM    8  C   UNL     1     -43.763 -50.848  13.319  1.00  0.00     0.102 A 
ENDROOT
BRANCH   1   9
HETATM    9  O   UNL     1     -41.897 -51.759  12.112  1.00  0.00    -0.353 OA
HETATM   10  C   UNL     1     -40.902 -52.778  12.180  1.00  0.00     0.210 C 
ENDBRANCH   1   9
BRANCH   8  11
HETATM   11  O   UNL     1     -43.463 -49.513  13.228  1.00  0.00    -0.347 OA
BRANCH  11  12
HETATM   12  C   UNL     1     -42.754 -48.877  14.287  1.00  0.00     0.196 C 
BRANCH  12  13
HETATM   13  C   UNL     1     -41.636 -47.990  13.746  1.00  0.00     0.157 C 
BRANCH  13  14
HETATM   14  N   UNL     1     -40.647 -48.587  12.863  1.00  0.00    -0.331 N 
HETATM   15  C   UNL     1     -40.702 -48.482  11.474  1.00  0.00     0.113 A 
HETATM   16  N   UNL     1     -39.715 -49.158  10.917  1.00  0.00    -0.342 N 
HETATM   17  C   UNL     1     -38.989 -49.685  11.943  1.00  0.00     0.060 A 
ATOM     18  HN  UNL     1     -39.532 -49.264   9.919  1.00  0.00     0.167 HD
HETATM   19  C   UNL     1     -37.827 -50.468  11.868  1.00  0.00     0.032 A 
HETATM   20  C   UNL     1     -39.534 -49.349  13.181  1.00  0.00     0.062 A 
HETATM   21  C   UNL     1     -37.232 -50.922  13.045  1.00  0.00     0.002 A 
HETATM   22  C   UNL     1     -37.781 -50.589  14.279  1.00  0.00     0.002 A 
HETATM   23  C   UNL     1     -38.926 -49.791  14.369  1.00  0.00     0.032 A 
BRANCH  15  24
HETATM   24  C   UNL     1     -41.712 -47.680  10.700  1.00  0.00     0.181 C 
HETATM   25  C   UNL     1     -41.244 -46.244  10.467  1.00  0.00     0.047 C 
BRANCH  24  26
HETATM   26  O   UNL     1     -41.906 -48.311   9.435  1.00  0.00    -0.388 OA
HETATM   27  H   UNL     1     -41.552 -49.214   9.520  1.00  0.00     0.210 HD
ENDBRANCH  24  26
ENDBRANCH  15  24
ENDBRANCH  13  14
ENDBRANCH  12  13
ENDBRANCH  11  12
ENDBRANCH   8  11
TORSDOF 7
ENDMDL
MODEL 5
REMARK VINA RESULT:      -6.3      1.983      2.460
REMARK  7 active torsions:
REMARK  status: ('A' for Active; 'I' for Inactive)
REMARK    1  A    between atoms: O_2  and  C_3 
REMARK    2  A    between atoms: C_10  and  O_11 
REMARK    3  A    between atoms: O_11  and  C_12 
REMARK    4  A    between atoms: C_12  and  C_13 
REMARK    5  A    between atoms: C_13  and  N_14 
REMARK    6  A    between atoms: C_15  and  C_24 
REMARK    7  A    between atoms: C_24  and  O_26 
ROOT
HETATM    1  C   UNL     1     -42.773 -47.074  11.304  1.00  0.00     0.102 A 
HETATM    2  C   UNL     1     -41.941 -46.311  10.471  1.00  0.00     0.062 A 
HETATM    3  C   UNL     1     -40.740 -45.772  10.951  1.00  0.00     0.047 A 
HETATM    4  C   UNL     1     -39.891 -45.029  10.068  1.00  0.00     0.099 C 
HETATM    5  N   UNL     1     -39.209 -44.432   9.346  1.00  0.00    -0.191 NA
HETATM    6  C   UNL     1     -40.365 -45.984  12.275  1.00  0.00     0.025 A 
HETATM    7  C   UNL     1     -41.183 -46.744  13.108  1.00  0.00     0.041 A 
HETATM    8  C   UNL     1     -42.379 -47.308  12.637  1.00  0.00     0.102 A 
ENDROOT
BRANCH   1   9
HETATM    9  O   UNL     1     -43.916 -47.658  10.826  1.00  0.00    -0.353 OA
HETATM   10  C   UNL     1     -44.392 -47.225   9.554  1.00  0.00     0.210 C 
ENDBRANCH   1   9
BRANCH   8  11
HETATM   11  O   UNL     1     -42.994 -48.057  13.606  1.00  0.00    -0.347 OA
BRANCH  11  12
HETATM   12  C   UNL     1     -42.427 -49.302  14.000  1.00  0.00     0.196 C 
BRANCH  12  13
HETATM   13  C   UNL     1     -42.462 -50.309  12.853  1.00  0.00     0.157 C 
BRANCH  13  14
HETATM   14  N   UNL     1     -43.028 -51.625  13.105  1.00  0.00    -0.331 N 
HETATM   15  C   UNL     1     -42.299 -52.806  12.976  1.00  0.00     0.113 A 
HETATM   16  N   UNL     1     -43.065 -53.854  13.211  1.00  0.00    -0.342 N 
HETATM   17  C   UNL     1     -44.297 -53.362  13.525  1.00  0.00     0.060 A 
ATOM     18  HN  UNL     1     -42.791 -54.835  13.166  1.00  0.00     0.167 HD
HETATM   19  C   UNL     1     -45.452 -54.077  13.875  1.00  0.00     0.032 A 
HETATM   20  C   UNL     1     -44.318 -51.969  13.475  1.00  0.00     0.062 A 
HETATM   21  C   UNL     1     -46.628 -53.382  14.155  1.00  0.00     0.002 A 
HETATM   22  C   UNL     1     -46.648 -51.992  14.100  1.00  0.00     0.002 A 
HETATM   23  C   UNL     1     -45.498 -51.265  13.774  1.00  0.00     0.032 A 
BRANCH  15  24
HETATM   24  C   UNL     1     -40.831 -52.894  12.657  1.00  0.00     0.181 C 
HETATM   25  C   UNL     1     -40.087 -53.804  13.634  1.00  0.00     0.047 C 
BRANCH  24  26
HETATM   26  O   UNL     1     -40.693 -53.423  11.340  1.00  0.00    -0.388 OA
HETATM   27  H   UNL     1     -41.410 -54.072  11.227  1.00  0.00     0.210 HD
ENDBRANCH  24  26
ENDBRANCH  15  24
ENDBRANCH  13  14
ENDBRANCH  12  13
ENDBRANCH  11  12
ENDBRANCH   8  11
TORSDOF 7
ENDMDL
MODEL 6
REMARK VINA RESULT:      -6.3      2.342      2.725
REMARK  7 active torsions:
REMARK  status: ('A' for Active; 'I' for Inactive)
REMARK    1  A    between atoms: O_2  and  C_3 
REMARK    2  A    between atoms: C_10  and  O_11 
REMARK    3  A    between atoms: O_11  and  C_12 
REMARK    4  A    between atoms: C_12  and  C_13 
REMARK    5  A    between atoms: C_13  and  N_14 
REMARK    6  A    between atoms: C_15  and  C_24 
REMARK    7  A    between atoms: C_24  and  O_26 
ROOT
HETATM    1  C   UNL     1     -39.377 -47.568  13.254  1.00  0.00     0.102 A 
HETATM    2  C   UNL     1     -39.161 -46.209  13.525  1.00  0.00     0.062 A 
HETATM    3  C   UNL     1     -39.569 -45.221  12.618  1.00  0.00     0.047 A 
HETATM    4  C   UNL     1     -39.372 -43.838  12.938  1.00  0.00     0.099 C 
HETATM    5  N   UNL     1     -39.211 -42.722  13.205  1.00  0.00    -0.191 NA
HETATM    6  C   UNL     1     -40.187 -45.586  11.425  1.00  0.00     0.025 A 
HETATM    7  C   UNL     1     -40.409 -46.934  11.150  1.00  0.00     0.041 A 
HETATM    8  C   UNL     1     -40.025 -47.934  12.057  1.00  0.00     0.102 A 
ENDROOT
BRANCH   1   9
HETATM    9  O   UNL     1     -39.040 -48.537  14.163  1.00  0.00    -0.353 OA
HETATM   10  C   UNL     1     -37.768 -49.162  14.015  1.00  0.00     0.210 C 
ENDBRANCH   1   9
BRANCH   8  11
HETATM   11  O   UNL     1     -40.386 -49.179  11.610  1.00  0.00    -0.347 OA
BRANCH  11  12
HETATM   12  C   UNL     1     -41.732 -49.619  11.763  1.00  0.00     0.196 C 
BRANCH  12  13
HETATM   13  C   UNL     1     -41.926 -50.339  13.095  1.00  0.00     0.157 C 
BRANCH  13  14
HETATM   14  N   UNL     1     -42.692 -51.575  13.107  1.00  0.00    -0.331 N 
HETATM   15  C   UNL     1     -42.130 -52.823  12.839  1.00  0.00     0.113 A 
HETATM   16  N   UNL     1     -43.054 -53.765  12.865  1.00  0.00    -0.342 N 
HETATM   17  C   UNL     1     -44.224 -53.141  13.179  1.00  0.00     0.060 A 
ATOM     18  HN  UNL     1     -42.919 -54.759  12.685  1.00  0.00     0.167 HD
HETATM   19  C   UNL     1     -45.493 -53.715  13.347  1.00  0.00     0.032 A 
HETATM   20  C   UNL     1     -44.043 -51.768  13.344  1.00  0.00     0.062 A 
HETATM   21  C   UNL     1     -46.577 -52.896  13.663  1.00  0.00     0.002 A 
HETATM   22  C   UNL     1     -46.395 -51.527  13.823  1.00  0.00     0.002 A 
HETATM   23  C   UNL     1     -45.131 -50.944  13.680  1.00  0.00     0.032 A 
BRANCH  15  24
HETATM   24  C   UNL     1     -40.669 -53.087  12.596  1.00  0.00     0.181 C 
HETATM   25  C   UNL     1     -40.133 -54.206  13.489  1.00  0.00     0.047 C 
BRANCH  24  26
HETATM   26  O   UNL     1     -40.507 -53.470  11.232  1.00  0.00    -0.388 OA
HETATM   27  H   UNL     1     -39.979 -52.769  10.809  1.00  0.00     0.210 HD
ENDBRANCH  24  26
ENDBRANCH  15  24
ENDBRANCH  13  14
ENDBRANCH  12  13
ENDBRANCH  11  12
ENDBRANCH   8  11
TORSDOF 7
ENDMDL
MODEL 7
REMARK VINA RESULT:      -6.2      2.424      7.115
REMARK  7 active torsions:
REMARK  status: ('A' for Active; 'I' for Inactive)
REMARK    1  A    between atoms: O_2  and  C_3 
REMARK    2  A    between atoms: C_10  and  O_11 
REMARK    3  A    between atoms: O_11  and  C_12 
REMARK    4  A    between atoms: C_12  and  C_13 
REMARK    5  A    between atoms: C_13  and  N_14 
REMARK    6  A    between atoms: C_15  and  C_24 
REMARK    7  A    between atoms: C_24  and  O_26 
ROOT
HETATM    1  C   UNL     1     -41.529 -53.193  12.888  1.00  0.00     0.102 A 
HETATM    2  C   UNL     1     -42.502 -54.129  13.268  1.00  0.00     0.062 A 
HETATM    3  C   UNL     1     -43.855 -53.771  13.343  1.00  0.00     0.047 A 
HETATM    4  C   UNL     1     -44.832 -54.758  13.696  1.00  0.00     0.099 C 
HETATM    5  N   UNL     1     -45.616 -55.563  13.980  1.00  0.00    -0.191 NA
HETATM    6  C   UNL     1     -44.245 -52.468  13.049  1.00  0.00     0.025 A 
HETATM    7  C   UNL     1     -43.286 -51.533  12.666  1.00  0.00     0.041 A 
HETATM    8  C   UNL     1     -41.930 -51.880  12.566  1.00  0.00     0.102 A 
ENDROOT
BRANCH   1   9
HETATM    9  O   UNL     1     -40.214 -53.550  12.749  1.00  0.00    -0.353 OA
HETATM   10  C   UNL     1     -39.572 -54.145  13.874  1.00  0.00     0.210 C 
ENDBRANCH   1   9
BRANCH   8  11
HETATM   11  O   UNL     1     -41.175 -50.825  12.124  1.00  0.00    -0.347 OA
BRANCH  11  12
HETATM   12  C   UNL     1     -41.758 -49.527  12.044  1.00  0.00     0.196 C 
BRANCH  12  13
HETATM   13  C   UNL     1     -41.182 -48.738  10.871  1.00  0.00     0.157 C 
BRANCH  13  14
HETATM   14  N   UNL     1     -41.489 -47.320  10.774  1.00  0.00    -0.331 N 
HETATM   15  C   UNL     1     -42.503 -46.813   9.961  1.00  0.00     0.113 A 
HETATM   16  N   UNL     1     -42.532 -45.496  10.021  1.00  0.00    -0.342 N 
HETATM   17  C   UNL     1     -41.554 -45.133  10.898  1.00  0.00     0.060 A 
ATOM     18  HN  UNL     1     -43.160 -44.874   9.512  1.00  0.00     0.167 HD
HETATM   19  C   UNL     1     -41.201 -43.841  11.316  1.00  0.00     0.032 A 
HETATM   20  C   UNL     1     -40.877 -46.245  11.398  1.00  0.00     0.062 A 
HETATM   21  C   UNL     1     -40.154 -43.678  12.223  1.00  0.00     0.002 A 
HETATM   22  C   UNL     1     -39.479 -44.788  12.717  1.00  0.00     0.002 A 
HETATM   23  C   UNL     1     -39.834 -46.084  12.326  1.00  0.00     0.032 A 
BRANCH  15  24
HETATM   24  C   UNL     1     -43.468 -47.638   9.156  1.00  0.00     0.181 C 
HETATM   25  C   UNL     1     -44.875 -47.041   9.161  1.00  0.00     0.047 C 
BRANCH  24  26
HETATM   26  O   UNL     1     -42.996 -47.690   7.811  1.00  0.00    -0.388 OA
HETATM   27  H   UNL     1     -43.313 -48.532   7.439  1.00  0.00     0.210 HD
ENDBRANCH  24  26
ENDBRANCH  15  24
ENDBRANCH  13  14
ENDBRANCH  12  13
ENDBRANCH  11  12
ENDBRANCH   8  11
TORSDOF 7
ENDMDL
MODEL 8
REMARK VINA RESULT:      -6.2      2.614      3.388
REMARK  7 active torsions:
REMARK  status: ('A' for Active; 'I' for Inactive)
REMARK    1  A    between atoms: O_2  and  C_3 
REMARK    2  A    between atoms: C_10  and  O_11 
REMARK    3  A    between atoms: O_11  and  C_12 
REMARK    4  A    between atoms: C_12  and  C_13 
REMARK    5  A    between atoms: C_13  and  N_14 
REMARK    6  A    between atoms: C_15  and  C_24 
REMARK    7  A    between atoms: C_24  and  O_26 
ROOT
HETATM    1  C   UNL     1     -41.195 -47.473  10.998  1.00  0.00     0.102 A 
HETATM    2  C   UNL     1     -40.750 -46.203  11.394  1.00  0.00     0.062 A 
HETATM    3  C   UNL     1     -39.806 -46.058  12.419  1.00  0.00     0.047 A 
HETATM    4  C   UNL     1     -39.340 -44.750  12.776  1.00  0.00     0.099 C 
HETATM    5  N   UNL     1     -38.967 -43.690  13.057  1.00  0.00    -0.191 NA
HETATM    6  C   UNL     1     -39.306 -47.184  13.066  1.00  0.00     0.025 A 
HETATM    7  C   UNL     1     -39.739 -48.450  12.677  1.00  0.00     0.041 A 
HETATM    8  C   UNL     1     -40.668 -48.613  11.638  1.00  0.00     0.102 A 
ENDROOT
BRANCH   1   9
HETATM    9  O   UNL     1     -42.069 -47.628   9.954  1.00  0.00    -0.353 OA
HETATM   10  C   UNL     1     -43.461 -47.509  10.239  1.00  0.00     0.210 C 
ENDBRANCH   1   9
BRANCH   8  11
HETATM   11  O   UNL     1     -40.910 -49.939  11.388  1.00  0.00    -0.347 OA
BRANCH  11  12
HETATM   12  C   UNL     1     -40.599 -50.911  12.382  1.00  0.00     0.196 C 
BRANCH  12  13
HETATM   13  C   UNL     1     -41.014 -52.310  11.932  1.00  0.00     0.157 C 
BRANCH  13  14
HETATM   14  N   UNL     1     -41.611 -53.202  12.912  1.00  0.00    -0.331 N 
HETATM   15  C   UNL     1     -40.866 -53.904  13.859  1.00  0.00     0.113 A 
HETATM   16  N   UNL     1     -41.648 -54.679  14.585  1.00  0.00    -0.342 N 
HETATM   17  C   UNL     1     -42.918 -54.466  14.136  1.00  0.00     0.060 A 
ATOM     18  HN  UNL     1     -41.361 -55.310  15.333  1.00  0.00     0.167 HD
HETATM   19  C   UNL     1     -44.109 -55.041  14.604  1.00  0.00     0.032 A 
HETATM   20  C   UNL     1     -42.942 -53.545  13.090  1.00  0.00     0.062 A 
HETATM   21  C   UNL     1     -45.318 -54.695  13.999  1.00  0.00     0.002 A 
HETATM   22  C   UNL     1     -45.339 -53.779  12.953  1.00  0.00     0.002 A 
HETATM   23  C   UNL     1     -44.161 -53.182  12.491  1.00  0.00     0.032 A 
BRANCH  15  24
HETATM   24  C   UNL     1     -39.382 -53.776  14.068  1.00  0.00     0.181 C 
HETATM   25  C   UNL     1     -39.010 -53.792  15.551  1.00  0.00     0.047 C 
BRANCH  24  26
HETATM   26  O   UNL     1     -38.745 -54.878  13.424  1.00  0.00    -0.388 OA
HETATM   27  H   UNL     1     -39.152 -55.684  13.789  1.00  0.00     0.210 HD
ENDBRANCH  24  26
ENDBRANCH  15  24
ENDBRANCH  13  14
ENDBRANCH  12  13
ENDBRANCH  11  12
ENDBRANCH   8  11
TORSDOF 7
ENDMDL
MODEL 9
REMARK VINA RESULT:      -6.2      2.279      2.900
REMARK  7 active torsions:
REMARK  status: ('A' for Active; 'I' for Inactive)
REMARK    1  A    between atoms: O_2  and  C_3 
REMARK    2  A    between atoms: C_10  and  O_11 
REMARK    3  A    between atoms: O_11  and  C_12 
REMARK    4  A    between atoms: C_12  and  C_13 
REMARK    5  A    between atoms: C_13  and  N_14 
REMARK    6  A    between atoms: C_15  and  C_24 
REMARK    7  A    between atoms: C_24  and  O_26 
ROOT
HETATM    1  C   UNL     1     -39.805 -47.815  11.862  1.00  0.00     0.102 A 
HETATM    2  C   UNL     1     -40.045 -46.435  11.783  1.00  0.00     0.062 A 
HETATM    3  C   UNL     1     -41.109 -45.932  11.023  1.00  0.00     0.047 A 
HETATM    4  C   UNL     1     -41.355 -44.520  10.990  1.00  0.00     0.099 C 
HETATM    5  N   UNL     1     -41.548 -43.378  10.972  1.00  0.00    -0.191 NA
HETATM    6  C   UNL     1     -41.937 -46.807  10.325  1.00  0.00     0.025 A 
HETATM    7  C   UNL     1     -41.709 -48.179  10.402  1.00  0.00     0.041 A 
HETATM    8  C   UNL     1     -40.661 -48.700  11.176  1.00  0.00     0.102 A 
ENDROOT
BRANCH   1   9
HETATM    9  O   UNL     1     -38.807 -48.319  12.655  1.00  0.00    -0.353 OA
HETATM   10  C   UNL     1     -38.537 -47.643  13.881  1.00  0.00     0.210 C 
ENDBRANCH   1   9
BRANCH   8  11
HETATM   11  O   UNL     1     -40.653 -50.071  11.150  1.00  0.00    -0.347 OA
BRANCH  11  12
HETATM   12  C   UNL     1     -41.143 -50.798  12.273  1.00  0.00     0.196 C 
BRANCH  12  13
HETATM   13  C   UNL     1     -40.975 -52.302  12.068  1.00  0.00     0.157 C 
BRANCH  13  14
HETATM   14  N   UNL     1     -41.584 -53.203  13.033  1.00  0.00    -0.331 N 
HETATM   15  C   UNL     1     -40.853 -53.892  14.000  1.00  0.00     0.113 A 
HETATM   16  N   UNL     1     -41.642 -54.678  14.707  1.00  0.00    -0.342 N 
HETATM   17  C   UNL     1     -42.902 -54.486  14.225  1.00  0.00     0.060 A 
ATOM     18  HN  UNL     1     -41.364 -55.304  15.463  1.00  0.00     0.167 HD
HETATM   19  C   UNL     1     -44.096 -55.079  14.661  1.00  0.00     0.032 A 
HETATM   20  C   UNL     1     -42.913 -53.566  13.177  1.00  0.00     0.062 A 
HETATM   21  C   UNL     1     -45.293 -54.754  14.024  1.00  0.00     0.002 A 
HETATM   22  C   UNL     1     -45.301 -53.840  12.976  1.00  0.00     0.002 A 
HETATM   23  C   UNL     1     -44.122 -53.224  12.545  1.00  0.00     0.032 A 
BRANCH  15  24
HETATM   24  C   UNL     1     -39.377 -53.740  14.249  1.00  0.00     0.181 C 
HETATM   25  C   UNL     1     -39.006 -54.052  15.699  1.00  0.00     0.047 C 
BRANCH  24  26
HETATM   26  O   UNL     1     -38.686 -54.647  13.393  1.00  0.00    -0.388 OA
HETATM   27  H   UNL     1     -39.369 -55.133  12.896  1.00  0.00     0.210 HD
ENDBRANCH  24  26
ENDBRANCH  15  24
ENDBRANCH  13  14
ENDBRANCH  12  13
ENDBRANCH  11  12
ENDBRANCH   8  11
TORSDOF 7
ENDMDL
