MODEL 1
REMARK VINA RESULT:      -6.7      0.000      0.000
REMARK  5 active torsions:
REMARK  status: ('A' for Active; 'I' for Inactive)
REMARK    1  A    between atoms: N_2  and  C_4 
REMARK    2  A    between atoms: C_4  and  C_7 
REMARK    3  A    between atoms: C_7  and  N_8 
REMARK       I    between atoms: N_8  and  C_9 
REMARK    4  A    between atoms: C_9  and  C_11 
REMARK    5  A    between atoms: C_14  and  N_20 
ROOT
HETATM    1  C   UNL     1     -41.333 -50.335  11.921  1.00  0.00     0.139 A 
HETATM    2  N   UNL     1     -42.168 -49.398  11.373  1.00  0.00    -0.184 N 
ATOM      3  HN  UNL     1     -43.152 -49.601  11.200  1.00  0.00     0.184 HD
HETATM    4  C   UNL     1     -41.639 -48.202  11.075  1.00  0.00     0.680 A 
HETATM    5  N   UNL     1     -40.346 -47.919  11.299  1.00  0.00    -0.200 N 
ATOM      6  HN  UNL     1     -39.969 -46.998  11.077  1.00  0.00     0.183 HD
HETATM    7  C   UNL     1     -39.555 -48.878  11.824  1.00  0.00     0.132 A 
HETATM    8  C   UNL     1     -39.989 -50.133  12.154  1.00  0.00     0.082 A 
HETATM    9 CL   UNL     1     -38.850 -51.289  12.707  1.00  0.00    -0.080 Cl
ENDROOT
BRANCH   1  10
HETATM   10  C   UNL     1     -41.979 -51.655  12.220  1.00  0.00     0.270 C 
HETATM   11  N   UNL     1     -43.322 -51.590  12.545  1.00  0.00    -0.353 N 
HETATM   12  H   UNL     1     -43.677 -50.663  12.758  1.00  0.00     0.162 HD
HETATM   13  O   UNL     1     -41.351 -52.707  12.185  1.00  0.00    -0.266 OA
BRANCH  11  14
HETATM   14  C   UNL     1     -44.074 -52.783  12.916  1.00  0.00     0.164 C 
BRANCH  14  15
HETATM   15  C   UNL     1     -45.519 -52.524  13.483  1.00  0.00     0.167 C 
HETATM   16  C   UNL     1     -46.429 -52.040  12.331  1.00  0.00     0.050 C 
HETATM   17  C   UNL     1     -45.404 -51.388  14.532  1.00  0.00     0.050 C 
BRANCH  15  18
HETATM   18  N   UNL     1     -46.053 -53.753  14.166  1.00  0.00     0.090 N 
HETATM   19  C   UNL     1     -45.412 -55.012  13.770  1.00  0.00     0.310 C 
HETATM   20  C   UNL     1     -46.070 -53.683  15.632  1.00  0.00     0.310 C 
ENDBRANCH  15  18
ENDBRANCH  14  15
ENDBRANCH  11  14
ENDBRANCH   1  10
BRANCH   4  21
HETATM   21  N   UNL     1     -42.407 -47.260  10.416  1.00  0.00    -0.214 N 
HETATM   22  C   UNL     1     -41.919 -45.878  10.394  1.00  0.00     0.167 C 
HETATM   23  C   UNL     1     -43.074 -44.949   9.970  1.00  0.00     0.188 C 
HETATM   24  O   UNL     1     -43.642 -45.344   8.709  1.00  0.00    -0.388 OA
HETATM   25  C   UNL     1     -44.141 -46.688   8.787  1.00  0.00     0.188 C 
HETATM   26  C   UNL     1     -43.024 -47.679   9.148  1.00  0.00     0.167 C 
ENDBRANCH   4  21
TORSDOF 5
ENDMDL
MODEL 2
REMARK VINA RESULT:      -6.6      0.817      1.487
REMARK  5 active torsions:
REMARK  status: ('A' for Active; 'I' for Inactive)
REMARK    1  A    between atoms: N_2  and  C_4 
REMARK    2  A    between atoms: C_4  and  C_7 
REMARK    3  A    between atoms: C_7  and  N_8 
REMARK       I    between atoms: N_8  and  C_9 
REMARK    4  A    between atoms: C_9  and  C_11 
REMARK    5  A    between atoms: C_14  and  N_20 
ROOT
HETATM    1  C   UNL     1     -40.881 -50.316  11.783  1.00  0.00     0.139 A 
HETATM    2  N   UNL     1     -41.798 -49.440  11.265  1.00  0.00    -0.184 N 
ATOM      3  HN  UNL     1     -42.755 -49.730  11.065  1.00  0.00     0.184 HD
HETATM    4  C   UNL     1     -41.387 -48.185  11.033  1.00  0.00     0.680 A 
HETATM    5  N   UNL     1     -40.131 -47.787  11.294  1.00  0.00    -0.200 N 
ATOM      6  HN  UNL     1     -39.845 -46.823  11.122  1.00  0.00     0.183 HD
HETATM    7  C   UNL     1     -39.256 -48.687  11.787  1.00  0.00     0.132 A 
HETATM    8  C   UNL     1     -39.568 -49.993  12.050  1.00  0.00     0.082 A 
HETATM    9 CL   UNL     1     -38.327 -51.057  12.567  1.00  0.00    -0.080 Cl
ENDROOT
BRANCH   1  10
HETATM   10  C   UNL     1     -41.396 -51.706  12.008  1.00  0.00     0.270 C 
HETATM   11  N   UNL     1     -42.751 -51.793  12.275  1.00  0.00    -0.353 N 
HETATM   12  H   UNL     1     -43.209 -50.917  12.504  1.00  0.00     0.162 HD
HETATM   13  O   UNL     1     -40.661 -52.686  11.964  1.00  0.00    -0.266 OA
BRANCH  11  14
HETATM   14  C   UNL     1     -43.388 -53.071  12.571  1.00  0.00     0.164 C 
BRANCH  14  15
HETATM   15  C   UNL     1     -44.523 -53.026  13.660  1.00  0.00     0.167 C 
HETATM   16  C   UNL     1     -43.874 -52.890  15.056  1.00  0.00     0.050 C 
HETATM   17  C   UNL     1     -45.275 -54.381  13.596  1.00  0.00     0.050 C 
BRANCH  15  18
HETATM   18  N   UNL     1     -45.502 -51.923  13.366  1.00  0.00     0.090 N 
HETATM   19  C   UNL     1     -46.453 -52.208  12.285  1.00  0.00     0.310 C 
HETATM   20  C   UNL     1     -46.256 -51.444  14.531  1.00  0.00     0.310 C 
ENDBRANCH  15  18
ENDBRANCH  14  15
ENDBRANCH  11  14
ENDBRANCH   1  10
BRANCH   4  21
HETATM   21  N   UNL     1     -42.236 -47.292  10.406  1.00  0.00    -0.214 N 
HETATM   22  C   UNL     1     -41.837 -45.882  10.372  1.00  0.00     0.167 C 
HETATM   23  C   UNL     1     -43.063 -45.027   9.993  1.00  0.00     0.188 C 
HETATM   24  O   UNL     1     -43.650 -45.455   8.752  1.00  0.00    -0.388 OA
HETATM   25  C   UNL     1     -44.061 -46.829   8.843  1.00  0.00     0.188 C 
HETATM   26  C   UNL     1     -42.872 -47.748   9.160  1.00  0.00     0.167 C 
ENDBRANCH   4  21
TORSDOF 5
ENDMDL
MODEL 3
REMARK VINA RESULT:      -6.4      1.450      2.203
REMARK  5 active torsions:
REMARK  status: ('A' for Active; 'I' for Inactive)
REMARK    1  A    between atoms: N_2  and  C_4 
REMARK    2  A    between atoms: C_4  and  C_7 
REMARK    3  A    between atoms: C_7  and  N_8 
REMARK       I    between atoms: N_8  and  C_9 
REMARK    4  A    between atoms: C_9  and  C_11 
REMARK    5  A    between atoms: C_14  and  N_20 
ROOT
HETATM    1  C   UNL     1     -42.319 -50.345  12.354  1.00  0.00     0.139 A 
HETATM    2  N   UNL     1     -42.766 -49.168  11.815  1.00  0.00    -0.184 N 
ATOM      3  HN  UNL     1     -43.691 -48.800  12.038  1.00  0.00     0.184 HD
HETATM    4  C   UNL     1     -41.939 -48.518  10.983  1.00  0.00     0.680 A 
HETATM    5  N   UNL     1     -40.718 -48.989  10.682  1.00  0.00    -0.200 N 
ATOM      6  HN  UNL     1     -40.100 -48.470  10.057  1.00  0.00     0.183 HD
HETATM    7  C   UNL     1     -40.324 -50.161  11.221  1.00  0.00     0.132 A 
HETATM    8  C   UNL     1     -41.093 -50.909  12.071  1.00  0.00     0.082 A 
HETATM    9 CL   UNL     1     -40.513 -52.436  12.592  1.00  0.00    -0.080 Cl
ENDROOT
BRANCH   1  10
HETATM   10  C   UNL     1     -43.293 -51.031  13.264  1.00  0.00     0.270 C 
HETATM   11  N   UNL     1     -44.044 -52.031  12.673  1.00  0.00    -0.353 N 
HETATM   12  H   UNL     1     -44.020 -52.055  11.659  1.00  0.00     0.162 HD
HETATM   13  O   UNL     1     -43.413 -50.714  14.442  1.00  0.00    -0.266 OA
BRANCH  11  14
HETATM   14  C   UNL     1     -45.073 -52.750  13.415  1.00  0.00     0.164 C 
BRANCH  14  15
HETATM   15  C   UNL     1     -44.575 -54.009  14.216  1.00  0.00     0.167 C 
HETATM   16  C   UNL     1     -43.184 -54.424  13.684  1.00  0.00     0.050 C 
HETATM   17  C   UNL     1     -45.576 -55.159  13.932  1.00  0.00     0.050 C 
BRANCH  15  18
HETATM   18  N   UNL     1     -44.571 -53.735  15.695  1.00  0.00     0.090 N 
HETATM   19  C   UNL     1     -45.853 -53.960  16.373  1.00  0.00     0.310 C 
HETATM   20  C   UNL     1     -43.521 -54.433  16.447  1.00  0.00     0.310 C 
ENDBRANCH  15  18
ENDBRANCH  14  15
ENDBRANCH  11  14
ENDBRANCH   1  10
BRANCH   4  21
HETATM   21  N   UNL     1     -42.382 -47.387  10.323  1.00  0.00    -0.214 N 
HETATM   22  C   UNL     1     -43.353 -47.567   9.240  1.00  0.00     0.167 C 
HETATM   23  C   UNL     1     -43.411 -46.273   8.405  1.00  0.00     0.188 C 
HETATM   24  O   UNL     1     -43.712 -45.125   9.217  1.00  0.00    -0.388 OA
HETATM   25  C   UNL     1     -42.716 -44.964  10.240  1.00  0.00     0.188 C 
HETATM   26  C   UNL     1     -42.646 -46.200  11.151  1.00  0.00     0.167 C 
ENDBRANCH   4  21
TORSDOF 5
ENDMDL
MODEL 4
REMARK VINA RESULT:      -6.3      2.186      6.698
REMARK  5 active torsions:
REMARK  status: ('A' for Active; 'I' for Inactive)
REMARK    1  A    between atoms: N_2  and  C_4 
REMARK    2  A    between atoms: C_4  and  C_7 
REMARK    3  A    between atoms: C_7  and  N_8 
REMARK       I    between atoms: N_8  and  C_9 
REMARK    4  A    between atoms: C_9  and  C_11 
REMARK    5  A    between atoms: C_14  and  N_20 
ROOT
HETATM    1  C   UNL     1     -41.690 -50.023  12.021  1.00  0.00     0.139 A 
HETATM    2  N   UNL     1     -42.699 -50.853  12.434  1.00  0.00    -0.184 N 
ATOM      3  HN  UNL     1     -43.664 -50.527  12.492  1.00  0.00     0.184 HD
HETATM    4  C   UNL     1     -42.367 -52.112  12.759  1.00  0.00     0.680 A 
HETATM    5  N   UNL     1     -41.102 -52.556  12.686  1.00  0.00    -0.200 N 
ATOM      6  HN  UNL     1     -40.875 -53.521  12.924  1.00  0.00     0.183 HD
HETATM    7  C   UNL     1     -40.137 -51.700  12.290  1.00  0.00     0.132 A 
HETATM    8  C   UNL     1     -40.365 -50.395  11.948  1.00  0.00     0.082 A 
HETATM    9 CL   UNL     1     -39.029 -49.387  11.574  1.00  0.00    -0.080 Cl
ENDROOT
BRANCH   1  10
HETATM   10  C   UNL     1     -42.122 -48.627  11.686  1.00  0.00     0.270 C 
HETATM   11  N   UNL     1     -43.390 -48.520  11.144  1.00  0.00    -0.353 N 
HETATM   12  H   UNL     1     -43.808 -49.390  10.832  1.00  0.00     0.162 HD
HETATM   13  O   UNL     1     -41.393 -47.660  11.874  1.00  0.00    -0.266 OA
BRANCH  11  14
HETATM   14  C   UNL     1     -43.928 -47.234  10.714  1.00  0.00     0.164 C 
BRANCH  14  15
HETATM   15  C   UNL     1     -44.385 -47.159   9.210  1.00  0.00     0.167 C 
HETATM   16  C   UNL     1     -43.273 -47.759   8.319  1.00  0.00     0.050 C 
HETATM   17  C   UNL     1     -44.547 -45.659   8.854  1.00  0.00     0.050 C 
BRANCH  15  18
HETATM   18  N   UNL     1     -45.712 -47.841   9.020  1.00  0.00     0.090 N 
HETATM   19  C   UNL     1     -46.884 -46.968   9.154  1.00  0.00     0.310 C 
HETATM   20  C   UNL     1     -45.839 -48.599   7.769  1.00  0.00     0.310 C 
ENDBRANCH  15  18
ENDBRANCH  14  15
ENDBRANCH  11  14
ENDBRANCH   1  10
BRANCH   4  21
HETATM   21  N   UNL     1     -43.324 -52.956  13.290  1.00  0.00    -0.214 N 
HETATM   22  C   UNL     1     -44.558 -53.154  12.524  1.00  0.00     0.167 C 
HETATM   23  C   UNL     1     -45.617 -53.791  13.444  1.00  0.00     0.188 C 
HETATM   24  O   UNL     1     -45.145 -55.013  14.038  1.00  0.00    -0.388 OA
HETATM   25  C   UNL     1     -43.959 -54.766  14.809  1.00  0.00     0.188 C 
HETATM   26  C   UNL     1     -42.836 -54.184  13.937  1.00  0.00     0.167 C 
ENDBRANCH   4  21
TORSDOF 5
ENDMDL
MODEL 5
REMARK VINA RESULT:      -6.2      2.032      6.514
REMARK  5 active torsions:
REMARK  status: ('A' for Active; 'I' for Inactive)
REMARK    1  A    between atoms: N_2  and  C_4 
REMARK    2  A    between atoms: C_4  and  C_7 
REMARK    3  A    between atoms: C_7  and  N_8 
REMARK       I    between atoms: N_8  and  C_9 
REMARK    4  A    between atoms: C_9  and  C_11 
REMARK    5  A    between atoms: C_14  and  N_20 
ROOT
HETATM    1  C   UNL     1     -40.905 -50.908  12.099  1.00  0.00     0.139 A 
HETATM    2  N   UNL     1     -42.189 -51.379  12.167  1.00  0.00    -0.184 N 
ATOM      3  HN  UNL     1     -42.966 -50.867  11.749  1.00  0.00     0.184 HD
HETATM    4  C   UNL     1     -42.385 -52.543  12.804  1.00  0.00     0.680 A 
HETATM    5  N   UNL     1     -41.373 -53.231  13.358  1.00  0.00    -0.200 N 
ATOM      6  HN  UNL     1     -41.544 -54.121  13.825  1.00  0.00     0.183 HD
HETATM    7  C   UNL     1     -40.126 -52.721  13.282  1.00  0.00     0.132 A 
HETATM    8  C   UNL     1     -39.818 -51.539  12.665  1.00  0.00     0.082 A 
HETATM    9 CL   UNL     1     -38.209 -50.954  12.744  1.00  0.00    -0.080 Cl
ENDROOT
BRANCH   1  10
HETATM   10  C   UNL     1     -40.753 -49.598  11.386  1.00  0.00     0.270 C 
HETATM   11  N   UNL     1     -41.884 -49.157  10.722  1.00  0.00    -0.353 N 
HETATM   12  H   UNL     1     -42.618 -49.847  10.602  1.00  0.00     0.162 HD
HETATM   13  O   UNL     1     -39.697 -48.975  11.391  1.00  0.00    -0.266 OA
BRANCH  11  14
HETATM   14  C   UNL     1     -41.875 -47.928   9.936  1.00  0.00     0.164 C 
BRANCH  14  15
HETATM   15  C   UNL     1     -43.119 -46.987  10.138  1.00  0.00     0.167 C 
HETATM   16  C   UNL     1     -42.621 -45.555  10.442  1.00  0.00     0.050 C 
HETATM   17  C   UNL     1     -43.897 -47.511  11.372  1.00  0.00     0.050 C 
BRANCH  15  18
HETATM   18  N   UNL     1     -44.030 -47.041   8.941  1.00  0.00     0.090 N 
HETATM   19  C   UNL     1     -43.506 -47.793   7.796  1.00  0.00     0.310 C 
HETATM   20  C   UNL     1     -45.389 -47.517   9.225  1.00  0.00     0.310 C 
ENDBRANCH  15  18
ENDBRANCH  14  15
ENDBRANCH  11  14
ENDBRANCH   1  10
BRANCH   4  21
HETATM   21  N   UNL     1     -43.672 -53.007  13.002  1.00  0.00    -0.214 N 
HETATM   22  C   UNL     1     -43.845 -54.201  13.834  1.00  0.00     0.167 C 
HETATM   23  C   UNL     1     -45.263 -54.762  13.610  1.00  0.00     0.188 C 
HETATM   24  O   UNL     1     -46.276 -53.773  13.862  1.00  0.00    -0.388 OA
HETATM   25  C   UNL     1     -46.091 -52.639  13.001  1.00  0.00     0.188 C 
HETATM   26  C   UNL     1     -44.715 -51.992  13.216  1.00  0.00     0.167 C 
ENDBRANCH   4  21
TORSDOF 5
ENDMDL
MODEL 6
REMARK VINA RESULT:      -6.1      2.032      7.006
REMARK  5 active torsions:
REMARK  status: ('A' for Active; 'I' for Inactive)
REMARK    1  A    between atoms: N_2  and  C_4 
REMARK    2  A    between atoms: C_4  and  C_7 
REMARK    3  A    between atoms: C_7  and  N_8 
REMARK       I    between atoms: N_8  and  C_9 
REMARK    4  A    between atoms: C_9  and  C_11 
REMARK    5  A    between atoms: C_14  and  N_20 
ROOT
HETATM    1  C   UNL     1     -41.088 -51.227  12.292  1.00  0.00     0.139 A 
HETATM    2  N   UNL     1     -42.372 -51.698  12.374  1.00  0.00    -0.184 N 
ATOM      3  HN  UNL     1     -43.133 -51.257  11.858  1.00  0.00     0.184 HD
HETATM    4  C   UNL     1     -42.587 -52.765  13.158  1.00  0.00     0.680 A 
HETATM    5  N   UNL     1     -41.595 -53.358  13.841  1.00  0.00    -0.200 N 
ATOM      6  HN  UNL     1     -41.781 -54.177  14.421  1.00  0.00     0.183 HD
HETATM    7  C   UNL     1     -40.349 -52.850  13.746  1.00  0.00     0.132 A 
HETATM    8  C   UNL     1     -40.023 -51.761  12.984  1.00  0.00     0.082 A 
HETATM    9 CL   UNL     1     -38.421 -51.153  13.045  1.00  0.00    -0.080 Cl
ENDROOT
BRANCH   1  10
HETATM   10  C   UNL     1     -40.914 -50.026  11.412  1.00  0.00     0.270 C 
HETATM   11  N   UNL     1     -42.059 -49.278  11.207  1.00  0.00    -0.353 N 
HETATM   12  H   UNL     1     -42.928 -49.722  11.486  1.00  0.00     0.162 HD
HETATM   13  O   UNL     1     -39.833 -49.742  10.907  1.00  0.00    -0.266 OA
BRANCH  11  14
HETATM   14  C   UNL     1     -42.061 -48.113  10.329  1.00  0.00     0.164 C 
BRANCH  14  15
HETATM   15  C   UNL     1     -41.842 -46.727  11.041  1.00  0.00     0.167 C 
HETATM   16  C   UNL     1     -42.476 -46.782  12.450  1.00  0.00     0.050 C 
HETATM   17  C   UNL     1     -42.589 -45.658  10.204  1.00  0.00     0.050 C 
BRANCH  15  18
HETATM   18  N   UNL     1     -40.381 -46.370  11.077  1.00  0.00     0.090 N 
HETATM   19  C   UNL     1     -40.033 -45.110  10.410  1.00  0.00     0.310 C 
HETATM   20  C   UNL     1     -39.783 -46.364  12.417  1.00  0.00     0.310 C 
ENDBRANCH  15  18
ENDBRANCH  14  15
ENDBRANCH  11  14
ENDBRANCH   1  10
BRANCH   4  21
HETATM   21  N   UNL     1     -43.879 -53.211  13.366  1.00  0.00    -0.214 N 
HETATM   22  C   UNL     1     -44.055 -54.473  14.091  1.00  0.00     0.167 C 
HETATM   23  C   UNL     1     -45.497 -54.972  13.876  1.00  0.00     0.188 C 
HETATM   24  O   UNL     1     -46.469 -53.985  14.261  1.00  0.00    -0.388 OA
HETATM   25  C   UNL     1     -46.284 -52.780  13.501  1.00  0.00     0.188 C 
HETATM   26  C   UNL     1     -44.882 -52.193  13.717  1.00  0.00     0.167 C 
ENDBRANCH   4  21
TORSDOF 5
ENDMDL
MODEL 7
REMARK VINA RESULT:      -5.9      2.331      7.356
REMARK  5 active torsions:
REMARK  status: ('A' for Active; 'I' for Inactive)
REMARK    1  A    between atoms: N_2  and  C_4 
REMARK    2  A    between atoms: C_4  and  C_7 
REMARK    3  A    between atoms: C_7  and  N_8 
REMARK       I    between atoms: N_8  and  C_9 
REMARK    4  A    between atoms: C_9  and  C_11 
REMARK    5  A    between atoms: C_14  and  N_20 
ROOT
HETATM    1  C   UNL     1     -41.429 -49.704  11.700  1.00  0.00     0.139 A 
HETATM    2  N   UNL     1     -42.581 -50.353  12.058  1.00  0.00    -0.184 N 
ATOM      3  HN  UNL     1     -43.497 -49.929  11.911  1.00  0.00     0.184 HD
HETATM    4  C   UNL     1     -42.456 -51.570  12.609  1.00  0.00     0.680 A 
HETATM    5  N   UNL     1     -41.257 -52.142  12.807  1.00  0.00    -0.200 N 
ATOM      6  HN  UNL     1     -41.187 -53.074  13.215  1.00  0.00     0.183 HD
HETATM    7  C   UNL     1     -40.148 -51.459  12.455  1.00  0.00     0.132 A 
HETATM    8  C   UNL     1     -40.163 -50.210  11.897  1.00  0.00     0.082 A 
HETATM    9 CL   UNL     1     -38.674 -49.411  11.605  1.00  0.00    -0.080 Cl
ENDROOT
BRANCH   1  10
HETATM   10  C   UNL     1     -41.634 -48.344  11.103  1.00  0.00     0.270 C 
HETATM   11  N   UNL     1     -41.556 -47.292  11.998  1.00  0.00    -0.353 N 
HETATM   12  H   UNL     1     -41.585 -47.549  12.979  1.00  0.00     0.162 HD
HETATM   13  O   UNL     1     -41.862 -48.187   9.908  1.00  0.00    -0.266 OA
BRANCH  11  14
HETATM   14  C   UNL     1     -41.790 -45.915  11.577  1.00  0.00     0.164 C 
BRANCH  14  15
HETATM   15  C   UNL     1     -40.586 -44.926  11.800  1.00  0.00     0.167 C 
HETATM   16  C   UNL     1     -39.837 -44.739  10.460  1.00  0.00     0.050 C 
HETATM   17  C   UNL     1     -39.623 -45.595  12.814  1.00  0.00     0.050 C 
BRANCH  15  18
HETATM   18  N   UNL     1     -41.065 -43.624  12.382  1.00  0.00     0.090 N 
HETATM   19  C   UNL     1     -40.483 -42.421  11.775  1.00  0.00     0.310 C 
HETATM   20  C   UNL     1     -42.523 -43.466  12.418  1.00  0.00     0.310 C 
ENDBRANCH  15  18
ENDBRANCH  14  15
ENDBRANCH  11  14
ENDBRANCH   1  10
BRANCH   4  21
HETATM   21  N   UNL     1     -43.575 -52.220  13.093  1.00  0.00    -0.214 N 
HETATM   22  C   UNL     1     -44.757 -51.407  13.398  1.00  0.00     0.167 C 
HETATM   23  C   UNL     1     -45.721 -52.238  14.266  1.00  0.00     0.188 C 
HETATM   24  O   UNL     1     -46.067 -53.485  13.639  1.00  0.00    -0.388 OA
HETATM   25  C   UNL     1     -44.886 -54.265  13.394  1.00  0.00     0.188 C 
HETATM   26  C   UNL     1     -43.903 -53.517  12.481  1.00  0.00     0.167 C 
ENDBRANCH   4  21
TORSDOF 5
ENDMDL
MODEL 8
REMARK VINA RESULT:      -5.8      1.828      2.175
REMARK  5 active torsions:
REMARK  status: ('A' for Active; 'I' for Inactive)
REMARK    1  A    between atoms: N_2  and  C_4 
REMARK    2  A    between atoms: C_4  and  C_7 
REMARK    3  A    between atoms: C_7  and  N_8 
REMARK       I    between atoms: N_8  and  C_9 
REMARK    4  A    between atoms: C_9  and  C_11 
REMARK    5  A    between atoms: C_14  and  N_20 
ROOT
HETATM    1  C   UNL     1     -41.623 -49.774  12.885  1.00  0.00     0.139 A 
HETATM    2  N   UNL     1     -41.664 -48.412  12.738  1.00  0.00    -0.184 N 
ATOM      3  HN  UNL     1     -42.193 -47.824  13.382  1.00  0.00     0.184 HD
HETATM    4  C   UNL     1     -40.979 -47.883  11.713  1.00  0.00     0.680 A 
HETATM    5  N   UNL     1     -40.277 -48.643  10.858  1.00  0.00    -0.200 N 
ATOM      6  HN  UNL     1     -39.752 -48.217  10.094  1.00  0.00     0.183 HD
HETATM    7  C   UNL     1     -40.278 -49.981  11.030  1.00  0.00     0.132 A 
HETATM    8  C   UNL     1     -40.950 -50.624  12.034  1.00  0.00     0.082 A 
HETATM    9 CL   UNL     1     -40.959 -52.338  12.066  1.00  0.00    -0.080 Cl
ENDROOT
BRANCH   1  10
HETATM   10  C   UNL     1     -42.418 -50.305  14.040  1.00  0.00     0.270 C 
HETATM   11  N   UNL     1     -43.788 -50.316  13.853  1.00  0.00    -0.353 N 
HETATM   12  H   UNL     1     -44.127 -49.776  13.063  1.00  0.00     0.162 HD
HETATM   13  O   UNL     1     -41.883 -50.692  15.073  1.00  0.00    -0.266 OA
BRANCH  11  14
HETATM   14  C   UNL     1     -44.697 -50.751  14.907  1.00  0.00     0.164 C 
BRANCH  14  15
HETATM   15  C   UNL     1     -45.785 -51.802  14.472  1.00  0.00     0.167 C 
HETATM   16  C   UNL     1     -46.196 -51.521  13.008  1.00  0.00     0.050 C 
HETATM   17  C   UNL     1     -47.022 -51.585  15.382  1.00  0.00     0.050 C 
BRANCH  15  18
HETATM   18  N   UNL     1     -45.284 -53.205  14.674  1.00  0.00     0.090 N 
HETATM   19  C   UNL     1     -44.310 -53.367  15.759  1.00  0.00     0.310 C 
HETATM   20  C   UNL     1     -46.336 -54.215  14.842  1.00  0.00     0.310 C 
ENDBRANCH  15  18
ENDBRANCH  14  15
ENDBRANCH  11  14
ENDBRANCH   1  10
BRANCH   4  21
HETATM   21  N   UNL     1     -41.079 -46.530  11.450  1.00  0.00    -0.214 N 
HETATM   22  C   UNL     1     -39.916 -45.864  10.857  1.00  0.00     0.167 C 
HETATM   23  C   UNL     1     -40.085 -44.339  11.007  1.00  0.00     0.188 C 
HETATM   24  O   UNL     1     -41.323 -43.879  10.438  1.00  0.00    -0.388 OA
HETATM   25  C   UNL     1     -42.435 -44.528  11.074  1.00  0.00     0.188 C 
HETATM   26  C   UNL     1     -42.361 -46.053  10.910  1.00  0.00     0.167 C 
ENDBRANCH   4  21
TORSDOF 5
ENDMDL
MODEL 9
REMARK VINA RESULT:      -5.7      2.307      7.346
REMARK  5 active torsions:
REMARK  status: ('A' for Active; 'I' for Inactive)
REMARK    1  A    between atoms: N_2  and  C_4 
REMARK    2  A    between atoms: C_4  and  C_7 
REMARK    3  A    between atoms: C_7  and  N_8 
REMARK       I    between atoms: N_8  and  C_9 
REMARK    4  A    between atoms: C_9  and  C_11 
REMARK    5  A    between atoms: C_14  and  N_20 
ROOT
HETATM    1  C   UNL     1     -42.305 -50.371  12.824  1.00  0.00     0.139 A 
HETATM    2  N   UNL     1     -43.402 -51.063  13.266  1.00  0.00    -0.184 N 
ATOM      3  HN  UNL     1     -44.129 -50.609  13.819  1.00  0.00     0.184 HD
HETATM    4  C   UNL     1     -43.482 -52.362  12.941  1.00  0.00     0.680 A 
HETATM    5  N   UNL     1     -42.535 -52.974  12.212  1.00  0.00    -0.200 N 
ATOM      6  HN  UNL     1     -42.624 -53.959  11.965  1.00  0.00     0.183 HD
HETATM    7  C   UNL     1     -41.463 -52.258  11.812  1.00  0.00     0.132 A 
HETATM    8  C   UNL     1     -41.278 -50.933  12.097  1.00  0.00     0.082 A 
HETATM    9 CL   UNL     1     -39.814 -50.176  11.624  1.00  0.00    -0.080 Cl
ENDROOT
BRANCH   1  10
HETATM   10  C   UNL     1     -42.267 -48.929  13.230  1.00  0.00     0.270 C 
HETATM   11  N   UNL     1     -42.883 -48.056  12.352  1.00  0.00    -0.353 N 
HETATM   12  H   UNL     1     -43.104 -48.437  11.438  1.00  0.00     0.162 HD
HETATM   13  O   UNL     1     -41.718 -48.560  14.263  1.00  0.00    -0.266 OA
BRANCH  11  14
HETATM   14  C   UNL     1     -42.879 -46.615  12.582  1.00  0.00     0.164 C 
BRANCH  14  15
HETATM   15  C   UNL     1     -42.116 -45.760  11.504  1.00  0.00     0.167 C 
HETATM   16  C   UNL     1     -42.410 -44.262  11.753  1.00  0.00     0.050 C 
HETATM   17  C   UNL     1     -42.689 -46.151  10.117  1.00  0.00     0.050 C 
BRANCH  15  18
HETATM   18  N   UNL     1     -40.645 -46.071  11.517  1.00  0.00     0.090 N 
HETATM   19  C   UNL     1     -39.861 -45.412  10.466  1.00  0.00     0.310 C 
HETATM   20  C   UNL     1     -39.979 -45.839  12.805  1.00  0.00     0.310 C 
ENDBRANCH  15  18
ENDBRANCH  14  15
ENDBRANCH  11  14
ENDBRANCH   1  10
BRANCH   4  21
HETATM   21  N   UNL     1     -44.506 -53.134  13.456  1.00  0.00    -0.214 N 
HETATM   22  C   UNL     1     -44.247 -54.563  13.660  1.00  0.00     0.167 C 
HETATM   23  C   UNL     1     -45.592 -55.289  13.859  1.00  0.00     0.188 C 
HETATM   24  O   UNL     1     -46.355 -54.717  14.935  1.00  0.00    -0.388 OA
HETATM   25  C   UNL     1     -46.619 -53.329  14.676  1.00  0.00     0.188 C 
HETATM   26  C   UNL     1     -45.315 -52.531  14.527  1.00  0.00     0.167 C 
ENDBRANCH   4  21
TORSDOF 5
ENDMDL
