MODEL 1
REMARK VINA RESULT:      -7.0      0.000      0.000
REMARK  8 active torsions:
REMARK  status: ('A' for Active; 'I' for Inactive)
REMARK    1  A    between atoms: N_2  and  C_13 
REMARK    2  A    between atoms: N_4  and  C_7 
REMARK    3  A    between atoms: C_13  and  C_18 
REMARK    4  A    between atoms: C_18  and  C_22 
REMARK    5  A    between atoms: C_18  and  C_23 
REMARK    6  A    between atoms: C_20  and  C_26 
REMARK    7  A    between atoms: C_23  and  O_25 
REMARK    8  A    between atoms: C_26  and  O_29 
ROOT
HETATM    1  C   UNL     1     -41.348 -49.406  12.428  1.00  0.00     0.117 A 
HETATM    2  N   UNL     1     -41.496 -51.208  13.650  1.00  0.00    -0.327 N 
HETATM    3  C   UNL     1     -40.695 -50.590  12.726  1.00  0.00     0.140 A 
HETATM    4  N   UNL     1     -42.566 -49.348  13.072  1.00  0.00    -0.346 N 
ATOM      5  HN  UNL     1     -43.275 -48.619  12.993  1.00  0.00     0.167 HD
HETATM    6  C   UNL     1     -40.666 -48.488  11.596  1.00  0.00     0.114 A 
HETATM    7  C   UNL     1     -42.618 -50.438  13.812  1.00  0.00     0.185 A 
HETATM    8  N   UNL     1     -39.500 -50.997  12.268  1.00  0.00    -0.336 N 
ATOM      9  HN  UNL     1     -39.063 -51.889  12.500  1.00  0.00     0.168 HD
HETATM   10  N   UNL     1     -39.444 -48.847  11.125  1.00  0.00    -0.341 N 
ATOM     11  HN  UNL     1     -38.905 -48.214  10.534  1.00  0.00     0.167 HD
HETATM   12  C   UNL     1     -38.957 -50.064  11.458  1.00  0.00     0.183 A 
ENDROOT
BRANCH   6  13
HETATM   13  N   UNL     1     -41.228 -47.253  11.299  1.00  0.00    -0.262 NA
HETATM   14  C   UNL     1     -40.352 -46.080  11.268  1.00  0.00     0.134 C 
HETATM   15  C   UNL     1     -41.254 -44.807  11.205  1.00  0.00     0.066 C 
HETATM   16  O   UNL     1     -42.161 -44.869  10.069  1.00  0.00    -0.371 OA
HETATM   17  C   UNL     1     -42.041 -44.614  12.516  1.00  0.00     0.047 C 
HETATM   18  C   UNL     1     -40.385 -43.564  10.985  1.00  0.00     0.047 C 
HETATM   19  C   UNL     1     -42.966 -46.070  10.052  1.00  0.00     0.159 C 
HETATM   20  C   UNL     1     -42.093 -47.337  10.115  1.00  0.00     0.131 C 
BRANCH  19  21
HETATM   21  C   UNL     1     -43.820 -46.099   8.780  1.00  0.00     0.200 C 
BRANCH  21  22
HETATM   22  O   UNL     1     -44.377 -47.405   8.617  1.00  0.00    -0.393 OA
HETATM   23  C   UNL     1     -45.714 -47.489   9.082  1.00  0.00     0.201 C 
ENDBRANCH  21  22
ENDBRANCH  19  21
ENDBRANCH   6  13
BRANCH   2  24
HETATM   24  C   UNL     1     -41.083 -52.274  14.531  1.00  0.00     0.138 C 
BRANCH  24  25
HETATM   25  C   UNL     1     -41.743 -53.652  14.316  1.00  0.00     0.034 C 
BRANCH  25  26
HETATM   26  C   UNL     1     -43.286 -53.605  14.468  1.00  0.00     0.019 C 
HETATM   27  C   UNL     1     -43.834 -54.628  15.465  1.00  0.00     0.172 C 
HETATM   28  O   UNL     1     -44.540 -55.605  14.694  1.00  0.00    -0.391 OA
HETATM   29  C   UNL     1     -45.104 -54.907  13.583  1.00  0.00     0.168 C 
HETATM   30  C   UNL     1     -44.058 -53.891  13.183  1.00  0.00     0.033 C 
ENDBRANCH  25  26
BRANCH  25  31
HETATM   31  C   UNL     1     -41.275 -54.203  12.954  1.00  0.00     0.170 C 
BRANCH  31  32
HETATM   32  O   UNL     1     -39.862 -54.067  12.840  1.00  0.00    -0.400 OA
HETATM   33  H   UNL     1     -39.502 -53.856  13.719  1.00  0.00     0.209 HD
ENDBRANCH  31  32
ENDBRANCH  25  31
ENDBRANCH  24  25
ENDBRANCH   2  24
TORSDOF 8
ENDMDL
MODEL 2
REMARK VINA RESULT:      -6.6      1.438      2.098
REMARK  8 active torsions:
REMARK  status: ('A' for Active; 'I' for Inactive)
REMARK    1  A    between atoms: N_2  and  C_13 
REMARK    2  A    between atoms: N_4  and  C_7 
REMARK    3  A    between atoms: C_13  and  C_18 
REMARK    4  A    between atoms: C_18  and  C_22 
REMARK    5  A    between atoms: C_18  and  C_23 
REMARK    6  A    between atoms: C_20  and  C_26 
REMARK    7  A    between atoms: C_23  and  O_25 
REMARK    8  A    between atoms: C_26  and  O_29 
ROOT
HETATM    1  C   UNL     1     -42.155 -49.796  12.351  1.00  0.00     0.117 A 
HETATM    2  N   UNL     1     -42.878 -51.491  13.519  1.00  0.00    -0.327 N 
HETATM    3  C   UNL     1     -41.771 -51.024  12.860  1.00  0.00     0.140 A 
HETATM    4  N   UNL     1     -43.492 -49.562  12.601  1.00  0.00    -0.346 N 
ATOM      5  HN  UNL     1     -44.049 -48.765  12.295  1.00  0.00     0.167 HD
HETATM    6  C   UNL     1     -41.150 -49.013  11.737  1.00  0.00     0.114 A 
HETATM    7  C   UNL     1     -43.893 -50.592  13.320  1.00  0.00     0.185 A 
HETATM    8  N   UNL     1     -40.555 -51.589  12.790  1.00  0.00    -0.336 N 
ATOM      9  HN  UNL     1     -40.319 -52.508  13.165  1.00  0.00     0.168 HD
HETATM   10  N   UNL     1     -39.899 -49.534  11.661  1.00  0.00    -0.341 N 
ATOM     11  HN  UNL     1     -39.136 -49.002  11.241  1.00  0.00     0.167 HD
HETATM   12  C   UNL     1     -39.687 -50.774  12.155  1.00  0.00     0.183 A 
ENDROOT
BRANCH   6  13
HETATM   13  N   UNL     1     -41.442 -47.743  11.254  1.00  0.00    -0.262 NA
HETATM   14  C   UNL     1     -40.341 -46.792  11.087  1.00  0.00     0.134 C 
HETATM   15  C   UNL     1     -40.958 -45.383  10.820  1.00  0.00     0.066 C 
HETATM   16  O   UNL     1     -41.856 -45.418   9.676  1.00  0.00    -0.371 OA
HETATM   17  C   UNL     1     -41.688 -44.847  12.066  1.00  0.00     0.047 C 
HETATM   18  C   UNL     1     -39.848 -44.390  10.456  1.00  0.00     0.047 C 
HETATM   19  C   UNL     1     -42.895 -46.417   9.802  1.00  0.00     0.159 C 
HETATM   20  C   UNL     1     -42.304 -47.814  10.067  1.00  0.00     0.131 C 
BRANCH  19  21
HETATM   21  C   UNL     1     -43.734 -46.450   8.521  1.00  0.00     0.200 C 
BRANCH  21  22
HETATM   22  O   UNL     1     -45.060 -46.006   8.816  1.00  0.00    -0.393 OA
HETATM   23  C   UNL     1     -45.946 -47.081   9.084  1.00  0.00     0.201 C 
ENDBRANCH  21  22
ENDBRANCH  19  21
ENDBRANCH   6  13
BRANCH   2  24
HETATM   24  C   UNL     1     -42.878 -52.540  14.511  1.00  0.00     0.138 C 
BRANCH  24  25
HETATM   25  C   UNL     1     -43.001 -53.988  13.994  1.00  0.00     0.034 C 
BRANCH  25  26
HETATM   26  C   UNL     1     -42.083 -54.976  14.762  1.00  0.00     0.019 C 
HETATM   27  C   UNL     1     -42.608 -55.344  16.152  1.00  0.00     0.172 C 
HETATM   28  O   UNL     1     -41.724 -54.727  17.093  1.00  0.00    -0.391 OA
HETATM   29  C   UNL     1     -40.428 -54.736  16.491  1.00  0.00     0.168 C 
HETATM   30  C   UNL     1     -40.673 -54.455  15.025  1.00  0.00     0.033 C 
ENDBRANCH  25  26
BRANCH  25  31
HETATM   31  C   UNL     1     -44.491 -54.386  14.021  1.00  0.00     0.170 C 
BRANCH  31  32
HETATM   32  O   UNL     1     -44.972 -54.536  12.688  1.00  0.00    -0.400 OA
HETATM   33  H   UNL     1     -45.074 -55.487  12.505  1.00  0.00     0.209 HD
ENDBRANCH  31  32
ENDBRANCH  25  31
ENDBRANCH  24  25
ENDBRANCH   2  24
TORSDOF 8
ENDMDL
MODEL 3
REMARK VINA RESULT:      -6.3      1.630      2.171
REMARK  8 active torsions:
REMARK  status: ('A' for Active; 'I' for Inactive)
REMARK    1  A    between atoms: N_2  and  C_13 
REMARK    2  A    between atoms: N_4  and  C_7 
REMARK    3  A    between atoms: C_13  and  C_18 
REMARK    4  A    between atoms: C_18  and  C_22 
REMARK    5  A    between atoms: C_18  and  C_23 
REMARK    6  A    between atoms: C_20  and  C_26 
REMARK    7  A    between atoms: C_23  and  O_25 
REMARK    8  A    between atoms: C_26  and  O_29 
ROOT
HETATM    1  C   UNL     1     -40.929 -49.294  12.726  1.00  0.00     0.117 A 
HETATM    2  N   UNL     1     -40.842 -51.432  13.151  1.00  0.00    -0.327 N 
HETATM    3  C   UNL     1     -40.818 -50.205  13.760  1.00  0.00     0.140 A 
HETATM    4  N   UNL     1     -40.917 -49.939  11.506  1.00  0.00    -0.346 N 
ATOM      5  HN  UNL     1     -40.932 -49.514  10.580  1.00  0.00     0.167 HD
HETATM    6  C   UNL     1     -41.077 -47.933  13.081  1.00  0.00     0.114 A 
HETATM    7  C   UNL     1     -40.882 -51.225  11.797  1.00  0.00     0.185 A 
HETATM    8  N   UNL     1     -40.778 -49.940  15.077  1.00  0.00    -0.336 N 
ATOM      9  HN  UNL     1     -40.677 -50.645  15.808  1.00  0.00     0.168 HD
HETATM   10  N   UNL     1     -41.064 -47.618  14.402  1.00  0.00    -0.341 N 
ATOM     11  HN  UNL     1     -41.182 -46.653  14.709  1.00  0.00     0.167 HD
HETATM   12  C   UNL     1     -40.891 -48.614  15.299  1.00  0.00     0.183 A 
ENDROOT
BRANCH   6  13
HETATM   13  N   UNL     1     -41.254 -46.964  12.101  1.00  0.00    -0.262 NA
HETATM   14  C   UNL     1     -40.079 -46.502  11.360  1.00  0.00     0.134 C 
HETATM   15  C   UNL     1     -40.490 -45.235  10.546  1.00  0.00     0.066 C 
HETATM   16  O   UNL     1     -41.629 -45.517   9.686  1.00  0.00    -0.371 OA
HETATM   17  C   UNL     1     -40.797 -44.047  11.479  1.00  0.00     0.047 C 
HETATM   18  C   UNL     1     -39.347 -44.822   9.612  1.00  0.00     0.047 C 
HETATM   19  C   UNL     1     -42.762 -46.055  10.406  1.00  0.00     0.159 C 
HETATM   20  C   UNL     1     -42.375 -47.306  11.216  1.00  0.00     0.131 C 
BRANCH  19  21
HETATM   21  C   UNL     1     -43.878 -46.409   9.417  1.00  0.00     0.200 C 
BRANCH  21  22
HETATM   22  O   UNL     1     -43.314 -46.587   8.116  1.00  0.00    -0.393 OA
HETATM   23  C   UNL     1     -43.480 -47.908   7.627  1.00  0.00     0.201 C 
ENDBRANCH  21  22
ENDBRANCH  19  21
ENDBRANCH   6  13
BRANCH   2  24
HETATM   24  C   UNL     1     -41.123 -52.686  13.810  1.00  0.00     0.138 C 
BRANCH  24  25
HETATM   25  C   UNL     1     -42.566 -52.904  14.308  1.00  0.00     0.034 C 
BRANCH  25  26
HETATM   26  C   UNL     1     -43.282 -54.068  13.572  1.00  0.00     0.019 C 
HETATM   27  C   UNL     1     -44.225 -53.602  12.461  1.00  0.00     0.172 C 
HETATM   28  O   UNL     1     -45.553 -53.871  12.920  1.00  0.00    -0.391 OA
HETATM   29  C   UNL     1     -45.470 -55.056  13.714  1.00  0.00     0.168 C 
HETATM   30  C   UNL     1     -44.163 -54.936  14.466  1.00  0.00     0.033 C 
ENDBRANCH  25  26
BRANCH  25  31
HETATM   31  C   UNL     1     -42.528 -53.077  15.840  1.00  0.00     0.170 C 
BRANCH  31  32
HETATM   32  O   UNL     1     -41.263 -52.651  16.339  1.00  0.00    -0.400 OA
HETATM   33  H   UNL     1     -41.271 -51.681  16.408  1.00  0.00     0.209 HD
ENDBRANCH  31  32
ENDBRANCH  25  31
ENDBRANCH  24  25
ENDBRANCH   2  24
TORSDOF 8
ENDMDL
MODEL 4
REMARK VINA RESULT:      -6.3      2.096      2.840
REMARK  8 active torsions:
REMARK  status: ('A' for Active; 'I' for Inactive)
REMARK    1  A    between atoms: N_2  and  C_13 
REMARK    2  A    between atoms: N_4  and  C_7 
REMARK    3  A    between atoms: C_13  and  C_18 
REMARK    4  A    between atoms: C_18  and  C_22 
REMARK    5  A    between atoms: C_18  and  C_23 
REMARK    6  A    between atoms: C_20  and  C_26 
REMARK    7  A    between atoms: C_23  and  O_25 
REMARK    8  A    between atoms: C_26  and  O_29 
ROOT
HETATM    1  C   UNL     1     -41.771 -49.135  12.604  1.00  0.00     0.117 A 
HETATM    2  N   UNL     1     -42.630 -51.139  12.515  1.00  0.00    -0.327 N 
HETATM    3  C   UNL     1     -41.614 -50.373  12.007  1.00  0.00     0.140 A 
HETATM    4  N   UNL     1     -42.914 -49.111  13.377  1.00  0.00    -0.346 N 
ATOM      5  HN  UNL     1     -43.301 -48.316  13.886  1.00  0.00     0.167 HD
HETATM    6  C   UNL     1     -40.760 -48.175  12.369  1.00  0.00     0.114 A 
HETATM    7  C   UNL     1     -43.398 -50.335  13.316  1.00  0.00     0.185 A 
HETATM    8  N   UNL     1     -40.630 -50.756  11.176  1.00  0.00    -0.336 N 
ATOM      9  HN  UNL     1     -40.562 -51.677  10.742  1.00  0.00     0.168 HD
HETATM   10  N   UNL     1     -39.733 -48.524  11.552  1.00  0.00    -0.341 N 
ATOM     11  HN  UNL     1     -38.971 -47.871  11.364  1.00  0.00     0.167 HD
HETATM   12  C   UNL     1     -39.744 -49.755  10.995  1.00  0.00     0.183 A 
ENDROOT
BRANCH   6  13
HETATM   13  N   UNL     1     -40.815 -46.929  12.981  1.00  0.00    -0.262 NA
HETATM   14  C   UNL     1     -40.071 -46.732  14.227  1.00  0.00     0.134 C 
HETATM   15  C   UNL     1     -40.524 -45.375  14.850  1.00  0.00     0.066 C 
HETATM   16  O   UNL     1     -40.345 -44.284  13.904  1.00  0.00    -0.371 OA
HETATM   17  C   UNL     1     -41.987 -45.441  15.330  1.00  0.00     0.047 C 
HETATM   18  C   UNL     1     -39.643 -45.036  16.058  1.00  0.00     0.047 C 
HETATM   19  C   UNL     1     -41.009 -44.516  12.640  1.00  0.00     0.159 C 
HETATM   20  C   UNL     1     -40.575 -45.852  12.011  1.00  0.00     0.131 C 
BRANCH  19  21
HETATM   21  C   UNL     1     -40.693 -43.368  11.675  1.00  0.00     0.200 C 
BRANCH  21  22
HETATM   22  O   UNL     1     -41.690 -43.326  10.652  1.00  0.00    -0.393 OA
HETATM   23  C   UNL     1     -42.914 -42.772  11.108  1.00  0.00     0.201 C 
ENDBRANCH  21  22
ENDBRANCH  19  21
ENDBRANCH   6  13
BRANCH   2  24
HETATM   24  C   UNL     1     -42.681 -52.581  12.489  1.00  0.00     0.138 C 
BRANCH  24  25
HETATM   25  C   UNL     1     -41.922 -53.326  13.606  1.00  0.00     0.034 C 
BRANCH  25  26
HETATM   26  C   UNL     1     -42.847 -54.251  14.441  1.00  0.00     0.019 C 
HETATM   27  C   UNL     1     -44.260 -54.381  13.869  1.00  0.00     0.172 C 
HETATM   28  O   UNL     1     -45.127 -53.695  14.776  1.00  0.00    -0.391 OA
HETATM   29  C   UNL     1     -44.567 -53.874  16.078  1.00  0.00     0.168 C 
HETATM   30  C   UNL     1     -43.071 -53.790  15.879  1.00  0.00     0.033 C 
ENDBRANCH  25  26
BRANCH  25  31
HETATM   31  C   UNL     1     -40.727 -54.064  12.969  1.00  0.00     0.170 C 
BRANCH  31  32
HETATM   32  O   UNL     1     -40.577 -53.655  11.613  1.00  0.00    -0.400 OA
HETATM   33  H   UNL     1     -39.656 -53.817  11.344  1.00  0.00     0.209 HD
ENDBRANCH  31  32
ENDBRANCH  25  31
ENDBRANCH  24  25
ENDBRANCH   2  24
TORSDOF 8
ENDMDL
MODEL 5
REMARK VINA RESULT:      -6.2      2.013      8.600
REMARK  8 active torsions:
REMARK  status: ('A' for Active; 'I' for Inactive)
REMARK    1  A    between atoms: N_2  and  C_13 
REMARK    2  A    between atoms: N_4  and  C_7 
REMARK    3  A    between atoms: C_13  and  C_18 
REMARK    4  A    between atoms: C_18  and  C_22 
REMARK    5  A    between atoms: C_18  and  C_23 
REMARK    6  A    between atoms: C_20  and  C_26 
REMARK    7  A    between atoms: C_23  and  O_25 
REMARK    8  A    between atoms: C_26  and  O_29 
ROOT
HETATM    1  C   UNL     1     -42.615 -50.947  13.035  1.00  0.00     0.117 A 
HETATM    2  N   UNL     1     -42.056 -49.189  11.870  1.00  0.00    -0.327 N 
HETATM    3  C   UNL     1     -41.764 -50.518  12.032  1.00  0.00     0.140 A 
HETATM    4  N   UNL     1     -43.336 -49.887  13.546  1.00  0.00    -0.346 N 
ATOM      5  HN  UNL     1     -43.995 -49.905  14.324  1.00  0.00     0.167 HD
HETATM    6  C   UNL     1     -42.633 -52.333  13.313  1.00  0.00     0.114 A 
HETATM    7  C   UNL     1     -42.990 -48.848  12.812  1.00  0.00     0.185 A 
HETATM    8  N   UNL     1     -40.902 -51.265  11.322  1.00  0.00    -0.336 N 
ATOM      9  HN  UNL     1     -40.277 -50.902  10.601  1.00  0.00     0.168 HD
HETATM   10  N   UNL     1     -41.793 -53.132  12.606  1.00  0.00    -0.341 N 
ATOM     11  HN  UNL     1     -41.779 -54.141  12.759  1.00  0.00     0.167 HD
HETATM   12  C   UNL     1     -40.976 -52.560  11.693  1.00  0.00     0.183 A 
ENDROOT
BRANCH   6  13
HETATM   13  N   UNL     1     -43.503 -52.850  14.264  1.00  0.00    -0.262 NA
HETATM   14  C   UNL     1     -44.673 -53.601  13.802  1.00  0.00     0.134 C 
HETATM   15  C   UNL     1     -45.622 -53.814  15.023  1.00  0.00     0.066 C 
HETATM   16  O   UNL     1     -44.922 -54.471  16.116  1.00  0.00    -0.371 OA
HETATM   17  C   UNL     1     -46.234 -52.481  15.495  1.00  0.00     0.047 C 
HETATM   18  C   UNL     1     -46.770 -54.751  14.632  1.00  0.00     0.047 C 
HETATM   19  C   UNL     1     -43.719 -53.775  16.517  1.00  0.00     0.159 C 
HETATM   20  C   UNL     1     -42.770 -53.555  15.324  1.00  0.00     0.131 C 
BRANCH  19  21
HETATM   21  C   UNL     1     -42.998 -54.580  17.604  1.00  0.00     0.200 C 
BRANCH  21  22
HETATM   22  O   UNL     1     -43.930 -55.466  18.228  1.00  0.00    -0.393 OA
HETATM   23  C   UNL     1     -43.315 -56.317  19.182  1.00  0.00     0.201 C 
ENDBRANCH  21  22
ENDBRANCH  19  21
ENDBRANCH   6  13
BRANCH   2  24
HETATM   24  C   UNL     1     -41.709 -48.394  10.716  1.00  0.00     0.138 C 
BRANCH  24  25
HETATM   25  C   UNL     1     -42.542 -47.118  10.472  1.00  0.00     0.034 C 
BRANCH  25  26
HETATM   26  C   UNL     1     -41.670 -45.835  10.432  1.00  0.00     0.019 C 
HETATM   27  C   UNL     1     -40.198 -46.085  10.767  1.00  0.00     0.172 C 
HETATM   28  O   UNL     1     -39.967 -45.481  12.043  1.00  0.00    -0.391 OA
HETATM   29  C   UNL     1     -40.813 -44.331  12.102  1.00  0.00     0.168 C 
HETATM   30  C   UNL     1     -42.095 -44.750  11.418  1.00  0.00     0.033 C 
ENDBRANCH  25  26
BRANCH  25  31
HETATM   31  C   UNL     1     -43.385 -47.328   9.198  1.00  0.00     0.170 C 
BRANCH  31  32
HETATM   32  O   UNL     1     -42.691 -48.188   8.299  1.00  0.00    -0.400 OA
HETATM   33  H   UNL     1     -41.737 -48.102   8.467  1.00  0.00     0.209 HD
ENDBRANCH  31  32
ENDBRANCH  25  31
ENDBRANCH  24  25
ENDBRANCH   2  24
TORSDOF 8
ENDMDL
MODEL 6
REMARK VINA RESULT:      -6.1      1.897      8.403
REMARK  8 active torsions:
REMARK  status: ('A' for Active; 'I' for Inactive)
REMARK    1  A    between atoms: N_2  and  C_13 
REMARK    2  A    between atoms: N_4  and  C_7 
REMARK    3  A    between atoms: C_13  and  C_18 
REMARK    4  A    between atoms: C_18  and  C_22 
REMARK    5  A    between atoms: C_18  and  C_23 
REMARK    6  A    between atoms: C_20  and  C_26 
REMARK    7  A    between atoms: C_23  and  O_25 
REMARK    8  A    between atoms: C_26  and  O_29 
ROOT
HETATM    1  C   UNL     1     -41.361 -50.188  12.442  1.00  0.00     0.117 A 
HETATM    2  N   UNL     1     -42.099 -48.532  11.227  1.00  0.00    -0.327 N 
HETATM    3  C   UNL     1     -40.964 -49.247  11.509  1.00  0.00     0.140 A 
HETATM    4  N   UNL     1     -42.679 -49.990  12.800  1.00  0.00    -0.346 N 
ATOM      5  HN  UNL     1     -43.213 -50.501  13.503  1.00  0.00     0.167 HD
HETATM    6  C   UNL     1     -40.411 -51.168  12.810  1.00  0.00     0.114 A 
HETATM    7  C   UNL     1     -43.099 -48.999  12.039  1.00  0.00     0.185 A 
HETATM    8  N   UNL     1     -39.750 -49.121  10.947  1.00  0.00    -0.336 N 
ATOM      9  HN  UNL     1     -39.494 -48.397  10.274  1.00  0.00     0.168 HD
HETATM   10  N   UNL     1     -39.176 -51.095  12.252  1.00  0.00    -0.341 N 
ATOM     11  HN  UNL     1     -38.460 -51.787  12.474  1.00  0.00     0.167 HD
HETATM   12  C   UNL     1     -38.916 -50.082  11.395  1.00  0.00     0.183 A 
ENDROOT
BRANCH   6  13
HETATM   13  N   UNL     1     -40.752 -52.183  13.696  1.00  0.00    -0.262 NA
HETATM   14  C   UNL     1     -41.991 -52.927  13.457  1.00  0.00     0.134 C 
HETATM   15  C   UNL     1     -42.287 -53.789  14.725  1.00  0.00     0.066 C 
HETATM   16  O   UNL     1     -41.159 -54.651  15.041  1.00  0.00    -0.371 OA
HETATM   17  C   UNL     1     -42.647 -52.902  15.932  1.00  0.00     0.047 C 
HETATM   18  C   UNL     1     -43.471 -54.724  14.453  1.00  0.00     0.047 C 
HETATM   19  C   UNL     1     -39.917 -53.925  15.193  1.00  0.00     0.159 C 
HETATM   20  C   UNL     1     -39.609 -53.068  13.952  1.00  0.00     0.131 C 
BRANCH  19  21
HETATM   21  C   UNL     1     -38.770 -54.914  15.432  1.00  0.00     0.200 C 
BRANCH  21  22
HETATM   22  O   UNL     1     -38.607 -55.114  16.837  1.00  0.00    -0.393 OA
HETATM   23  C   UNL     1     -38.659 -56.484  17.200  1.00  0.00     0.201 C 
ENDBRANCH  21  22
ENDBRANCH  19  21
ENDBRANCH   6  13
BRANCH   2  24
HETATM   24  C   UNL     1     -42.291 -47.697  10.065  1.00  0.00     0.138 C 
BRANCH  24  25
HETATM   25  C   UNL     1     -43.032 -46.361  10.282  1.00  0.00     0.034 C 
BRANCH  25  26
HETATM   26  C   UNL     1     -42.116 -45.262  10.882  1.00  0.00     0.019 C 
HETATM   27  C   UNL     1     -40.627 -45.492  10.613  1.00  0.00     0.172 C 
HETATM   28  O   UNL     1     -40.037 -45.829  11.872  1.00  0.00    -0.391 OA
HETATM   29  C   UNL     1     -40.761 -45.097  12.862  1.00  0.00     0.168 C 
HETATM   30  C   UNL     1     -42.200 -45.126  12.400  1.00  0.00     0.033 C 
ENDBRANCH  25  26
BRANCH  25  31
HETATM   31  C   UNL     1     -43.691 -45.952   8.949  1.00  0.00     0.170 C 
BRANCH  31  32
HETATM   32  O   UNL     1     -42.751 -46.089   7.887  1.00  0.00    -0.400 OA
HETATM   33  H   UNL     1     -43.243 -46.161   7.050  1.00  0.00     0.209 HD
ENDBRANCH  31  32
ENDBRANCH  25  31
ENDBRANCH  24  25
ENDBRANCH   2  24
TORSDOF 8
ENDMDL
MODEL 7
REMARK VINA RESULT:      -6.0      1.710      7.968
REMARK  8 active torsions:
REMARK  status: ('A' for Active; 'I' for Inactive)
REMARK    1  A    between atoms: N_2  and  C_13 
REMARK    2  A    between atoms: N_4  and  C_7 
REMARK    3  A    between atoms: C_13  and  C_18 
REMARK    4  A    between atoms: C_18  and  C_22 
REMARK    5  A    between atoms: C_18  and  C_23 
REMARK    6  A    between atoms: C_20  and  C_26 
REMARK    7  A    between atoms: C_23  and  O_25 
REMARK    8  A    between atoms: C_26  and  O_29 
ROOT
HETATM    1  C   UNL     1     -40.432 -49.585  13.288  1.00  0.00     0.117 A 
HETATM    2  N   UNL     1     -40.233 -47.425  13.044  1.00  0.00    -0.327 N 
HETATM    3  C   UNL     1     -39.712 -48.616  12.611  1.00  0.00     0.140 A 
HETATM    4  N   UNL     1     -41.300 -49.003  14.189  1.00  0.00    -0.346 N 
ATOM      5  HN  UNL     1     -41.912 -49.476  14.855  1.00  0.00     0.167 HD
HETATM    6  C   UNL     1     -40.200 -50.931  12.923  1.00  0.00     0.114 A 
HETATM    7  C   UNL     1     -41.169 -47.704  14.005  1.00  0.00     0.185 A 
HETATM    8  N   UNL     1     -38.768 -48.811  11.676  1.00  0.00    -0.336 N 
ATOM      9  HN  UNL     1     -38.246 -48.065  11.214  1.00  0.00     0.168 HD
HETATM   10  N   UNL     1     -39.269 -51.176  11.966  1.00  0.00    -0.341 N 
ATOM     11  HN  UNL     1     -39.076 -52.129  11.657  1.00  0.00     0.167 HD
HETATM   12  C   UNL     1     -38.603 -50.128  11.432  1.00  0.00     0.183 A 
ENDROOT
BRANCH   6  13
HETATM   13  N   UNL     1     -40.926 -51.957  13.514  1.00  0.00    -0.262 NA
HETATM   14  C   UNL     1     -42.071 -52.508  12.785  1.00  0.00     0.134 C 
HETATM   15  C   UNL     1     -42.873 -53.419  13.766  1.00  0.00     0.066 C 
HETATM   16  O   UNL     1     -42.017 -54.447  14.339  1.00  0.00    -0.371 OA
HETATM   17  C   UNL     1     -43.542 -52.590  14.879  1.00  0.00     0.047 C 
HETATM   18  C   UNL     1     -43.974 -54.164  13.002  1.00  0.00     0.047 C 
HETATM   19  C   UNL     1     -40.841 -53.907  14.985  1.00  0.00     0.159 C 
HETATM   20  C   UNL     1     -40.037 -53.005  14.032  1.00  0.00     0.131 C 
BRANCH  19  21
HETATM   21  C   UNL     1     -39.952 -55.055  15.476  1.00  0.00     0.200 C 
BRANCH  21  22
HETATM   22  O   UNL     1     -38.651 -54.547  15.777  1.00  0.00    -0.393 OA
HETATM   23  C   UNL     1     -38.431 -54.409  17.172  1.00  0.00     0.201 C 
ENDBRANCH  21  22
ENDBRANCH  19  21
ENDBRANCH   6  13
BRANCH   2  24
HETATM   24  C   UNL     1     -40.079 -46.155  12.376  1.00  0.00     0.138 C 
BRANCH  24  25
HETATM   25  C   UNL     1     -40.595 -46.064  10.925  1.00  0.00     0.034 C 
BRANCH  25  26
HETATM   26  C   UNL     1     -42.104 -46.400  10.806  1.00  0.00     0.019 C 
HETATM   27  C   UNL     1     -42.378 -47.783  10.210  1.00  0.00     0.172 C 
HETATM   28  O   UNL     1     -42.939 -47.559   8.913  1.00  0.00    -0.391 OA
HETATM   29  C   UNL     1     -43.702 -46.355   9.009  1.00  0.00     0.168 C 
HETATM   30  C   UNL     1     -42.897 -45.449   9.913  1.00  0.00     0.033 C 
ENDBRANCH  25  26
BRANCH  25  31
HETATM   31  C   UNL     1     -40.229 -44.672  10.369  1.00  0.00     0.170 C 
BRANCH  31  32
HETATM   32  O   UNL     1     -39.508 -44.817   9.149  1.00  0.00    -0.400 OA
HETATM   33  H   UNL     1     -39.528 -45.755   8.890  1.00  0.00     0.209 HD
ENDBRANCH  31  32
ENDBRANCH  25  31
ENDBRANCH  24  25
ENDBRANCH   2  24
TORSDOF 8
ENDMDL
MODEL 8
REMARK VINA RESULT:      -5.9      1.650      2.399
REMARK  8 active torsions:
REMARK  status: ('A' for Active; 'I' for Inactive)
REMARK    1  A    between atoms: N_2  and  C_13 
REMARK    2  A    between atoms: N_4  and  C_7 
REMARK    3  A    between atoms: C_13  and  C_18 
REMARK    4  A    between atoms: C_18  and  C_22 
REMARK    5  A    between atoms: C_18  and  C_23 
REMARK    6  A    between atoms: C_20  and  C_26 
REMARK    7  A    between atoms: C_23  and  O_25 
REMARK    8  A    between atoms: C_26  and  O_29 
ROOT
HETATM    1  C   UNL     1     -40.691 -49.307  13.115  1.00  0.00     0.117 A 
HETATM    2  N   UNL     1     -40.502 -50.753  14.737  1.00  0.00    -0.327 N 
HETATM    3  C   UNL     1     -39.977 -50.422  13.516  1.00  0.00     0.140 A 
HETATM    4  N   UNL     1     -41.696 -49.023  14.017  1.00  0.00    -0.346 N 
ATOM      5  HN  UNL     1     -42.404 -48.293  13.947  1.00  0.00     0.167 HD
HETATM    6  C   UNL     1     -40.258 -48.655  11.937  1.00  0.00     0.114 A 
HETATM    7  C   UNL     1     -41.544 -49.901  14.990  1.00  0.00     0.185 A 
HETATM    8  N   UNL     1     -38.943 -50.997  12.880  1.00  0.00    -0.336 N 
ATOM      9  HN  UNL     1     -38.456 -51.833  13.203  1.00  0.00     0.168 HD
HETATM   10  N   UNL     1     -39.203 -49.188  11.270  1.00  0.00    -0.341 N 
ATOM     11  HN  UNL     1     -38.843 -48.747  10.423  1.00  0.00     0.167 HD
HETATM   12  C   UNL     1     -38.639 -50.318  11.754  1.00  0.00     0.183 A 
ENDROOT
BRANCH   6  13
HETATM   13  N   UNL     1     -40.886 -47.495  11.502  1.00  0.00    -0.262 NA
HETATM   14  C   UNL     1     -40.058 -46.320  11.222  1.00  0.00     0.134 C 
HETATM   15  C   UNL     1     -41.007 -45.094  11.038  1.00  0.00     0.066 C 
HETATM   16  O   UNL     1     -41.994 -45.353  10.001  1.00  0.00    -0.371 OA
HETATM   17  C   UNL     1     -41.698 -44.719  12.363  1.00  0.00     0.047 C 
HETATM   18  C   UNL     1     -40.202 -43.879  10.562  1.00  0.00     0.047 C 
HETATM   19  C   UNL     1     -42.755 -46.561  10.233  1.00  0.00     0.159 C 
HETATM   20  C   UNL     1     -41.834 -47.781  10.417  1.00  0.00     0.131 C 
BRANCH  19  21
HETATM   21  C   UNL     1     -43.701 -46.807   9.053  1.00  0.00     0.200 C 
BRANCH  21  22
HETATM   22  O   UNL     1     -44.954 -47.285   9.546  1.00  0.00    -0.393 OA
HETATM   23  C   UNL     1     -45.692 -47.991   8.562  1.00  0.00     0.201 C 
ENDBRANCH  21  22
ENDBRANCH  19  21
ENDBRANCH   6  13
BRANCH   2  24
HETATM   24  C   UNL     1     -39.865 -51.602  15.716  1.00  0.00     0.138 C 
BRANCH  24  25
HETATM   25  C   UNL     1     -40.703 -52.769  16.279  1.00  0.00     0.034 C 
BRANCH  25  26
HETATM   26  C   UNL     1     -40.737 -53.992  15.325  1.00  0.00     0.019 C 
HETATM   27  C   UNL     1     -39.416 -54.232  14.590  1.00  0.00     0.172 C 
HETATM   28  O   UNL     1     -39.655 -53.912  13.217  1.00  0.00    -0.391 OA
HETATM   29  C   UNL     1     -41.013 -54.269  12.952  1.00  0.00     0.168 C 
HETATM   30  C   UNL     1     -41.770 -53.895  14.207  1.00  0.00     0.033 C 
ENDBRANCH  25  26
BRANCH  25  31
HETATM   31  C   UNL     1     -40.179 -53.103  17.690  1.00  0.00     0.170 C 
BRANCH  31  32
HETATM   32  O   UNL     1     -40.563 -52.076  18.601  1.00  0.00    -0.400 OA
HETATM   33  H   UNL     1     -40.024 -52.164  19.406  1.00  0.00     0.209 HD
ENDBRANCH  31  32
ENDBRANCH  25  31
ENDBRANCH  24  25
ENDBRANCH   2  24
TORSDOF 8
ENDMDL
MODEL 9
REMARK VINA RESULT:      -5.8      2.371      8.210
REMARK  8 active torsions:
REMARK  status: ('A' for Active; 'I' for Inactive)
REMARK    1  A    between atoms: N_2  and  C_13 
REMARK    2  A    between atoms: N_4  and  C_7 
REMARK    3  A    between atoms: C_13  and  C_18 
REMARK    4  A    between atoms: C_18  and  C_22 
REMARK    5  A    between atoms: C_18  and  C_23 
REMARK    6  A    between atoms: C_20  and  C_26 
REMARK    7  A    between atoms: C_23  and  O_25 
REMARK    8  A    between atoms: C_26  and  O_29 
ROOT
HETATM    1  C   UNL     1     -41.310 -47.324  11.705  1.00  0.00     0.117 A 
HETATM    2  N   UNL     1     -40.785 -45.207  11.656  1.00  0.00    -0.327 N 
HETATM    3  C   UNL     1     -41.422 -46.181  10.933  1.00  0.00     0.140 A 
HETATM    4  N   UNL     1     -40.536 -47.082  12.821  1.00  0.00    -0.346 N 
ATOM      5  HN  UNL     1     -40.247 -47.754  13.532  1.00  0.00     0.167 HD
HETATM    6  C   UNL     1     -42.013 -48.469  11.263  1.00  0.00     0.114 A 
HETATM    7  C   UNL     1     -40.251 -45.796  12.772  1.00  0.00     0.185 A 
HETATM    8  N   UNL     1     -42.083 -46.046   9.771  1.00  0.00    -0.336 N 
ATOM      9  HN  UNL     1     -42.124 -45.185   9.224  1.00  0.00     0.168 HD
HETATM   10  N   UNL     1     -42.713 -48.374  10.104  1.00  0.00    -0.341 N 
ATOM     11  HN  UNL     1     -43.248 -49.168   9.751  1.00  0.00     0.167 HD
HETATM   12  C   UNL     1     -42.684 -47.204   9.428  1.00  0.00     0.183 A 
ENDROOT
BRANCH   6  13
HETATM   13  N   UNL     1     -42.000 -49.637  12.014  1.00  0.00    -0.262 NA
HETATM   14  C   UNL     1     -40.719 -50.107  12.547  1.00  0.00     0.134 C 
HETATM   15  C   UNL     1     -40.925 -51.557  13.088  1.00  0.00     0.066 C 
HETATM   16  O   UNL     1     -41.997 -51.597  14.070  1.00  0.00    -0.371 OA
HETATM   17  C   UNL     1     -41.203 -52.547  11.941  1.00  0.00     0.047 C 
HETATM   18  C   UNL     1     -39.661 -52.023  13.821  1.00  0.00     0.047 C 
HETATM   19  C   UNL     1     -43.242 -51.054  13.573  1.00  0.00     0.159 C 
HETATM   20  C   UNL     1     -43.057 -49.623  13.034  1.00  0.00     0.131 C 
BRANCH  19  21
HETATM   21  C   UNL     1     -44.285 -51.049  14.695  1.00  0.00     0.200 C 
BRANCH  21  22
HETATM   22  O   UNL     1     -45.296 -52.016  14.401  1.00  0.00    -0.393 OA
HETATM   23  C   UNL     1     -46.580 -51.431  14.251  1.00  0.00     0.201 C 
ENDBRANCH  21  22
ENDBRANCH  19  21
ENDBRANCH   6  13
BRANCH   2  24
HETATM   24  C   UNL     1     -40.943 -43.785  11.460  1.00  0.00     0.138 C 
BRANCH  24  25
HETATM   25  C   UNL     1     -42.226 -43.141  12.025  1.00  0.00     0.034 C 
BRANCH  25  26
HETATM   26  C   UNL     1     -41.940 -42.181  13.210  1.00  0.00     0.019 C 
HETATM   27  C   UNL     1     -40.451 -41.907  13.430  1.00  0.00     0.172 C 
HETATM   28  O   UNL     1     -40.096 -42.559  14.653  1.00  0.00    -0.391 OA
HETATM   29  C   UNL     1     -41.249 -42.487  15.494  1.00  0.00     0.168 C 
HETATM   30  C   UNL     1     -42.427 -42.686  14.566  1.00  0.00     0.033 C 
ENDBRANCH  25  26
BRANCH  25  31
HETATM   31  C   UNL     1     -42.984 -42.472  10.861  1.00  0.00     0.170 C 
BRANCH  31  32
HETATM   32  O   UNL     1     -43.739 -43.452  10.153  1.00  0.00    -0.400 OA
HETATM   33  H   UNL     1     -43.327 -44.321  10.300  1.00  0.00     0.209 HD
ENDBRANCH  31  32
ENDBRANCH  25  31
ENDBRANCH  24  25
ENDBRANCH   2  24
TORSDOF 8
ENDMDL
