MODEL 1
REMARK VINA RESULT:      -7.9      0.000      0.000
REMARK  6 active torsions:
REMARK  status: ('A' for Active; 'I' for Inactive)
REMARK    1  A    between atoms: N_2  and  C_13 
REMARK    2  A    between atoms: C_6  and  N_7 
REMARK    3  A    between atoms: C_13  and  C_16 
REMARK    4  A    between atoms: C_16  and  O_27 
REMARK       I    between atoms: C_17  and  N_18 
REMARK    5  A    between atoms: N_18  and  C_23 
REMARK    6  A    between atoms: C_19  and  C_23 
ROOT
HETATM    1  C   UNL     1     -42.008 -49.588  12.061  1.00  0.00     0.117 A 
HETATM    2  N   UNL     1     -42.545 -51.271  13.347  1.00  0.00    -0.324 N 
HETATM    3  C   UNL     1     -41.516 -50.767  12.607  1.00  0.00     0.140 A 
HETATM    4  N   UNL     1     -43.321 -49.391  12.456  1.00  0.00    -0.346 N 
ATOM      5  HN  UNL     1     -43.941 -48.626  12.188  1.00  0.00     0.167 HD
HETATM    6  C   UNL     1     -41.113 -48.821  11.272  1.00  0.00     0.114 A 
HETATM    7  C   UNL     1     -43.597 -50.401  13.251  1.00  0.00     0.185 A 
HETATM    8  N   UNL     1     -40.290 -51.290  12.466  1.00  0.00    -0.336 N 
ATOM      9  HN  UNL     1     -39.986 -52.174  12.871  1.00  0.00     0.168 HD
HETATM   10  N   UNL     1     -39.846 -49.315  11.133  1.00  0.00    -0.341 N 
ATOM     11  HN  UNL     1     -39.152 -48.800  10.592  1.00  0.00     0.167 HD
HETATM   12  C   UNL     1     -39.519 -50.487  11.716  1.00  0.00     0.183 A 
ENDROOT
BRANCH   6  13
HETATM   13  N   UNL     1     -41.437 -47.577  10.721  1.00  0.00    -0.263 NA
HETATM   14  C   UNL     1     -42.788 -47.465  10.149  1.00  0.00     0.130 C 
HETATM   15  C   UNL     1     -42.865 -46.162   9.327  1.00  0.00     0.152 C 
HETATM   16  O   UNL     1     -42.550 -45.011  10.151  1.00  0.00    -0.382 OA
HETATM   17  C   UNL     1     -41.222 -45.136  10.692  1.00  0.00     0.183 C 
HETATM   18  C   UNL     1     -41.066 -46.410  11.537  1.00  0.00     0.123 C 
BRANCH  15  19
HETATM   19  C   UNL     1     -44.272 -45.981   8.752  1.00  0.00     0.155 C 
BRANCH  19  20
HETATM   20  N   UNL     1     -44.850 -47.259   8.367  1.00  0.00    -0.359 N 
HETATM   21  C   UNL     1     -46.138 -47.594   8.701  1.00  0.00     0.213 C 
HETATM   22  O   UNL     1     -46.859 -46.899   9.411  1.00  0.00    -0.274 OA
HETATM   23  C   UNL     1     -46.599 -48.915   8.145  1.00  0.00     0.117 C 
HETATM   24  H   UNL     1     -44.387 -47.748   7.608  1.00  0.00     0.162 HD
ENDBRANCH  19  20
ENDBRANCH  15  19
ENDBRANCH   6  13
BRANCH   2  25
HETATM   25  C   UNL     1     -42.473 -52.439  14.201  1.00  0.00     0.169 C 
BRANCH  25  26
HETATM   26  C   UNL     1     -42.761 -53.790  13.504  1.00  0.00     0.078 C 
HETATM   27  C   UNL     1     -43.889 -53.585  12.474  1.00  0.00     0.066 C 
HETATM   28  C   UNL     1     -45.259 -53.558  13.132  1.00  0.00     0.170 C 
HETATM   29  O   UNL     1     -45.480 -54.784  13.821  1.00  0.00    -0.391 OA
HETATM   30  C   UNL     1     -44.573 -54.962  14.907  1.00  0.00     0.170 C 
HETATM   31  C   UNL     1     -43.123 -54.966  14.433  1.00  0.00     0.066 C 
BRANCH  26  32
HETATM   32  O   UNL     1     -41.585 -54.141  12.748  1.00  0.00    -0.388 OA
HETATM   33  H   UNL     1     -40.846 -54.276  13.368  1.00  0.00     0.210 HD
ENDBRANCH  26  32
ENDBRANCH  25  26
ENDBRANCH   2  25
TORSDOF 6
ENDMDL
MODEL 2
REMARK VINA RESULT:      -7.3      1.827      2.236
REMARK  6 active torsions:
REMARK  status: ('A' for Active; 'I' for Inactive)
REMARK    1  A    between atoms: N_2  and  C_13 
REMARK    2  A    between atoms: C_6  and  N_7 
REMARK    3  A    between atoms: C_13  and  C_16 
REMARK    4  A    between atoms: C_16  and  O_27 
REMARK       I    between atoms: C_17  and  N_18 
REMARK    5  A    between atoms: N_18  and  C_23 
REMARK    6  A    between atoms: C_19  and  C_23 
ROOT
HETATM    1  C   UNL     1     -41.150 -50.112  11.825  1.00  0.00     0.117 A 
HETATM    2  N   UNL     1     -41.113 -52.142  12.634  1.00  0.00    -0.324 N 
HETATM    3  C   UNL     1     -40.296 -51.145  12.190  1.00  0.00     0.140 A 
HETATM    4  N   UNL     1     -42.467 -50.487  12.034  1.00  0.00    -0.346 N 
ATOM      5  HN  UNL     1     -43.306 -49.943  11.832  1.00  0.00     0.167 HD
HETATM    6  C   UNL     1     -40.550 -48.912  11.366  1.00  0.00     0.114 A 
HETATM    7  C   UNL     1     -42.404 -51.695  12.551  1.00  0.00     0.185 A 
HETATM    8  N   UNL     1     -38.956 -51.158  12.145  1.00  0.00    -0.336 N 
ATOM      9  HN  UNL     1     -38.374 -51.955  12.404  1.00  0.00     0.168 HD
HETATM   10  N   UNL     1     -39.184 -48.885  11.336  1.00  0.00    -0.341 N 
ATOM     11  HN  UNL     1     -38.694 -48.044  11.031  1.00  0.00     0.167 HD
HETATM   12  C   UNL     1     -38.487 -49.978  11.711  1.00  0.00     0.183 A 
ENDROOT
BRANCH   6  13
HETATM   13  N   UNL     1     -41.274 -47.761  11.036  1.00  0.00    -0.263 NA
HETATM   14  C   UNL     1     -42.301 -47.929   9.997  1.00  0.00     0.130 C 
HETATM   15  C   UNL     1     -42.775 -46.532   9.546  1.00  0.00     0.152 C 
HETATM   16  O   UNL     1     -43.289 -45.773  10.669  1.00  0.00    -0.382 OA
HETATM   17  C   UNL     1     -42.267 -45.612  11.670  1.00  0.00     0.183 C 
HETATM   18  C   UNL     1     -41.747 -46.965  12.180  1.00  0.00     0.123 C 
BRANCH  15  19
HETATM   19  C   UNL     1     -43.881 -46.661   8.496  1.00  0.00     0.155 C 
BRANCH  19  20
HETATM   20  N   UNL     1     -44.733 -47.808   8.769  1.00  0.00    -0.359 N 
HETATM   21  C   UNL     1     -46.098 -47.688   8.832  1.00  0.00     0.213 C 
HETATM   22  O   UNL     1     -46.692 -46.617   8.755  1.00  0.00    -0.274 OA
HETATM   23  C   UNL     1     -46.826 -48.991   9.036  1.00  0.00     0.117 C 
HETATM   24  H   UNL     1     -44.317 -48.720   8.614  1.00  0.00     0.162 HD
ENDBRANCH  19  20
ENDBRANCH  15  19
ENDBRANCH   6  13
BRANCH   2  25
HETATM   25  C   UNL     1     -40.674 -53.387  13.231  1.00  0.00     0.169 C 
BRANCH  25  26
HETATM   26  C   UNL     1     -40.188 -53.285  14.696  1.00  0.00     0.078 C 
HETATM   27  C   UNL     1     -40.280 -54.679  15.347  1.00  0.00     0.066 C 
HETATM   28  C   UNL     1     -41.700 -55.011  15.773  1.00  0.00     0.170 C 
HETATM   29  O   UNL     1     -42.160 -54.035  16.703  1.00  0.00    -0.391 OA
HETATM   30  C   UNL     1     -42.264 -52.741  16.117  1.00  0.00     0.170 C 
HETATM   31  C   UNL     1     -40.920 -52.256  15.581  1.00  0.00     0.066 C 
BRANCH  26  32
HETATM   32  O   UNL     1     -38.787 -52.950  14.660  1.00  0.00    -0.388 OA
HETATM   33  H   UNL     1     -38.670 -52.057  15.033  1.00  0.00     0.210 HD
ENDBRANCH  26  32
ENDBRANCH  25  26
ENDBRANCH   2  25
TORSDOF 6
ENDMDL
MODEL 3
REMARK VINA RESULT:      -7.3      2.176      3.104
REMARK  6 active torsions:
REMARK  status: ('A' for Active; 'I' for Inactive)
REMARK    1  A    between atoms: N_2  and  C_13 
REMARK    2  A    between atoms: C_6  and  N_7 
REMARK    3  A    between atoms: C_13  and  C_16 
REMARK    4  A    between atoms: C_16  and  O_27 
REMARK       I    between atoms: C_17  and  N_18 
REMARK    5  A    between atoms: N_18  and  C_23 
REMARK    6  A    between atoms: C_19  and  C_23 
ROOT
HETATM    1  C   UNL     1     -41.363 -50.113  12.385  1.00  0.00     0.117 A 
HETATM    2  N   UNL     1     -41.070 -52.171  13.057  1.00  0.00    -0.324 N 
HETATM    3  C   UNL     1     -41.479 -50.945  13.491  1.00  0.00     0.140 A 
HETATM    4  N   UNL     1     -40.878 -50.825  11.301  1.00  0.00    -0.346 N 
ATOM      5  HN  UNL     1     -40.668 -50.469  10.369  1.00  0.00     0.167 HD
HETATM    6  C   UNL     1     -41.777 -48.766  12.547  1.00  0.00     0.114 A 
HETATM    7  C   UNL     1     -40.746 -52.061  11.732  1.00  0.00     0.185 A 
HETATM    8  N   UNL     1     -41.921 -50.628  14.716  1.00  0.00    -0.336 N 
ATOM      9  HN  UNL     1     -41.965 -51.274  15.503  1.00  0.00     0.168 HD
HETATM   10  N   UNL     1     -42.260 -48.419  13.777  1.00  0.00    -0.341 N 
ATOM     11  HN  UNL     1     -42.589 -47.470  13.950  1.00  0.00     0.167 HD
HETATM   12  C   UNL     1     -42.299 -49.341  14.762  1.00  0.00     0.183 A 
ENDROOT
BRANCH   6  13
HETATM   13  N   UNL     1     -41.792 -47.830  11.507  1.00  0.00    -0.263 NA
HETATM   14  C   UNL     1     -43.049 -47.742  10.746  1.00  0.00     0.130 C 
HETATM   15  C   UNL     1     -42.793 -46.909   9.474  1.00  0.00     0.152 C 
HETATM   16  O   UNL     1     -42.296 -45.589   9.811  1.00  0.00    -0.382 OA
HETATM   17  C   UNL     1     -41.062 -45.697  10.546  1.00  0.00     0.183 C 
HETATM   18  C   UNL     1     -41.236 -46.509  11.840  1.00  0.00     0.123 C 
BRANCH  15  19
HETATM   19  C   UNL     1     -44.089 -46.752   8.675  1.00  0.00     0.155 C 
BRANCH  19  20
HETATM   20  N   UNL     1     -44.944 -47.919   8.826  1.00  0.00    -0.359 N 
HETATM   21  C   UNL     1     -46.312 -47.808   8.848  1.00  0.00     0.213 C 
HETATM   22  O   UNL     1     -46.908 -46.736   8.833  1.00  0.00    -0.274 OA
HETATM   23  C   UNL     1     -47.039 -49.125   8.923  1.00  0.00     0.117 C 
HETATM   24  H   UNL     1     -44.518 -48.815   8.616  1.00  0.00     0.162 HD
ENDBRANCH  19  20
ENDBRANCH  15  19
ENDBRANCH   6  13
BRANCH   2  25
HETATM   25  C   UNL     1     -41.122 -53.397  13.828  1.00  0.00     0.169 C 
BRANCH  25  26
HETATM   26  C   UNL     1     -39.769 -53.875  14.406  1.00  0.00     0.078 C 
HETATM   27  C   UNL     1     -40.042 -54.908  15.516  1.00  0.00     0.066 C 
HETATM   28  C   UNL     1     -40.438 -54.241  16.824  1.00  0.00     0.170 C 
HETATM   29  O   UNL     1     -39.396 -53.369  17.249  1.00  0.00    -0.391 OA
HETATM   30  C   UNL     1     -39.202 -52.283  16.347  1.00  0.00     0.170 C 
HETATM   31  C   UNL     1     -38.839 -52.772  14.948  1.00  0.00     0.066 C 
BRANCH  26  32
HETATM   32  O   UNL     1     -39.082 -54.585  13.356  1.00  0.00    -0.388 OA
HETATM   33  H   UNL     1     -39.500 -54.362  12.504  1.00  0.00     0.210 HD
ENDBRANCH  26  32
ENDBRANCH  25  26
ENDBRANCH   2  25
TORSDOF 6
ENDMDL
MODEL 4
REMARK VINA RESULT:      -7.2      1.493      2.231
REMARK  6 active torsions:
REMARK  status: ('A' for Active; 'I' for Inactive)
REMARK    1  A    between atoms: N_2  and  C_13 
REMARK    2  A    between atoms: C_6  and  N_7 
REMARK    3  A    between atoms: C_13  and  C_16 
REMARK    4  A    between atoms: C_16  and  O_27 
REMARK       I    between atoms: C_17  and  N_18 
REMARK    5  A    between atoms: N_18  and  C_23 
REMARK    6  A    between atoms: C_19  and  C_23 
ROOT
HETATM    1  C   UNL     1     -42.078 -49.620  12.845  1.00  0.00     0.117 A 
HETATM    2  N   UNL     1     -42.271 -51.605  13.736  1.00  0.00    -0.324 N 
HETATM    3  C   UNL     1     -42.262 -50.279  14.054  1.00  0.00     0.140 A 
HETATM    4  N   UNL     1     -41.965 -50.537  11.814  1.00  0.00    -0.346 N 
ATOM      5  HN  UNL     1     -41.798 -50.342  10.827  1.00  0.00     0.167 HD
HETATM    6  C   UNL     1     -42.079 -48.202  12.879  1.00  0.00     0.114 A 
HETATM    7  C   UNL     1     -42.118 -51.714  12.381  1.00  0.00     0.185 A 
HETATM    8  N   UNL     1     -42.424 -49.738  15.270  1.00  0.00    -0.336 N 
ATOM      9  HN  UNL     1     -42.532 -50.271  16.132  1.00  0.00     0.168 HD
HETATM   10  N   UNL     1     -42.271 -47.621  14.100  1.00  0.00    -0.341 N 
ATOM     11  HN  UNL     1     -42.299 -46.605  14.186  1.00  0.00     0.167 HD
HETATM   12  C   UNL     1     -42.423 -48.398  15.193  1.00  0.00     0.183 A 
ENDROOT
BRANCH   6  13
HETATM   13  N   UNL     1     -41.983 -47.400  11.737  1.00  0.00    -0.263 NA
HETATM   14  C   UNL     1     -43.177 -47.367  10.877  1.00  0.00     0.130 C 
HETATM   15  C   UNL     1     -42.798 -46.703   9.538  1.00  0.00     0.152 C 
HETATM   16  O   UNL     1     -42.274 -45.368   9.752  1.00  0.00    -0.382 OA
HETATM   17  C   UNL     1     -41.103 -45.423  10.587  1.00  0.00     0.183 C 
HETATM   18  C   UNL     1     -41.401 -46.065  11.951  1.00  0.00     0.123 C 
BRANCH  15  19
HETATM   19  C   UNL     1     -44.026 -46.606   8.630  1.00  0.00     0.155 C 
BRANCH  19  20
HETATM   20  N   UNL     1     -44.839 -47.808   8.714  1.00  0.00    -0.359 N 
HETATM   21  C   UNL     1     -46.209 -47.747   8.754  1.00  0.00     0.213 C 
HETATM   22  O   UNL     1     -46.842 -46.697   8.809  1.00  0.00    -0.274 OA
HETATM   23  C   UNL     1     -46.890 -49.090   8.752  1.00  0.00     0.117 C 
HETATM   24  H   UNL     1     -44.385 -48.674   8.446  1.00  0.00     0.162 HD
ENDBRANCH  19  20
ENDBRANCH  15  19
ENDBRANCH   6  13
BRANCH   2  25
HETATM   25  C   UNL     1     -42.549 -52.689  14.658  1.00  0.00     0.169 C 
BRANCH  25  26
HETATM   26  C   UNL     1     -44.026 -52.823  15.098  1.00  0.00     0.078 C 
HETATM   27  C   UNL     1     -44.334 -54.311  15.353  1.00  0.00     0.066 C 
HETATM   28  C   UNL     1     -44.584 -55.067  14.059  1.00  0.00     0.170 C 
HETATM   29  O   UNL     1     -45.682 -54.479  13.368  1.00  0.00    -0.391 OA
HETATM   30  C   UNL     1     -45.402 -53.147  12.947  1.00  0.00     0.170 C 
HETATM   31  C   UNL     1     -45.075 -52.240  14.130  1.00  0.00     0.066 C 
BRANCH  26  32
HETATM   32  O   UNL     1     -44.154 -52.161  16.372  1.00  0.00    -0.388 OA
HETATM   33  H   UNL     1     -44.392 -52.825  17.045  1.00  0.00     0.210 HD
ENDBRANCH  26  32
ENDBRANCH  25  26
ENDBRANCH   2  25
TORSDOF 6
ENDMDL
MODEL 5
REMARK VINA RESULT:      -7.1      2.228      8.053
REMARK  6 active torsions:
REMARK  status: ('A' for Active; 'I' for Inactive)
REMARK    1  A    between atoms: N_2  and  C_13 
REMARK    2  A    between atoms: C_6  and  N_7 
REMARK    3  A    between atoms: C_13  and  C_16 
REMARK    4  A    between atoms: C_16  and  O_27 
REMARK       I    between atoms: C_17  and  N_18 
REMARK    5  A    between atoms: N_18  and  C_23 
REMARK    6  A    between atoms: C_19  and  C_23 
ROOT
HETATM    1  C   UNL     1     -40.654 -47.291  11.655  1.00  0.00     0.117 A 
HETATM    2  N   UNL     1     -40.520 -45.137  11.316  1.00  0.00    -0.324 N 
HETATM    3  C   UNL     1     -41.110 -46.268  10.834  1.00  0.00     0.140 A 
HETATM    4  N   UNL     1     -39.790 -46.785  12.612  1.00  0.00    -0.346 N 
ATOM      5  HN  UNL     1     -39.285 -47.307  13.329  1.00  0.00     0.167 HD
HETATM    6  C   UNL     1     -41.159 -48.592  11.402  1.00  0.00     0.114 A 
HETATM    7  C   UNL     1     -39.760 -45.488  12.398  1.00  0.00     0.185 A 
HETATM    8  N   UNL     1     -41.965 -46.358   9.805  1.00  0.00    -0.336 N 
ATOM      9  HN  UNL     1     -42.250 -45.575   9.217  1.00  0.00     0.168 HD
HETATM   10  N   UNL     1     -42.055 -48.710  10.378  1.00  0.00    -0.341 N 
ATOM     11  HN  UNL     1     -42.467 -49.618  10.159  1.00  0.00     0.167 HD
HETATM   12  C   UNL     1     -42.393 -47.621   9.657  1.00  0.00     0.183 A 
ENDROOT
BRANCH   6  13
HETATM   13  N   UNL     1     -40.855 -49.708  12.190  1.00  0.00    -0.263 NA
HETATM   14  C   UNL     1     -41.928 -50.705  12.326  1.00  0.00     0.130 C 
HETATM   15  C   UNL     1     -41.543 -51.688  13.451  1.00  0.00     0.152 C 
HETATM   16  O   UNL     1     -40.272 -52.326  13.168  1.00  0.00    -0.382 OA
HETATM   17  C   UNL     1     -39.235 -51.334  13.048  1.00  0.00     0.183 C 
HETATM   18  C   UNL     1     -39.540 -50.319  11.935  1.00  0.00     0.123 C 
BRANCH  15  19
HETATM   19  C   UNL     1     -42.613 -52.772  13.595  1.00  0.00     0.155 C 
BRANCH  19  20
HETATM   20  N   UNL     1     -43.932 -52.256  13.268  1.00  0.00    -0.359 N 
HETATM   21  C   UNL     1     -44.902 -53.059  12.720  1.00  0.00     0.213 C 
HETATM   22  O   UNL     1     -44.712 -54.225  12.388  1.00  0.00    -0.274 OA
HETATM   23  C   UNL     1     -46.233 -52.381  12.529  1.00  0.00     0.117 C 
HETATM   24  H   UNL     1     -44.199 -51.390  13.724  1.00  0.00     0.162 HD
ENDBRANCH  19  20
ENDBRANCH  15  19
ENDBRANCH   6  13
BRANCH   2  25
HETATM   25  C   UNL     1     -40.781 -43.789  10.852  1.00  0.00     0.169 C 
BRANCH  25  26
HETATM   26  C   UNL     1     -42.122 -43.175  11.320  1.00  0.00     0.078 C 
HETATM   27  C   UNL     1     -42.087 -41.655  11.065  1.00  0.00     0.066 C 
HETATM   28  C   UNL     1     -41.301 -40.919  12.138  1.00  0.00     0.170 C 
HETATM   29  O   UNL     1     -41.892 -41.161  13.411  1.00  0.00    -0.391 OA
HETATM   30  C   UNL     1     -41.806 -42.532  13.792  1.00  0.00     0.170 C 
HETATM   31  C   UNL     1     -42.510 -43.439  12.788  1.00  0.00     0.066 C 
BRANCH  26  32
HETATM   32  O   UNL     1     -43.155 -43.702  10.465  1.00  0.00    -0.388 OA
HETATM   33  H   UNL     1     -43.997 -43.267  10.690  1.00  0.00     0.210 HD
ENDBRANCH  26  32
ENDBRANCH  25  26
ENDBRANCH   2  25
TORSDOF 6
ENDMDL
MODEL 6
REMARK VINA RESULT:      -7.1      2.827      7.431
REMARK  6 active torsions:
REMARK  status: ('A' for Active; 'I' for Inactive)
REMARK    1  A    between atoms: N_2  and  C_13 
REMARK    2  A    between atoms: C_6  and  N_7 
REMARK    3  A    between atoms: C_13  and  C_16 
REMARK    4  A    between atoms: C_16  and  O_27 
REMARK       I    between atoms: C_17  and  N_18 
REMARK    5  A    between atoms: N_18  and  C_23 
REMARK    6  A    between atoms: C_19  and  C_23 
ROOT
HETATM    1  C   UNL     1     -40.454 -49.450  13.213  1.00  0.00     0.117 A 
HETATM    2  N   UNL     1     -40.280 -47.283  12.995  1.00  0.00    -0.324 N 
HETATM    3  C   UNL     1     -39.747 -48.456  12.548  1.00  0.00     0.140 A 
HETATM    4  N   UNL     1     -41.392 -48.883  14.059  1.00  0.00    -0.346 N 
ATOM      5  HN  UNL     1     -42.032 -49.368  14.688  1.00  0.00     0.167 HD
HETATM    6  C   UNL     1     -40.130 -50.793  12.892  1.00  0.00     0.114 A 
HETATM    7  C   UNL     1     -41.281 -47.585  13.877  1.00  0.00     0.185 A 
HETATM    8  N   UNL     1     -38.770 -48.606  11.643  1.00  0.00    -0.336 N 
ATOM      9  HN  UNL     1     -38.265 -47.839  11.200  1.00  0.00     0.168 HD
HETATM   10  N   UNL     1     -39.158 -50.978  11.951  1.00  0.00    -0.341 N 
ATOM     11  HN  UNL     1     -38.893 -51.921  11.665  1.00  0.00     0.167 HD
HETATM   12  C   UNL     1     -38.549 -49.907  11.400  1.00  0.00     0.183 A 
ENDROOT
BRANCH   6  13
HETATM   13  N   UNL     1     -40.805 -51.899  13.419  1.00  0.00    -0.263 NA
HETATM   14  C   UNL     1     -41.939 -52.394  12.622  1.00  0.00     0.130 C 
HETATM   15  C   UNL     1     -42.742 -53.393  13.480  1.00  0.00     0.152 C 
HETATM   16  O   UNL     1     -41.901 -54.487  13.924  1.00  0.00    -0.382 OA
HETATM   17  C   UNL     1     -40.804 -53.983  14.709  1.00  0.00     0.183 C 
HETATM   18  C   UNL     1     -39.945 -52.984  13.918  1.00  0.00     0.123 C 
BRANCH  15  19
HETATM   19  C   UNL     1     -43.906 -53.969  12.671  1.00  0.00     0.155 C 
BRANCH  19  20
HETATM   20  N   UNL     1     -44.809 -52.919  12.227  1.00  0.00    -0.359 N 
HETATM   21  C   UNL     1     -45.969 -52.637  12.902  1.00  0.00     0.213 C 
HETATM   22  O   UNL     1     -46.375 -53.289  13.860  1.00  0.00    -0.274 OA
HETATM   23  C   UNL     1     -46.736 -51.463  12.353  1.00  0.00     0.117 C 
HETATM   24  H   UNL     1     -44.414 -52.227  11.599  1.00  0.00     0.162 HD
ENDBRANCH  19  20
ENDBRANCH  15  19
ENDBRANCH   6  13
BRANCH   2  25
HETATM   25  C   UNL     1     -39.943 -45.963  12.500  1.00  0.00     0.169 C 
BRANCH  25  26
HETATM   26  C   UNL     1     -40.708 -45.515  11.232  1.00  0.00     0.078 C 
HETATM   27  C   UNL     1     -40.026 -44.257  10.661  1.00  0.00     0.066 C 
HETATM   28  C   UNL     1     -40.424 -43.003  11.422  1.00  0.00     0.170 C 
HETATM   29  O   UNL     1     -41.836 -42.833  11.357  1.00  0.00    -0.391 OA
HETATM   30  C   UNL     1     -42.535 -43.883  12.022  1.00  0.00     0.170 C 
HETATM   31  C   UNL     1     -42.215 -45.245  11.413  1.00  0.00     0.066 C 
BRANCH  26  32
HETATM   32  O   UNL     1     -40.539 -46.549  10.243  1.00  0.00    -0.388 OA
HETATM   33  H   UNL     1     -41.136 -47.288  10.459  1.00  0.00     0.210 HD
ENDBRANCH  26  32
ENDBRANCH  25  26
ENDBRANCH   2  25
TORSDOF 6
ENDMDL
MODEL 7
REMARK VINA RESULT:      -6.9      2.485      7.315
REMARK  6 active torsions:
REMARK  status: ('A' for Active; 'I' for Inactive)
REMARK    1  A    between atoms: N_2  and  C_13 
REMARK    2  A    between atoms: C_6  and  N_7 
REMARK    3  A    between atoms: C_13  and  C_16 
REMARK    4  A    between atoms: C_16  and  O_27 
REMARK       I    between atoms: C_17  and  N_18 
REMARK    5  A    between atoms: N_18  and  C_23 
REMARK    6  A    between atoms: C_19  and  C_23 
ROOT
HETATM    1  C   UNL     1     -41.013 -49.627  12.531  1.00  0.00     0.117 A 
HETATM    2  N   UNL     1     -40.641 -47.794  11.402  1.00  0.00    -0.324 N 
HETATM    3  C   UNL     1     -40.277 -48.449  12.542  1.00  0.00     0.140 A 
HETATM    4  N   UNL     1     -41.820 -49.676  11.407  1.00  0.00    -0.346 N 
ATOM      5  HN  UNL     1     -42.484 -50.407  11.152  1.00  0.00     0.167 HD
HETATM    6  C   UNL     1     -40.788 -50.536  13.597  1.00  0.00     0.114 A 
HETATM    7  C   UNL     1     -41.545 -48.577  10.738  1.00  0.00     0.185 A 
HETATM    8  N   UNL     1     -39.382 -48.047  13.454  1.00  0.00    -0.336 N 
ATOM      9  HN  UNL     1     -38.884 -47.157  13.426  1.00  0.00     0.168 HD
HETATM   10  N   UNL     1     -39.859 -50.166  14.528  1.00  0.00    -0.341 N 
ATOM     11  HN  UNL     1     -39.641 -50.785  15.309  1.00  0.00     0.167 HD
HETATM   12  C   UNL     1     -39.232 -48.977  14.410  1.00  0.00     0.183 A 
ENDROOT
BRANCH   6  13
HETATM   13  N   UNL     1     -41.394 -51.793  13.684  1.00  0.00    -0.263 NA
HETATM   14  C   UNL     1     -42.854 -51.787  13.870  1.00  0.00     0.130 C 
HETATM   15  C   UNL     1     -43.305 -53.212  14.250  1.00  0.00     0.152 C 
HETATM   16  O   UNL     1     -42.914 -54.168  13.231  1.00  0.00    -0.382 OA
HETATM   17  C   UNL     1     -41.483 -54.165  13.072  1.00  0.00     0.183 C 
HETATM   18  C   UNL     1     -40.953 -52.776  12.681  1.00  0.00     0.123 C 
BRANCH  15  19
HETATM   19  C   UNL     1     -44.827 -53.261  14.406  1.00  0.00     0.155 C 
BRANCH  19  20
HETATM   20  N   UNL     1     -45.495 -52.952  13.152  1.00  0.00    -0.359 N 
HETATM   21  C   UNL     1     -46.425 -51.947  13.063  1.00  0.00     0.213 C 
HETATM   22  O   UNL     1     -46.824 -51.301  14.027  1.00  0.00    -0.274 OA
HETATM   23  C   UNL     1     -46.948 -51.709  11.671  1.00  0.00     0.117 C 
HETATM   24  H   UNL     1     -45.043 -53.291  12.310  1.00  0.00     0.162 HD
ENDBRANCH  19  20
ENDBRANCH  15  19
ENDBRANCH   6  13
BRANCH   2  25
HETATM   25  C   UNL     1     -40.052 -46.563  10.916  1.00  0.00     0.169 C 
BRANCH  25  26
HETATM   26  C   UNL     1     -41.019 -45.358  10.819  1.00  0.00     0.078 C 
HETATM   27  C   UNL     1     -40.198 -44.057  10.904  1.00  0.00     0.066 C 
HETATM   28  C   UNL     1     -39.819 -43.720  12.337  1.00  0.00     0.170 C 
HETATM   29  O   UNL     1     -40.999 -43.575  13.120  1.00  0.00    -0.391 OA
HETATM   30  C   UNL     1     -41.726 -44.796  13.229  1.00  0.00     0.170 C 
HETATM   31  C   UNL     1     -42.154 -45.318  11.860  1.00  0.00     0.066 C 
BRANCH  26  32
HETATM   32  O   UNL     1     -41.600 -45.382   9.500  1.00  0.00    -0.388 OA
HETATM   33  H   UNL     1     -41.523 -44.492   9.110  1.00  0.00     0.210 HD
ENDBRANCH  26  32
ENDBRANCH  25  26
ENDBRANCH   2  25
TORSDOF 6
ENDMDL
MODEL 8
REMARK VINA RESULT:      -6.7      1.812      2.663
REMARK  6 active torsions:
REMARK  status: ('A' for Active; 'I' for Inactive)
REMARK    1  A    between atoms: N_2  and  C_13 
REMARK    2  A    between atoms: C_6  and  N_7 
REMARK    3  A    between atoms: C_13  and  C_16 
REMARK    4  A    between atoms: C_16  and  O_27 
REMARK       I    between atoms: C_17  and  N_18 
REMARK    5  A    between atoms: N_18  and  C_23 
REMARK    6  A    between atoms: C_19  and  C_23 
ROOT
HETATM    1  C   UNL     1     -42.400 -50.957  13.112  1.00  0.00     0.117 A 
HETATM    2  N   UNL     1     -43.312 -52.835  13.756  1.00  0.00    -0.324 N 
HETATM    3  C   UNL     1     -42.823 -51.656  14.235  1.00  0.00     0.140 A 
HETATM    4  N   UNL     1     -42.619 -51.710  11.971  1.00  0.00    -0.346 N 
ATOM      5  HN  UNL     1     -42.384 -51.462  11.010  1.00  0.00     0.167 HD
HETATM    6  C   UNL     1     -41.884 -49.652  13.323  1.00  0.00     0.114 A 
HETATM    7  C   UNL     1     -43.197 -52.814  12.392  1.00  0.00     0.185 A 
HETATM    8  N   UNL     1     -42.787 -51.257  15.515  1.00  0.00    -0.336 N 
ATOM      9  HN  UNL     1     -43.090 -51.822  16.307  1.00  0.00     0.168 HD
HETATM   10  N   UNL     1     -41.861 -49.206  14.614  1.00  0.00    -0.341 N 
ATOM     11  HN  UNL     1     -41.517 -48.270  14.827  1.00  0.00     0.167 HD
HETATM   12  C   UNL     1     -42.296 -50.011  15.606  1.00  0.00     0.183 A 
ENDROOT
BRANCH   6  13
HETATM   13  N   UNL     1     -41.491 -48.798  12.287  1.00  0.00    -0.263 NA
HETATM   14  C   UNL     1     -42.583 -48.223  11.486  1.00  0.00     0.130 C 
HETATM   15  C   UNL     1     -41.975 -47.572  10.226  1.00  0.00     0.152 C 
HETATM   16  O   UNL     1     -41.002 -46.559  10.585  1.00  0.00    -0.382 OA
HETATM   17  C   UNL     1     -39.939 -47.144  11.359  1.00  0.00     0.183 C 
HETATM   18  C   UNL     1     -40.463 -47.806  12.643  1.00  0.00     0.123 C 
BRANCH  15  19
HETATM   19  C   UNL     1     -43.075 -46.918   9.386  1.00  0.00     0.155 C 
BRANCH  19  20
HETATM   20  N   UNL     1     -44.260 -47.758   9.326  1.00  0.00    -0.359 N 
HETATM   21  C   UNL     1     -45.489 -47.242   8.999  1.00  0.00     0.213 C 
HETATM   22  O   UNL     1     -45.700 -46.046   8.822  1.00  0.00    -0.274 OA
HETATM   23  C   UNL     1     -46.586 -48.270   8.898  1.00  0.00     0.117 C 
HETATM   24  H   UNL     1     -44.097 -48.755   9.239  1.00  0.00     0.162 HD
ENDBRANCH  19  20
ENDBRANCH  15  19
ENDBRANCH   6  13
BRANCH   2  25
HETATM   25  C   UNL     1     -43.974 -53.854  14.544  1.00  0.00     0.169 C 
BRANCH  25  26
HETATM   26  C   UNL     1     -45.500 -53.977  14.323  1.00  0.00     0.078 C 
HETATM   27  C   UNL     1     -45.998 -52.713  13.594  1.00  0.00     0.066 C 
HETATM   28  C   UNL     1     -46.165 -51.540  14.545  1.00  0.00     0.170 C 
HETATM   29  O   UNL     1     -47.097 -51.882  15.566  1.00  0.00    -0.391 OA
HETATM   30  C   UNL     1     -46.623 -52.940  16.395  1.00  0.00     0.170 C 
HETATM   31  C   UNL     1     -46.350 -54.207  15.588  1.00  0.00     0.066 C 
BRANCH  26  32
HETATM   32  O   UNL     1     -45.714 -55.075  13.415  1.00  0.00    -0.388 OA
HETATM   33  H   UNL     1     -44.948 -55.674  13.465  1.00  0.00     0.210 HD
ENDBRANCH  26  32
ENDBRANCH  25  26
ENDBRANCH   2  25
TORSDOF 6
ENDMDL
MODEL 9
REMARK VINA RESULT:      -6.5      2.603      8.671
REMARK  6 active torsions:
REMARK  status: ('A' for Active; 'I' for Inactive)
REMARK    1  A    between atoms: N_2  and  C_13 
REMARK    2  A    between atoms: C_6  and  N_7 
REMARK    3  A    between atoms: C_13  and  C_16 
REMARK    4  A    between atoms: C_16  and  O_27 
REMARK       I    between atoms: C_17  and  N_18 
REMARK    5  A    between atoms: N_18  and  C_23 
REMARK    6  A    between atoms: C_19  and  C_23 
ROOT
HETATM    1  C   UNL     1     -41.166 -48.904  11.820  1.00  0.00     0.117 A 
HETATM    2  N   UNL     1     -41.307 -46.906  10.948  1.00  0.00    -0.324 N 
HETATM    3  C   UNL     1     -40.598 -47.637  11.855  1.00  0.00     0.140 A 
HETATM    4  N   UNL     1     -42.211 -48.933  10.913  1.00  0.00    -0.346 N 
ATOM      5  HN  UNL     1     -42.824 -49.720  10.698  1.00  0.00     0.167 HD
HETATM    6  C   UNL     1     -40.578 -49.895  12.647  1.00  0.00     0.114 A 
HETATM    7  C   UNL     1     -42.244 -47.728  10.386  1.00  0.00     0.185 A 
HETATM    8  N   UNL     1     -39.562 -47.220  12.597  1.00  0.00    -0.336 N 
ATOM      9  HN  UNL     1     -39.198 -46.268  12.602  1.00  0.00     0.168 HD
HETATM   10  N   UNL     1     -39.502 -49.508  13.394  1.00  0.00    -0.341 N 
ATOM     11  HN  UNL     1     -39.025 -50.180  13.995  1.00  0.00     0.167 HD
HETATM   12  C   UNL     1     -39.071 -48.230  13.331  1.00  0.00     0.183 A 
ENDROOT
BRANCH   6  13
HETATM   13  N   UNL     1     -40.988 -51.233  12.663  1.00  0.00    -0.263 NA
HETATM   14  C   UNL     1     -40.081 -52.170  13.344  1.00  0.00     0.130 C 
HETATM   15  C   UNL     1     -40.518 -53.610  13.004  1.00  0.00     0.152 C 
HETATM   16  O   UNL     1     -41.895 -53.838  13.398  1.00  0.00    -0.382 OA
HETATM   17  C   UNL     1     -42.766 -52.918  12.714  1.00  0.00     0.183 C 
HETATM   18  C   UNL     1     -42.401 -51.455  13.011  1.00  0.00     0.123 C 
BRANCH  15  19
HETATM   19  C   UNL     1     -39.628 -54.619  13.733  1.00  0.00     0.155 C 
BRANCH  19  20
HETATM   20  N   UNL     1     -39.431 -54.240  15.122  1.00  0.00    -0.359 N 
HETATM   21  C   UNL     1     -38.639 -54.981  15.963  1.00  0.00     0.213 C 
HETATM   22  O   UNL     1     -38.117 -56.045  15.645  1.00  0.00    -0.274 OA
HETATM   23  C   UNL     1     -38.477 -54.393  17.340  1.00  0.00     0.117 C 
HETATM   24  H   UNL     1     -39.647 -53.277  15.357  1.00  0.00     0.162 HD
ENDBRANCH  19  20
ENDBRANCH  15  19
ENDBRANCH   6  13
BRANCH   2  25
HETATM   25  C   UNL     1     -41.009 -45.545  10.547  1.00  0.00     0.169 C 
BRANCH  25  26
HETATM   26  C   UNL     1     -41.924 -44.458  11.158  1.00  0.00     0.078 C 
HETATM   27  C   UNL     1     -41.180 -43.109  11.128  1.00  0.00     0.066 C 
HETATM   28  C   UNL     1     -40.176 -42.992  12.263  1.00  0.00     0.170 C 
HETATM   29  O   UNL     1     -40.850 -43.121  13.511  1.00  0.00    -0.391 OA
HETATM   30  C   UNL     1     -41.422 -44.415  13.682  1.00  0.00     0.170 C 
HETATM   31  C   UNL     1     -42.436 -44.731  12.586  1.00  0.00     0.066 C 
BRANCH  26  32
HETATM   32  O   UNL     1     -43.058 -44.311  10.280  1.00  0.00    -0.388 OA
HETATM   33  H   UNL     1     -42.885 -43.572   9.669  1.00  0.00     0.210 HD
ENDBRANCH  26  32
ENDBRANCH  25  26
ENDBRANCH   2  25
TORSDOF 6
ENDMDL
