MODEL 1
REMARK VINA RESULT:      -5.6      0.000      0.000
REMARK  6 active torsions:
REMARK  status: ('A' for Active; 'I' for Inactive)
REMARK    1  A    between atoms: C_2  and  C_3 
REMARK    2  A    between atoms: C_3  and  C_4 
REMARK    3  A    between atoms: C_3  and  N_18 
REMARK    4  A    between atoms: C_4  and  N_5 
REMARK       I    between atoms: N_5  and  C_6 
REMARK    5  A    between atoms: C_6  and  C_8 
REMARK    6  A    between atoms: C_8  and  C_9 
ROOT
HETATM    1  N   UNL     1     -43.087 -52.882  12.112  1.00  0.00    -0.359 N 
HETATM    2  C   UNL     1     -43.417 -53.826  13.059  1.00  0.00     0.222 C 
HETATM    3  O   UNL     1     -42.583 -54.361  13.785  1.00  0.00    -0.273 OA
HETATM    4  H   UNL     1     -43.795 -52.595  11.446  1.00  0.00     0.162 HD
ENDROOT
BRANCH   2   5
HETATM    5  C   UNL     1     -44.900 -54.151  13.146  1.00  0.00     0.145 C 
BRANCH   5   6
HETATM    6  C   UNL     1     -45.631 -53.116  13.933  1.00  0.00    -0.002 A 
HETATM    7  C   UNL     1     -46.432 -52.054  13.431  1.00  0.00     0.030 A 
HETATM    8  C   UNL     1     -46.761 -51.706  12.023  1.00  0.00     0.070 C 
HETATM    9  N   UNL     1     -46.909 -51.287  14.418  1.00  0.00    -0.303 N 
HETATM   10  N   UNL     1     -46.438 -51.849  15.537  1.00  0.00    -0.300 N 
ATOM     11  HN  UNL     1     -47.500 -50.460  14.337  1.00  0.00     0.186 HD
HETATM   12  C   UNL     1     -46.715 -51.208  16.802  1.00  0.00     0.177 C 
HETATM   13  C   UNL     1     -45.701 -52.983  15.313  1.00  0.00     0.033 A 
HETATM   14  C   UNL     1     -45.130 -53.827  16.394  1.00  0.00     0.070 C 
ENDBRANCH   5   6
ENDBRANCH   2   5
BRANCH   1  15
HETATM   15  C   UNL     1     -41.706 -52.519  11.836  1.00  0.00     0.158 C 
BRANCH  15  16
HETATM   16  C   UNL     1     -41.177 -51.240  12.560  1.00  0.00     0.240 C 
BRANCH  16  17
HETATM   17  C   UNL     1     -42.031 -49.986  12.214  1.00  0.00     0.033 C 
HETATM   18  C   UNL     1     -43.098 -49.596  13.226  1.00  0.00     0.007 C 
ENDBRANCH  16  17
BRANCH  16  19
HETATM   19  N   UNL     1     -39.748 -50.979  12.206  1.00  0.00     0.094 N 
HETATM   20  C   UNL     1     -38.801 -51.322  13.283  1.00  0.00     0.273 C 
HETATM   21  C   UNL     1     -37.653 -50.320  13.190  1.00  0.00     0.032 C 
HETATM   22  C   UNL     1     -37.973 -49.471  11.981  1.00  0.00     0.032 C 
HETATM   23  C   UNL     1     -39.481 -49.571  11.879  1.00  0.00     0.273 C 
ENDBRANCH  16  19
ENDBRANCH  15  16
ENDBRANCH   1  15
TORSDOF 6
ENDMDL
MODEL 2
REMARK VINA RESULT:      -5.5      2.000      6.934
REMARK  6 active torsions:
REMARK  status: ('A' for Active; 'I' for Inactive)
REMARK    1  A    between atoms: C_2  and  C_3 
REMARK    2  A    between atoms: C_3  and  C_4 
REMARK    3  A    between atoms: C_3  and  N_18 
REMARK    4  A    between atoms: C_4  and  N_5 
REMARK       I    between atoms: N_5  and  C_6 
REMARK    5  A    between atoms: C_6  and  C_8 
REMARK    6  A    between atoms: C_8  and  C_9 
ROOT
HETATM    1  N   UNL     1     -42.288 -51.859  11.936  1.00  0.00    -0.359 N 
HETATM    2  C   UNL     1     -40.945 -51.550  11.942  1.00  0.00     0.222 C 
HETATM    3  O   UNL     1     -40.084 -52.326  12.346  1.00  0.00    -0.273 OA
HETATM    4  H   UNL     1     -42.954 -51.122  11.736  1.00  0.00     0.162 HD
ENDROOT
BRANCH   2   5
HETATM    5  C   UNL     1     -40.606 -50.171  11.398  1.00  0.00     0.145 C 
BRANCH   5   6
HETATM    6  C   UNL     1     -39.644 -49.463  12.292  1.00  0.00    -0.002 A 
HETATM    7  C   UNL     1     -38.230 -49.393  12.158  1.00  0.00     0.030 A 
HETATM    8  C   UNL     1     -37.352 -49.979  11.111  1.00  0.00     0.070 C 
HETATM    9  N   UNL     1     -37.674 -48.704  13.162  1.00  0.00    -0.303 N 
HETATM   10  N   UNL     1     -38.707 -48.325  13.922  1.00  0.00    -0.300 N 
ATOM     11  HN  UNL     1     -36.684 -48.511  13.313  1.00  0.00     0.186 HD
HETATM   12  C   UNL     1     -38.438 -47.613  15.150  1.00  0.00     0.177 C 
HETATM   13  C   UNL     1     -39.926 -48.710  13.424  1.00  0.00     0.033 A 
HETATM   14  C   UNL     1     -41.226 -48.351  14.045  1.00  0.00     0.070 C 
ENDBRANCH   5   6
ENDBRANCH   2   5
BRANCH   1  15
HETATM   15  C   UNL     1     -42.794 -53.100  12.502  1.00  0.00     0.158 C 
BRANCH  15  16
HETATM   16  C   UNL     1     -43.500 -52.981  13.890  1.00  0.00     0.240 C 
BRANCH  16  17
HETATM   17  C   UNL     1     -44.056 -54.351  14.373  1.00  0.00     0.033 C 
HETATM   18  C   UNL     1     -43.098 -55.226  15.170  1.00  0.00     0.007 C 
ENDBRANCH  16  17
BRANCH  16  19
HETATM   19  N   UNL     1     -44.615 -51.985  13.837  1.00  0.00     0.094 N 
HETATM   20  C   UNL     1     -45.202 -51.688  15.157  1.00  0.00     0.273 C 
HETATM   21  C   UNL     1     -46.686 -51.418  14.922  1.00  0.00     0.032 C 
HETATM   22  C   UNL     1     -46.867 -51.505  13.423  1.00  0.00     0.032 C 
HETATM   23  C   UNL     1     -45.737 -52.417  12.993  1.00  0.00     0.273 C 
ENDBRANCH  16  19
ENDBRANCH  15  16
ENDBRANCH   1  15
TORSDOF 6
ENDMDL
MODEL 3
REMARK VINA RESULT:      -5.5      2.658      4.283
REMARK  6 active torsions:
REMARK  status: ('A' for Active; 'I' for Inactive)
REMARK    1  A    between atoms: C_2  and  C_3 
REMARK    2  A    between atoms: C_3  and  C_4 
REMARK    3  A    between atoms: C_3  and  N_18 
REMARK    4  A    between atoms: C_4  and  N_5 
REMARK       I    between atoms: N_5  and  C_6 
REMARK    5  A    between atoms: C_6  and  C_8 
REMARK    6  A    between atoms: C_8  and  C_9 
ROOT
HETATM    1  N   UNL     1     -41.071 -51.723  11.629  1.00  0.00    -0.359 N 
HETATM    2  C   UNL     1     -40.463 -52.577  12.523  1.00  0.00     0.222 C 
HETATM    3  O   UNL     1     -39.525 -52.236  13.238  1.00  0.00    -0.273 OA
HETATM    4  H   UNL     1     -41.733 -52.107  10.965  1.00  0.00     0.162 HD
ENDROOT
BRANCH   2   5
HETATM    5  C   UNL     1     -41.051 -53.979  12.565  1.00  0.00     0.145 C 
BRANCH   5   6
HETATM    6  C   UNL     1     -42.084 -54.096  13.634  1.00  0.00    -0.002 A 
HETATM    7  C   UNL     1     -41.888 -54.486  14.988  1.00  0.00     0.030 A 
HETATM    8  C   UNL     1     -40.630 -54.860  15.688  1.00  0.00     0.070 C 
HETATM    9  N   UNL     1     -43.043 -54.519  15.663  1.00  0.00    -0.303 N 
HETATM   10  N   UNL     1     -43.965 -54.146  14.770  1.00  0.00    -0.300 N 
ATOM     11  HN  UNL     1     -43.187 -54.772  16.640  1.00  0.00     0.186 HD
HETATM   12  C   UNL     1     -45.354 -54.149  15.167  1.00  0.00     0.177 C 
HETATM   13  C   UNL     1     -43.443 -53.829  13.541  1.00  0.00     0.033 A 
HETATM   14  C   UNL     1     -44.251 -53.320  12.404  1.00  0.00     0.070 C 
ENDBRANCH   5   6
ENDBRANCH   2   5
BRANCH   1  15
HETATM   15  C   UNL     1     -40.579 -50.373  11.399  1.00  0.00     0.158 C 
BRANCH  15  16
HETATM   16  C   UNL     1     -41.487 -49.215  11.923  1.00  0.00     0.240 C 
BRANCH  16  17
HETATM   17  C   UNL     1     -42.808 -49.754  12.544  1.00  0.00     0.033 C 
HETATM   18  C   UNL     1     -42.870 -49.799  14.065  1.00  0.00     0.007 C 
ENDBRANCH  16  17
BRANCH  16  19
HETATM   19  N   UNL     1     -41.813 -48.254  10.825  1.00  0.00     0.094 N 
HETATM   20  C   UNL     1     -40.983 -47.035  10.842  1.00  0.00     0.273 C 
HETATM   21  C   UNL     1     -41.867 -45.898  10.339  1.00  0.00     0.032 C 
HETATM   22  C   UNL     1     -43.180 -46.556   9.977  1.00  0.00     0.032 C 
HETATM   23  C   UNL     1     -43.205 -47.785  10.861  1.00  0.00     0.273 C 
ENDBRANCH  16  19
ENDBRANCH  15  16
ENDBRANCH   1  15
TORSDOF 6
ENDMDL
MODEL 4
REMARK VINA RESULT:      -5.4      3.498      6.779
REMARK  6 active torsions:
REMARK  status: ('A' for Active; 'I' for Inactive)
REMARK    1  A    between atoms: C_2  and  C_3 
REMARK    2  A    between atoms: C_3  and  C_4 
REMARK    3  A    between atoms: C_3  and  N_18 
REMARK    4  A    between atoms: C_4  and  N_5 
REMARK       I    between atoms: N_5  and  C_6 
REMARK    5  A    between atoms: C_6  and  C_8 
REMARK    6  A    between atoms: C_8  and  C_9 
ROOT
HETATM    1  N   UNL     1     -43.386 -49.847  12.215  1.00  0.00    -0.359 N 
HETATM    2  C   UNL     1     -42.086 -49.392  12.194  1.00  0.00     0.222 C 
HETATM    3  O   UNL     1     -41.328 -49.494  13.155  1.00  0.00    -0.273 OA
HETATM    4  H   UNL     1     -44.000 -49.595  11.450  1.00  0.00     0.162 HD
ENDROOT
BRANCH   2   5
HETATM    5  C   UNL     1     -41.653 -48.758  10.881  1.00  0.00     0.145 C 
BRANCH   5   6
HETATM    6  C   UNL     1     -41.992 -47.306  10.849  1.00  0.00    -0.002 A 
HETATM    7  C   UNL     1     -43.166 -46.703  10.319  1.00  0.00     0.030 A 
HETATM    8  C   UNL     1     -44.349 -47.342   9.683  1.00  0.00     0.070 C 
HETATM    9  N   UNL     1     -43.125 -45.370  10.423  1.00  0.00    -0.303 N 
HETATM   10  N   UNL     1     -41.955 -45.115  11.019  1.00  0.00    -0.300 N 
ATOM     11  HN  UNL     1     -43.828 -44.698  10.116  1.00  0.00     0.186 HD
HETATM   12  C   UNL     1     -41.564 -43.739  11.215  1.00  0.00     0.177 C 
HETATM   13  C   UNL     1     -41.248 -46.244  11.346  1.00  0.00     0.033 A 
HETATM   14  C   UNL     1     -39.955 -46.231  12.077  1.00  0.00     0.070 C 
ENDBRANCH   5   6
ENDBRANCH   2   5
BRANCH   1  15
HETATM   15  C   UNL     1     -43.988 -50.400  13.419  1.00  0.00     0.158 C 
BRANCH  15  16
HETATM   16  C   UNL     1     -44.812 -51.713  13.230  1.00  0.00     0.240 C 
BRANCH  16  17
HETATM   17  C   UNL     1     -46.332 -51.480  13.468  1.00  0.00     0.033 C 
HETATM   18  C   UNL     1     -46.782 -51.394  14.920  1.00  0.00     0.007 C 
ENDBRANCH  16  17
BRANCH  16  19
HETATM   19  N   UNL     1     -44.325 -52.785  14.153  1.00  0.00     0.094 N 
HETATM   20  C   UNL     1     -42.860 -52.804  14.315  1.00  0.00     0.273 C 
HETATM   21  C   UNL     1     -42.461 -54.265  14.504  1.00  0.00     0.032 C 
HETATM   22  C   UNL     1     -43.766 -55.027  14.516  1.00  0.00     0.032 C 
HETATM   23  C   UNL     1     -44.692 -54.138  13.712  1.00  0.00     0.273 C 
ENDBRANCH  16  19
ENDBRANCH  15  16
ENDBRANCH   1  15
TORSDOF 6
ENDMDL
MODEL 5
REMARK VINA RESULT:      -5.4      1.993      6.969
REMARK  6 active torsions:
REMARK  status: ('A' for Active; 'I' for Inactive)
REMARK    1  A    between atoms: C_2  and  C_3 
REMARK    2  A    between atoms: C_3  and  C_4 
REMARK    3  A    between atoms: C_3  and  N_18 
REMARK    4  A    between atoms: C_4  and  N_5 
REMARK       I    between atoms: N_5  and  C_6 
REMARK    5  A    between atoms: C_6  and  C_8 
REMARK    6  A    between atoms: C_8  and  C_9 
ROOT
HETATM    1  N   UNL     1     -41.830 -51.859  13.705  1.00  0.00    -0.359 N 
HETATM    2  C   UNL     1     -40.477 -51.920  13.453  1.00  0.00     0.222 C 
HETATM    3  O   UNL     1     -39.951 -52.858  12.861  1.00  0.00    -0.273 OA
HETATM    4  H   UNL     1     -42.175 -51.139  14.330  1.00  0.00     0.162 HD
ENDROOT
BRANCH   2   5
HETATM    5  C   UNL     1     -39.679 -50.728  13.959  1.00  0.00     0.145 C 
BRANCH   5   6
HETATM    6  C   UNL     1     -39.605 -49.655  12.926  1.00  0.00    -0.002 A 
HETATM    7  C   UNL     1     -38.628 -49.504  11.904  1.00  0.00     0.030 A 
HETATM    8  C   UNL     1     -37.455 -50.362  11.588  1.00  0.00     0.070 C 
HETATM    9  N   UNL     1     -38.845 -48.404  11.174  1.00  0.00    -0.303 N 
HETATM   10  N   UNL     1     -39.947 -47.861  11.703  1.00  0.00    -0.300 N 
ATOM     11  HN  UNL     1     -38.294 -48.058  10.389  1.00  0.00     0.186 HD
HETATM   12  C   UNL     1     -40.415 -46.598  11.180  1.00  0.00     0.177 C 
HETATM   13  C   UNL     1     -40.481 -48.594  12.731  1.00  0.00     0.033 A 
HETATM   14  C   UNL     1     -41.740 -48.241  13.435  1.00  0.00     0.070 C 
ENDBRANCH   5   6
ENDBRANCH   2   5
BRANCH   1  15
HETATM   15  C   UNL     1     -42.726 -52.954  13.368  1.00  0.00     0.158 C 
BRANCH  15  16
HETATM   16  C   UNL     1     -43.661 -53.451  14.516  1.00  0.00     0.240 C 
BRANCH  16  17
HETATM   17  C   UNL     1     -43.582 -54.994  14.697  1.00  0.00     0.033 C 
HETATM   18  C   UNL     1     -42.583 -55.502  15.728  1.00  0.00     0.007 C 
ENDBRANCH  16  17
BRANCH  16  19
HETATM   19  N   UNL     1     -45.080 -53.055  14.256  1.00  0.00     0.094 N 
HETATM   20  C   UNL     1     -45.370 -52.799  12.834  1.00  0.00     0.273 C 
HETATM   21  C   UNL     1     -46.417 -51.690  12.795  1.00  0.00     0.032 C 
HETATM   22  C   UNL     1     -46.740 -51.407  14.245  1.00  0.00     0.032 C 
HETATM   23  C   UNL     1     -45.479 -51.833  14.968  1.00  0.00     0.273 C 
ENDBRANCH  16  19
ENDBRANCH  15  16
ENDBRANCH   1  15
TORSDOF 6
ENDMDL
MODEL 6
REMARK VINA RESULT:      -5.4      2.652      6.580
REMARK  6 active torsions:
REMARK  status: ('A' for Active; 'I' for Inactive)
REMARK    1  A    between atoms: C_2  and  C_3 
REMARK    2  A    between atoms: C_3  and  C_4 
REMARK    3  A    between atoms: C_3  and  N_18 
REMARK    4  A    between atoms: C_4  and  N_5 
REMARK       I    between atoms: N_5  and  C_6 
REMARK    5  A    between atoms: C_6  and  C_8 
REMARK    6  A    between atoms: C_8  and  C_9 
ROOT
HETATM    1  N   UNL     1     -40.540 -51.285  11.441  1.00  0.00    -0.359 N 
HETATM    2  C   UNL     1     -39.387 -50.797  12.017  1.00  0.00     0.222 C 
HETATM    3  O   UNL     1     -38.744 -51.424  12.854  1.00  0.00    -0.273 OA
HETATM    4  H   UNL     1     -41.103 -50.658  10.877  1.00  0.00     0.162 HD
ENDROOT
BRANCH   2   5
HETATM    5  C   UNL     1     -38.963 -49.421  11.529  1.00  0.00     0.145 C 
BRANCH   5   6
HETATM    6  C   UNL     1     -39.784 -48.350  12.165  1.00  0.00    -0.002 A 
HETATM    7  C   UNL     1     -39.505 -47.648  13.370  1.00  0.00     0.030 A 
HETATM    8  C   UNL     1     -38.344 -47.778  14.290  1.00  0.00     0.070 C 
HETATM    9  N   UNL     1     -40.476 -46.777  13.667  1.00  0.00    -0.303 N 
HETATM   10  N   UNL     1     -41.359 -46.903  12.670  1.00  0.00    -0.300 N 
ATOM     11  HN  UNL     1     -40.532 -46.156  14.475  1.00  0.00     0.186 HD
HETATM   12  C   UNL     1     -42.583 -46.139  12.730  1.00  0.00     0.177 C 
HETATM   13  C   UNL     1     -40.974 -47.800  11.707  1.00  0.00     0.033 A 
HETATM   14  C   UNL     1     -41.745 -48.066  10.465  1.00  0.00     0.070 C 
ENDBRANCH   5   6
ENDBRANCH   2   5
BRANCH   1  15
HETATM   15  C   UNL     1     -41.134 -52.546  11.857  1.00  0.00     0.158 C 
BRANCH  15  16
HETATM   16  C   UNL     1     -42.586 -52.463  12.428  1.00  0.00     0.240 C 
BRANCH  16  17
HETATM   17  C   UNL     1     -42.709 -51.374  13.533  1.00  0.00     0.033 C 
HETATM   18  C   UNL     1     -43.536 -50.146  13.180  1.00  0.00     0.007 C 
ENDBRANCH  16  17
BRANCH  16  19
HETATM   19  N   UNL     1     -43.016 -53.783  12.984  1.00  0.00     0.094 N 
HETATM   20  C   UNL     1     -44.464 -54.031  12.861  1.00  0.00     0.273 C 
HETATM   21  C   UNL     1     -44.872 -54.849  14.083  1.00  0.00     0.032 C 
HETATM   22  C   UNL     1     -43.583 -55.100  14.833  1.00  0.00     0.032 C 
HETATM   23  C   UNL     1     -42.709 -53.937  14.413  1.00  0.00     0.273 C 
ENDBRANCH  16  19
ENDBRANCH  15  16
ENDBRANCH   1  15
TORSDOF 6
ENDMDL
MODEL 7
REMARK VINA RESULT:      -5.3      0.986      2.198
REMARK  6 active torsions:
REMARK  status: ('A' for Active; 'I' for Inactive)
REMARK    1  A    between atoms: C_2  and  C_3 
REMARK    2  A    between atoms: C_3  and  C_4 
REMARK    3  A    between atoms: C_3  and  N_18 
REMARK    4  A    between atoms: C_4  and  N_5 
REMARK       I    between atoms: N_5  and  C_6 
REMARK    5  A    between atoms: C_6  and  C_8 
REMARK    6  A    between atoms: C_8  and  C_9 
ROOT
HETATM    1  N   UNL     1     -42.699 -52.254  12.211  1.00  0.00    -0.359 N 
HETATM    2  C   UNL     1     -42.786 -53.504  12.784  1.00  0.00     0.222 C 
HETATM    3  O   UNL     1     -41.801 -54.140  13.149  1.00  0.00    -0.273 OA
HETATM    4  H   UNL     1     -43.531 -51.853  11.794  1.00  0.00     0.162 HD
ENDROOT
BRANCH   2   5
HETATM    5  C   UNL     1     -44.202 -54.036  12.941  1.00  0.00     0.145 C 
BRANCH   5   6
HETATM    6  C   UNL     1     -44.881 -53.418  14.116  1.00  0.00    -0.002 A 
HETATM    7  C   UNL     1     -44.639 -53.680  15.492  1.00  0.00     0.030 A 
HETATM    8  C   UNL     1     -43.659 -54.609  16.116  1.00  0.00     0.070 C 
HETATM    9  N   UNL     1     -45.457 -52.973  16.280  1.00  0.00    -0.303 N 
HETATM   10  N   UNL     1     -46.204 -52.257  15.433  1.00  0.00    -0.300 N 
ATOM     11  HN  UNL     1     -45.501 -52.978  17.299  1.00  0.00     0.186 HD
HETATM   12  C   UNL     1     -47.257 -51.427  15.970  1.00  0.00     0.177 C 
HETATM   13  C   UNL     1     -45.871 -52.444  14.115  1.00  0.00     0.033 A 
HETATM   14  C   UNL     1     -46.504 -51.712  12.988  1.00  0.00     0.070 C 
ENDBRANCH   5   6
ENDBRANCH   2   5
BRANCH   1  15
HETATM   15  C   UNL     1     -41.418 -51.635  11.907  1.00  0.00     0.158 C 
BRANCH  15  16
HETATM   16  C   UNL     1     -41.185 -50.214  12.513  1.00  0.00     0.240 C 
BRANCH  16  17
HETATM   17  C   UNL     1     -41.733 -49.094  11.583  1.00  0.00     0.033 C 
HETATM   18  C   UNL     1     -42.991 -48.379  12.055  1.00  0.00     0.007 C 
ENDBRANCH  16  17
BRANCH  16  19
HETATM   19  N   UNL     1     -39.731 -49.977  12.772  1.00  0.00     0.094 N 
HETATM   20  C   UNL     1     -39.047 -49.260  11.679  1.00  0.00     0.273 C 
HETATM   21  C   UNL     1     -37.620 -49.799  11.631  1.00  0.00     0.032 C 
HETATM   22  C   UNL     1     -37.532 -50.776  12.782  1.00  0.00     0.032 C 
HETATM   23  C   UNL     1     -38.969 -51.218  12.969  1.00  0.00     0.273 C 
ENDBRANCH  16  19
ENDBRANCH  15  16
ENDBRANCH   1  15
TORSDOF 6
ENDMDL
MODEL 8
REMARK VINA RESULT:      -5.3      3.565      6.756
REMARK  6 active torsions:
REMARK  status: ('A' for Active; 'I' for Inactive)
REMARK    1  A    between atoms: C_2  and  C_3 
REMARK    2  A    between atoms: C_3  and  C_4 
REMARK    3  A    between atoms: C_3  and  N_18 
REMARK    4  A    between atoms: C_4  and  N_5 
REMARK       I    between atoms: N_5  and  C_6 
REMARK    5  A    between atoms: C_6  and  C_8 
REMARK    6  A    between atoms: C_8  and  C_9 
ROOT
HETATM    1  N   UNL     1     -43.101 -49.664  12.138  1.00  0.00    -0.359 N 
HETATM    2  C   UNL     1     -41.753 -49.400  12.035  1.00  0.00     0.222 C 
HETATM    3  O   UNL     1     -40.947 -49.697  12.913  1.00  0.00    -0.273 OA
HETATM    4  H   UNL     1     -43.728 -49.258  11.453  1.00  0.00     0.162 HD
ENDROOT
BRANCH   2   5
HETATM    5  C   UNL     1     -41.333 -48.718  10.742  1.00  0.00     0.145 C 
BRANCH   5   6
HETATM    6  C   UNL     1     -42.071 -47.436  10.549  1.00  0.00    -0.002 A 
HETATM    7  C   UNL     1     -42.020 -46.276  11.369  1.00  0.00     0.030 A 
HETATM    8  C   UNL     1     -41.228 -46.029  12.603  1.00  0.00     0.070 C 
HETATM    9  N   UNL     1     -42.841 -45.319  10.921  1.00  0.00    -0.303 N 
HETATM   10  N   UNL     1     -43.401 -45.843   9.825  1.00  0.00    -0.300 N 
ATOM     11  HN  UNL     1     -43.003 -44.397  11.324  1.00  0.00     0.186 HD
HETATM   12  C   UNL     1     -44.412 -45.078   9.132  1.00  0.00     0.177 C 
HETATM   13  C   UNL     1     -42.941 -47.099   9.520  1.00  0.00     0.033 A 
HETATM   14  C   UNL     1     -43.355 -47.863   8.316  1.00  0.00     0.070 C 
ENDBRANCH   5   6
ENDBRANCH   2   5
BRANCH   1  15
HETATM   15  C   UNL     1     -43.684 -50.232  13.343  1.00  0.00     0.158 C 
BRANCH  15  16
HETATM   16  C   UNL     1     -44.381 -51.620  13.177  1.00  0.00     0.240 C 
BRANCH  16  17
HETATM   17  C   UNL     1     -45.917 -51.525  13.407  1.00  0.00     0.033 C 
HETATM   18  C   UNL     1     -46.796 -51.717  12.179  1.00  0.00     0.007 C 
ENDBRANCH  16  17
BRANCH  16  19
HETATM   19  N   UNL     1     -43.801 -52.625  14.122  1.00  0.00     0.094 N 
HETATM   20  C   UNL     1     -42.364 -52.874  13.908  1.00  0.00     0.273 C 
HETATM   21  C   UNL     1     -42.121 -54.342  14.245  1.00  0.00     0.032 C 
HETATM   22  C   UNL     1     -43.459 -54.860  14.722  1.00  0.00     0.032 C 
HETATM   23  C   UNL     1     -44.448 -53.941  14.035  1.00  0.00     0.273 C 
ENDBRANCH  16  19
ENDBRANCH  15  16
ENDBRANCH   1  15
TORSDOF 6
ENDMDL
MODEL 9
REMARK VINA RESULT:      -5.2      2.513      6.957
REMARK  6 active torsions:
REMARK  status: ('A' for Active; 'I' for Inactive)
REMARK    1  A    between atoms: C_2  and  C_3 
REMARK    2  A    between atoms: C_3  and  C_4 
REMARK    3  A    between atoms: C_3  and  N_18 
REMARK    4  A    between atoms: C_4  and  N_5 
REMARK       I    between atoms: N_5  and  C_6 
REMARK    5  A    between atoms: C_6  and  C_8 
REMARK    6  A    between atoms: C_8  and  C_9 
ROOT
HETATM    1  N   UNL     1     -43.122 -50.289  12.618  1.00  0.00    -0.359 N 
HETATM    2  C   UNL     1     -41.770 -50.536  12.719  1.00  0.00     0.222 C 
HETATM    3  O   UNL     1     -41.257 -51.040  13.714  1.00  0.00    -0.273 OA
HETATM    4  H   UNL     1     -43.456 -49.733  11.839  1.00  0.00     0.162 HD
ENDROOT
BRANCH   2   5
HETATM    5  C   UNL     1     -40.957 -50.142  11.495  1.00  0.00     0.145 C 
BRANCH   5   6
HETATM    6  C   UNL     1     -40.701 -48.673  11.471  1.00  0.00    -0.002 A 
HETATM    7  C   UNL     1     -39.678 -47.962  12.158  1.00  0.00     0.030 A 
HETATM    8  C   UNL     1     -38.607 -48.479  13.050  1.00  0.00     0.070 C 
HETATM    9  N   UNL     1     -39.764 -46.645  11.940  1.00  0.00    -0.303 N 
HETATM   10  N   UNL     1     -40.811 -46.506  11.120  1.00  0.00    -0.300 N 
ATOM     11  HN  UNL     1     -39.164 -45.910  12.316  1.00  0.00     0.186 HD
HETATM   12  C   UNL     1     -41.225 -45.174  10.745  1.00  0.00     0.177 C 
HETATM   13  C   UNL     1     -41.389 -47.697  10.761  1.00  0.00     0.033 A 
HETATM   14  C   UNL     1     -42.519 -47.816   9.806  1.00  0.00     0.070 C 
ENDBRANCH   5   6
ENDBRANCH   2   5
BRANCH   1  15
HETATM   15  C   UNL     1     -44.032 -50.523  13.728  1.00  0.00     0.158 C 
BRANCH  15  16
HETATM   16  C   UNL     1     -45.167 -51.566  13.474  1.00  0.00     0.240 C 
BRANCH  16  17
HETATM   17  C   UNL     1     -46.263 -51.504  14.577  1.00  0.00     0.033 C 
HETATM   18  C   UNL     1     -45.842 -50.913  15.915  1.00  0.00     0.007 C 
ENDBRANCH  16  17
BRANCH  16  19
HETATM   19  N   UNL     1     -44.612 -52.953  13.405  1.00  0.00     0.094 N 
HETATM   20  C   UNL     1     -45.647 -54.002  13.371  1.00  0.00     0.273 C 
HETATM   21  C   UNL     1     -45.074 -55.204  14.116  1.00  0.00     0.032 C 
HETATM   22  C   UNL     1     -43.666 -54.798  14.489  1.00  0.00     0.032 C 
HETATM   23  C   UNL     1     -43.747 -53.287  14.546  1.00  0.00     0.273 C 
ENDBRANCH  16  19
ENDBRANCH  15  16
ENDBRANCH   1  15
TORSDOF 6
ENDMDL
