MODEL 1
REMARK VINA RESULT:      -6.6      0.000      0.000
REMARK  4 active torsions:
REMARK  status: ('A' for Active; 'I' for Inactive)
REMARK    1  A    between atoms: C_2  and  C_5 
REMARK    2  A    between atoms: N_10  and  C_11 
REMARK    3  A    between atoms: C_11  and  C_12 
REMARK       I    between atoms: C_12  and  N_14 
REMARK    4  A    between atoms: N_14  and  C_15 
ROOT
HETATM    1  C   UNL     1     -40.886 -51.805  11.715  1.00  0.00     0.234 C 
ENDROOT
BRANCH   1   2
HETATM    2  N   UNL     1     -41.543 -52.821  12.531  1.00  0.00    -0.315 N 
HETATM    3  C   UNL     1     -40.763 -53.514  13.446  1.00  0.00     0.247 A 
HETATM    4  C   UNL     1     -41.508 -54.368  14.418  1.00  0.00     0.075 A 
HETATM    5  O   UNL     1     -39.537 -53.438  13.505  1.00  0.00    -0.268 OA
HETATM    6  C   UNL     1     -42.845 -54.445  14.362  1.00  0.00     0.023 A 
HETATM    7  C   UNL     1     -43.596 -53.721  13.355  1.00  0.00     0.063 A 
HETATM    8  C   UNL     1     -42.923 -52.957  12.475  1.00  0.00     0.110 A 
BRANCH   7   9
HETATM    9  C   UNL     1     -45.101 -53.771  13.366  1.00  0.00     0.418 C 
HETATM   10  F   UNL     1     -45.589 -55.038  13.310  1.00  0.00    -0.166 F 
HETATM   11  F   UNL     1     -45.642 -53.093  12.324  1.00  0.00    -0.166 F 
HETATM   12  F   UNL     1     -45.605 -53.214  14.500  1.00  0.00    -0.166 F 
ENDBRANCH   7   9
ENDBRANCH   1   2
BRANCH   1  13
HETATM   13  C   UNL     1     -41.311 -50.377  12.041  1.00  0.00     0.236 C 
HETATM   14  O   UNL     1     -41.427 -49.980  13.199  1.00  0.00    -0.272 OA
HETATM   15  N   UNL     1     -41.569 -49.576  10.943  1.00  0.00    -0.354 N 
HETATM   16  H   UNL     1     -41.708 -50.053  10.051  1.00  0.00     0.162 HD
BRANCH  15  17
HETATM   17  C   UNL     1     -41.981 -48.179  11.056  1.00  0.00     0.099 C 
HETATM   18  C   UNL     1     -42.973 -47.744   9.955  1.00  0.00     0.041 C 
HETATM   19  C   UNL     1     -42.837 -46.247   9.689  1.00  0.00     0.142 C 
HETATM   20  S   UNL     1     -41.565 -45.634  10.768  1.00  0.00     0.146 S 
HETATM   21  O   UNL     1     -40.653 -44.800  10.017  1.00  0.00    -0.228 OA
HETATM   22  O   UNL     1     -42.191 -45.181  11.994  1.00  0.00    -0.228 OA
HETATM   23  C   UNL     1     -40.811 -47.204  11.081  1.00  0.00     0.165 C 
ENDBRANCH  15  17
ENDBRANCH   1  13
TORSDOF 4
ENDMDL
MODEL 2
REMARK VINA RESULT:      -6.4      4.013      7.323
REMARK  4 active torsions:
REMARK  status: ('A' for Active; 'I' for Inactive)
REMARK    1  A    between atoms: C_2  and  C_5 
REMARK    2  A    between atoms: N_10  and  C_11 
REMARK    3  A    between atoms: C_11  and  C_12 
REMARK       I    between atoms: C_12  and  N_14 
REMARK    4  A    between atoms: N_14  and  C_15 
ROOT
HETATM    1  C   UNL     1     -40.594 -49.701  11.119  1.00  0.00     0.234 C 
ENDROOT
BRANCH   1   2
HETATM    2  N   UNL     1     -41.120 -48.349  10.951  1.00  0.00    -0.315 N 
HETATM    3  C   UNL     1     -40.340 -47.295  11.406  1.00  0.00     0.247 A 
HETATM    4  C   UNL     1     -40.797 -45.931  11.006  1.00  0.00     0.075 A 
HETATM    5  O   UNL     1     -39.317 -47.431  12.074  1.00  0.00    -0.268 OA
HETATM    6  C   UNL     1     -41.908 -45.781  10.271  1.00  0.00     0.023 A 
HETATM    7  C   UNL     1     -42.696 -46.925   9.860  1.00  0.00     0.063 A 
HETATM    8  C   UNL     1     -42.287 -48.155  10.225  1.00  0.00     0.110 A 
BRANCH   7   9
HETATM    9  C   UNL     1     -43.895 -46.727   8.971  1.00  0.00     0.418 C 
HETATM   10  F   UNL     1     -43.762 -47.327   7.759  1.00  0.00    -0.166 F 
HETATM   11  F   UNL     1     -44.145 -45.415   8.735  1.00  0.00    -0.166 F 
HETATM   12  F   UNL     1     -45.019 -47.245   9.536  1.00  0.00    -0.166 F 
ENDBRANCH   7   9
ENDBRANCH   1   2
BRANCH   1  13
HETATM   13  C   UNL     1     -41.165 -50.443  12.324  1.00  0.00     0.236 C 
HETATM   14  O   UNL     1     -40.790 -50.210  13.470  1.00  0.00    -0.272 OA
HETATM   15  N   UNL     1     -42.118 -51.400  12.025  1.00  0.00    -0.354 N 
HETATM   16  H   UNL     1     -42.169 -51.708  11.053  1.00  0.00     0.162 HD
BRANCH  15  17
HETATM   17  C   UNL     1     -42.783 -52.206  13.045  1.00  0.00     0.099 C 
HETATM   18  C   UNL     1     -41.956 -53.434  13.487  1.00  0.00     0.041 C 
HETATM   19  C   UNL     1     -42.884 -54.546  13.969  1.00  0.00     0.142 C 
HETATM   20  S   UNL     1     -44.550 -53.949  13.802  1.00  0.00     0.146 S 
HETATM   21  O   UNL     1     -45.365 -54.960  13.163  1.00  0.00    -0.228 OA
HETATM   22  O   UNL     1     -44.935 -53.326  15.052  1.00  0.00    -0.228 OA
HETATM   23  C   UNL     1     -44.176 -52.669  12.639  1.00  0.00     0.165 C 
ENDBRANCH  15  17
ENDBRANCH   1  13
TORSDOF 4
ENDMDL
MODEL 3
REMARK VINA RESULT:      -6.3      4.168      7.409
REMARK  4 active torsions:
REMARK  status: ('A' for Active; 'I' for Inactive)
REMARK    1  A    between atoms: C_2  and  C_5 
REMARK    2  A    between atoms: N_10  and  C_11 
REMARK    3  A    between atoms: C_11  and  C_12 
REMARK       I    between atoms: C_12  and  N_14 
REMARK    4  A    between atoms: N_14  and  C_15 
ROOT
HETATM    1  C   UNL     1     -42.427 -48.658  13.358  1.00  0.00     0.234 C 
ENDROOT
BRANCH   1   2
HETATM    2  N   UNL     1     -42.479 -47.758  12.209  1.00  0.00    -0.315 N 
HETATM    3  C   UNL     1     -41.348 -47.002  11.935  1.00  0.00     0.247 A 
HETATM    4  C   UNL     1     -41.353 -46.279  10.628  1.00  0.00     0.075 A 
HETATM    5  O   UNL     1     -40.371 -46.924  12.677  1.00  0.00    -0.268 OA
HETATM    6  C   UNL     1     -42.413 -46.369   9.812  1.00  0.00     0.023 A 
HETATM    7  C   UNL     1     -43.577 -47.149  10.178  1.00  0.00     0.063 A 
HETATM    8  C   UNL     1     -43.575 -47.796  11.360  1.00  0.00     0.110 A 
BRANCH   7   9
HETATM    9  C   UNL     1     -44.719 -47.290   9.207  1.00  0.00     0.418 C 
HETATM   10  F   UNL     1     -44.355 -47.897   8.046  1.00  0.00    -0.166 F 
HETATM   11  F   UNL     1     -45.256 -46.090   8.872  1.00  0.00    -0.166 F 
HETATM   12  F   UNL     1     -45.726 -48.038   9.733  1.00  0.00    -0.166 F 
ENDBRANCH   7   9
ENDBRANCH   1   2
BRANCH   1  13
HETATM   13  C   UNL     1     -42.966 -50.057  13.074  1.00  0.00     0.236 C 
HETATM   14  O   UNL     1     -42.381 -50.842  12.332  1.00  0.00    -0.272 OA
HETATM   15  N   UNL     1     -44.161 -50.363  13.700  1.00  0.00    -0.354 N 
HETATM   16  H   UNL     1     -44.699 -49.578  14.069  1.00  0.00     0.162 HD
BRANCH  15  17
HETATM   17  C   UNL     1     -44.826 -51.655  13.555  1.00  0.00     0.099 C 
HETATM   18  C   UNL     1     -46.346 -51.592  13.823  1.00  0.00     0.041 C 
HETATM   19  C   UNL     1     -46.846 -52.944  14.328  1.00  0.00     0.142 C 
HETATM   20  S   UNL     1     -45.440 -54.028  14.405  1.00  0.00     0.146 S 
HETATM   21  O   UNL     1     -45.432 -54.721  15.675  1.00  0.00    -0.228 OA
HETATM   22  O   UNL     1     -45.342 -54.734  13.143  1.00  0.00    -0.228 OA
HETATM   23  C   UNL     1     -44.217 -52.751  14.420  1.00  0.00     0.165 C 
ENDBRANCH  15  17
ENDBRANCH   1  13
TORSDOF 4
ENDMDL
MODEL 4
REMARK VINA RESULT:      -6.2      3.998      6.620
REMARK  4 active torsions:
REMARK  status: ('A' for Active; 'I' for Inactive)
REMARK    1  A    between atoms: C_2  and  C_5 
REMARK    2  A    between atoms: N_10  and  C_11 
REMARK    3  A    between atoms: C_11  and  C_12 
REMARK       I    between atoms: C_12  and  N_14 
REMARK    4  A    between atoms: N_14  and  C_15 
ROOT
HETATM    1  C   UNL     1     -43.165 -47.287  12.198  1.00  0.00     0.234 C 
ENDROOT
BRANCH   1   2
HETATM    2  N   UNL     1     -43.559 -47.309  10.793  1.00  0.00    -0.315 N 
HETATM    3  C   UNL     1     -42.565 -47.123   9.843  1.00  0.00     0.247 A 
HETATM    4  C   UNL     1     -42.962 -47.387   8.428  1.00  0.00     0.075 A 
HETATM    5  O   UNL     1     -41.411 -46.790  10.107  1.00  0.00    -0.268 OA
HETATM    6  C   UNL     1     -44.217 -47.760   8.139  1.00  0.00     0.023 A 
HETATM    7  C   UNL     1     -45.216 -47.901   9.179  1.00  0.00     0.063 A 
HETATM    8  C   UNL     1     -44.859 -47.656  10.454  1.00  0.00     0.110 A 
BRANCH   7   9
HETATM    9  C   UNL     1     -46.596 -48.393   8.828  1.00  0.00     0.418 C 
HETATM   10  F   UNL     1     -46.687 -48.848   7.551  1.00  0.00    -0.166 F 
HETATM   11  F   UNL     1     -47.535 -47.425   8.969  1.00  0.00    -0.166 F 
HETATM   12  F   UNL     1     -46.971 -49.424   9.632  1.00  0.00    -0.166 F 
ENDBRANCH   7   9
ENDBRANCH   1   2
BRANCH   1  13
HETATM   13  C   UNL     1     -42.580 -48.604  12.700  1.00  0.00     0.236 C 
HETATM   14  O   UNL     1     -43.293 -49.549  13.030  1.00  0.00    -0.272 OA
HETATM   15  N   UNL     1     -41.199 -48.645  12.767  1.00  0.00    -0.354 N 
HETATM   16  H   UNL     1     -40.712 -47.749  12.733  1.00  0.00     0.162 HD
BRANCH  15  17
HETATM   17  C   UNL     1     -40.459 -49.822  13.215  1.00  0.00     0.099 C 
HETATM   18  C   UNL     1     -39.715 -49.603  14.550  1.00  0.00     0.041 C 
HETATM   19  C   UNL     1     -38.488 -50.508  14.622  1.00  0.00     0.142 C 
HETATM   20  S   UNL     1     -38.431 -51.436  13.107  1.00  0.00     0.146 S 
HETATM   21  O   UNL     1     -37.089 -51.397  12.566  1.00  0.00    -0.228 OA
HETATM   22  O   UNL     1     -39.144 -52.681  13.311  1.00  0.00    -0.228 OA
HETATM   23  C   UNL     1     -39.474 -50.348  12.180  1.00  0.00     0.165 C 
ENDBRANCH  15  17
ENDBRANCH   1  13
TORSDOF 4
ENDMDL
MODEL 5
REMARK VINA RESULT:      -6.1      3.914      5.329
REMARK  4 active torsions:
REMARK  status: ('A' for Active; 'I' for Inactive)
REMARK    1  A    between atoms: C_2  and  C_5 
REMARK    2  A    between atoms: N_10  and  C_11 
REMARK    3  A    between atoms: C_11  and  C_12 
REMARK       I    between atoms: C_12  and  N_14 
REMARK    4  A    between atoms: N_14  and  C_15 
ROOT
HETATM    1  C   UNL     1     -43.959 -54.405  14.478  1.00  0.00     0.234 C 
ENDROOT
BRANCH   1   2
HETATM    2  N   UNL     1     -44.860 -53.263  14.368  1.00  0.00    -0.315 N 
HETATM    3  C   UNL     1     -45.282 -52.896  13.097  1.00  0.00     0.247 A 
HETATM    4  C   UNL     1     -46.378 -51.884  13.045  1.00  0.00     0.075 A 
HETATM    5  O   UNL     1     -44.829 -53.368  12.057  1.00  0.00    -0.268 OA
HETATM    6  C   UNL     1     -46.880 -51.374  14.179  1.00  0.00     0.023 A 
HETATM    7  C   UNL     1     -46.367 -51.776  15.473  1.00  0.00     0.063 A 
HETATM    8  C   UNL     1     -45.374 -52.684  15.520  1.00  0.00     0.110 A 
BRANCH   7   9
HETATM    9  C   UNL     1     -47.003 -51.240  16.728  1.00  0.00     0.418 C 
HETATM   10  F   UNL     1     -48.296 -50.861  16.547  1.00  0.00    -0.166 F 
HETATM   11  F   UNL     1     -46.342 -50.162  17.216  1.00  0.00    -0.166 F 
HETATM   12  F   UNL     1     -47.011 -52.175  17.715  1.00  0.00    -0.166 F 
ENDBRANCH   7   9
ENDBRANCH   1   2
BRANCH   1  13
HETATM   13  C   UNL     1     -42.482 -54.026  14.547  1.00  0.00     0.236 C 
HETATM   14  O   UNL     1     -41.673 -54.677  15.204  1.00  0.00    -0.272 OA
HETATM   15  N   UNL     1     -42.133 -52.895  13.832  1.00  0.00    -0.354 N 
HETATM   16  H   UNL     1     -42.896 -52.280  13.546  1.00  0.00     0.162 HD
BRANCH  15  17
HETATM   17  C   UNL     1     -40.767 -52.382  13.773  1.00  0.00     0.099 C 
HETATM   18  C   UNL     1     -40.455 -51.349  14.878  1.00  0.00     0.041 C 
HETATM   19  C   UNL     1     -39.370 -50.386  14.404  1.00  0.00     0.142 C 
HETATM   20  S   UNL     1     -38.929 -50.863  12.750  1.00  0.00     0.146 S 
HETATM   21  O   UNL     1     -38.890 -49.691  11.902  1.00  0.00    -0.228 OA
HETATM   22  O   UNL     1     -37.822 -51.795  12.827  1.00  0.00    -0.228 OA
HETATM   23  C   UNL     1     -40.403 -51.783  12.420  1.00  0.00     0.165 C 
ENDBRANCH  15  17
ENDBRANCH   1  13
TORSDOF 4
ENDMDL
MODEL 6
REMARK VINA RESULT:      -6.0      1.687      2.339
REMARK  4 active torsions:
REMARK  status: ('A' for Active; 'I' for Inactive)
REMARK    1  A    between atoms: C_2  and  C_5 
REMARK    2  A    between atoms: N_10  and  C_11 
REMARK    3  A    between atoms: C_11  and  C_12 
REMARK       I    between atoms: C_12  and  N_14 
REMARK    4  A    between atoms: N_14  and  C_15 
ROOT
HETATM    1  C   UNL     1     -41.626 -50.859  13.470  1.00  0.00     0.234 C 
ENDROOT
BRANCH   1   2
HETATM    2  N   UNL     1     -42.730 -51.805  13.345  1.00  0.00    -0.315 N 
HETATM    3  C   UNL     1     -42.413 -53.134  13.102  1.00  0.00     0.247 A 
HETATM    4  C   UNL     1     -43.544 -54.102  13.216  1.00  0.00     0.075 A 
HETATM    5  O   UNL     1     -41.283 -53.537  12.834  1.00  0.00    -0.268 OA
HETATM    6  C   UNL     1     -44.776 -53.667  13.517  1.00  0.00     0.023 A 
HETATM    7  C   UNL     1     -45.044 -52.258  13.723  1.00  0.00     0.063 A 
HETATM    8  C   UNL     1     -44.025 -51.385  13.614  1.00  0.00     0.110 A 
BRANCH   7   9
HETATM    9  C   UNL     1     -46.422 -51.811  14.133  1.00  0.00     0.418 C 
HETATM   10  F   UNL     1     -46.409 -50.946  15.182  1.00  0.00    -0.166 F 
HETATM   11  F   UNL     1     -47.212 -52.854  14.493  1.00  0.00    -0.166 F 
HETATM   12  F   UNL     1     -47.057 -51.171  13.115  1.00  0.00    -0.166 F 
ENDBRANCH   7   9
ENDBRANCH   1   2
BRANCH   1  13
HETATM   13  C   UNL     1     -41.419 -49.980  12.240  1.00  0.00     0.236 C 
HETATM   14  O   UNL     1     -40.802 -50.376  11.253  1.00  0.00    -0.272 OA
HETATM   15  N   UNL     1     -41.962 -48.711  12.327  1.00  0.00    -0.354 N 
HETATM   16  H   UNL     1     -42.212 -48.384  13.261  1.00  0.00     0.162 HD
BRANCH  15  17
HETATM   17  C   UNL     1     -41.872 -47.731  11.248  1.00  0.00     0.099 C 
HETATM   18  C   UNL     1     -40.495 -47.035  11.168  1.00  0.00     0.041 C 
HETATM   19  C   UNL     1     -40.646 -45.642  10.563  1.00  0.00     0.142 C 
HETATM   20  S   UNL     1     -42.372 -45.406  10.212  1.00  0.00     0.146 S 
HETATM   21  O   UNL     1     -42.792 -44.110  10.700  1.00  0.00    -0.228 OA
HETATM   22  O   UNL     1     -42.621 -45.833   8.850  1.00  0.00    -0.228 OA
HETATM   23  C   UNL     1     -42.961 -46.668  11.303  1.00  0.00     0.165 C 
ENDBRANCH  15  17
ENDBRANCH   1  13
TORSDOF 4
ENDMDL
MODEL 7
REMARK VINA RESULT:      -5.7      2.802      3.384
REMARK  4 active torsions:
REMARK  status: ('A' for Active; 'I' for Inactive)
REMARK    1  A    between atoms: C_2  and  C_5 
REMARK    2  A    between atoms: N_10  and  C_11 
REMARK    3  A    between atoms: C_11  and  C_12 
REMARK       I    between atoms: C_12  and  N_14 
REMARK    4  A    between atoms: N_14  and  C_15 
ROOT
HETATM    1  C   UNL     1     -41.279 -52.381  11.778  1.00  0.00     0.234 C 
ENDROOT
BRANCH   1   2
HETATM    2  N   UNL     1     -41.773 -53.354  12.747  1.00  0.00    -0.315 N 
HETATM    3  C   UNL     1     -40.861 -53.880  13.652  1.00  0.00     0.247 A 
HETATM    4  C   UNL     1     -41.444 -54.683  14.768  1.00  0.00     0.075 A 
HETATM    5  O   UNL     1     -39.646 -53.700  13.592  1.00  0.00    -0.268 OA
HETATM    6  C   UNL     1     -42.769 -54.873  14.840  1.00  0.00     0.023 A 
HETATM    7  C   UNL     1     -43.661 -54.324  13.840  1.00  0.00     0.063 A 
HETATM    8  C   UNL     1     -43.135 -53.606  12.830  1.00  0.00     0.110 A 
BRANCH   7   9
HETATM    9  C   UNL     1     -45.150 -54.494  13.993  1.00  0.00     0.418 C 
HETATM   10  F   UNL     1     -45.570 -55.756  13.716  1.00  0.00    -0.166 F 
HETATM   11  F   UNL     1     -45.845 -53.660  13.180  1.00  0.00    -0.166 F 
HETATM   12  F   UNL     1     -45.549 -54.226  15.265  1.00  0.00    -0.166 F 
ENDBRANCH   7   9
ENDBRANCH   1   2
BRANCH   1  13
HETATM   13  C   UNL     1     -41.112 -50.973  12.342  1.00  0.00     0.236 C 
HETATM   14  O   UNL     1     -42.033 -50.160  12.347  1.00  0.00    -0.272 OA
HETATM   15  N   UNL     1     -39.849 -50.683  12.828  1.00  0.00    -0.354 N 
HETATM   16  H   UNL     1     -39.094 -51.307  12.543  1.00  0.00     0.162 HD
BRANCH  15  17
HETATM   17  C   UNL     1     -39.501 -49.391  13.413  1.00  0.00     0.099 C 
HETATM   18  C   UNL     1     -38.037 -48.976  13.147  1.00  0.00     0.041 C 
HETATM   19  C   UNL     1     -37.538 -48.065  14.266  1.00  0.00     0.142 C 
HETATM   20  S   UNL     1     -38.873 -47.877  15.424  1.00  0.00     0.146 S 
HETATM   21  O   UNL     1     -38.378 -48.074  16.769  1.00  0.00    -0.228 OA
HETATM   22  O   UNL     1     -39.637 -46.704  15.048  1.00  0.00    -0.228 OA
HETATM   23  C   UNL     1     -39.773 -49.310  14.909  1.00  0.00     0.165 C 
ENDBRANCH  15  17
ENDBRANCH   1  13
TORSDOF 4
ENDMDL
MODEL 8
REMARK VINA RESULT:      -5.6      4.129      5.239
REMARK  4 active torsions:
REMARK  status: ('A' for Active; 'I' for Inactive)
REMARK    1  A    between atoms: C_2  and  C_5 
REMARK    2  A    between atoms: N_10  and  C_11 
REMARK    3  A    between atoms: C_11  and  C_12 
REMARK       I    between atoms: C_12  and  N_14 
REMARK    4  A    between atoms: N_14  and  C_15 
ROOT
HETATM    1  C   UNL     1     -39.345 -53.327  14.760  1.00  0.00     0.234 C 
ENDROOT
BRANCH   1   2
HETATM    2  N   UNL     1     -40.617 -53.157  14.063  1.00  0.00    -0.315 N 
HETATM    3  C   UNL     1     -40.603 -52.461  12.863  1.00  0.00     0.247 A 
HETATM    4  C   UNL     1     -41.867 -52.512  12.070  1.00  0.00     0.075 A 
HETATM    5  O   UNL     1     -39.629 -51.850  12.429  1.00  0.00    -0.268 OA
HETATM    6  C   UNL     1     -42.929 -53.185  12.536  1.00  0.00     0.023 A 
HETATM    7  C   UNL     1     -42.885 -53.861  13.816  1.00  0.00     0.063 A 
HETATM    8  C   UNL     1     -41.747 -53.809  14.535  1.00  0.00     0.110 A 
BRANCH   7   9
HETATM    9  C   UNL     1     -44.070 -54.670  14.276  1.00  0.00     0.418 C 
HETATM   10  F   UNL     1     -44.803 -54.039  15.231  1.00  0.00    -0.166 F 
HETATM   11  F   UNL     1     -43.701 -55.869  14.791  1.00  0.00    -0.166 F 
HETATM   12  F   UNL     1     -44.920 -54.929  13.247  1.00  0.00    -0.166 F 
ENDBRANCH   7   9
ENDBRANCH   1   2
BRANCH   1  13
HETATM   13  C   UNL     1     -38.975 -52.157  15.668  1.00  0.00     0.236 C 
HETATM   14  O   UNL     1     -39.327 -52.109  16.844  1.00  0.00    -0.272 OA
HETATM   15  N   UNL     1     -38.232 -51.159  15.064  1.00  0.00    -0.354 N 
HETATM   16  H   UNL     1     -38.218 -51.153  14.043  1.00  0.00     0.162 HD
BRANCH  15  17
HETATM   17  C   UNL     1     -37.778 -49.966  15.774  1.00  0.00     0.099 C 
HETATM   18  C   UNL     1     -37.991 -48.662  14.973  1.00  0.00     0.041 C 
HETATM   19  C   UNL     1     -36.954 -47.620  15.383  1.00  0.00     0.142 C 
HETATM   20  S   UNL     1     -35.917 -48.367  16.618  1.00  0.00     0.146 S 
HETATM   21  O   UNL     1     -34.528 -48.116  16.301  1.00  0.00    -0.228 OA
HETATM   22  O   UNL     1     -36.476 -48.066  17.921  1.00  0.00    -0.228 OA
HETATM   23  C   UNL     1     -36.323 -50.042  16.216  1.00  0.00     0.165 C 
ENDBRANCH  15  17
ENDBRANCH   1  13
TORSDOF 4
ENDMDL
MODEL 9
REMARK VINA RESULT:      -5.6      4.105      7.526
REMARK  4 active torsions:
REMARK  status: ('A' for Active; 'I' for Inactive)
REMARK    1  A    between atoms: C_2  and  C_5 
REMARK    2  A    between atoms: N_10  and  C_11 
REMARK    3  A    between atoms: C_11  and  C_12 
REMARK       I    between atoms: C_12  and  N_14 
REMARK    4  A    between atoms: N_14  and  C_15 
ROOT
HETATM    1  C   UNL     1     -40.386 -49.537  11.150  1.00  0.00     0.234 C 
ENDROOT
BRANCH   1   2
HETATM    2  N   UNL     1     -41.090 -48.266  11.005  1.00  0.00    -0.315 N 
HETATM    3  C   UNL     1     -40.461 -47.126  11.484  1.00  0.00     0.247 A 
HETATM    4  C   UNL     1     -41.098 -45.828  11.109  1.00  0.00     0.075 A 
HETATM    5  O   UNL     1     -39.431 -47.135  12.155  1.00  0.00    -0.268 OA
HETATM    6  C   UNL     1     -42.216 -45.815  10.369  1.00  0.00     0.023 A 
HETATM    7  C   UNL     1     -42.840 -47.047   9.932  1.00  0.00     0.063 A 
HETATM    8  C   UNL     1     -42.270 -48.217  10.276  1.00  0.00     0.110 A 
BRANCH   7   9
HETATM    9  C   UNL     1     -44.053 -46.995   9.040  1.00  0.00     0.418 C 
HETATM   10  F   UNL     1     -43.885 -47.679   7.878  1.00  0.00    -0.166 F 
HETATM   11  F   UNL     1     -44.387 -45.725   8.706  1.00  0.00    -0.166 F 
HETATM   12  F   UNL     1     -45.139 -47.539   9.653  1.00  0.00    -0.166 F 
ENDBRANCH   7   9
ENDBRANCH   1   2
BRANCH   1  13
HETATM   13  C   UNL     1     -40.733 -50.295  12.428  1.00  0.00     0.236 C 
HETATM   14  O   UNL     1     -41.594 -49.897  13.209  1.00  0.00    -0.272 OA
HETATM   15  N   UNL     1     -39.997 -51.447  12.644  1.00  0.00    -0.354 N 
HETATM   16  H   UNL     1     -39.141 -51.552  12.098  1.00  0.00     0.162 HD
BRANCH  15  17
HETATM   17  C   UNL     1     -40.191 -52.308  13.808  1.00  0.00     0.099 C 
HETATM   18  C   UNL     1     -39.347 -51.882  15.029  1.00  0.00     0.041 C 
HETATM   19  C   UNL     1     -39.044 -53.095  15.905  1.00  0.00     0.142 C 
HETATM   20  S   UNL     1     -39.794 -54.506  15.128  1.00  0.00     0.146 S 
HETATM   21  O   UNL     1     -38.845 -55.597  15.085  1.00  0.00    -0.228 OA
HETATM   22  O   UNL     1     -41.128 -54.667  15.670  1.00  0.00    -0.228 OA
HETATM   23  C   UNL     1     -39.936 -53.781  13.520  1.00  0.00     0.165 C 
ENDBRANCH  15  17
ENDBRANCH   1  13
TORSDOF 4
ENDMDL
