MODEL 1
REMARK VINA RESULT:      -6.5      0.000      0.000
REMARK  8 active torsions:
REMARK  status: ('A' for Active; 'I' for Inactive)
REMARK    1  A    between atoms: N_2  and  C_3 
REMARK    2  A    between atoms: N_4  and  C_12 
REMARK    3  A    between atoms: C_10  and  C_12 
REMARK    4  A    between atoms: C_10  and  O_24 
REMARK    5  A    between atoms: C_11  and  N_20 
REMARK    6  A    between atoms: N_20  and  C_28 
REMARK    7  A    between atoms: O_27  and  C_31 
REMARK    8  A    between atoms: C_28  and  C_31 
ROOT
HETATM    1  C   UNL     1     -41.806 -48.854  11.474  1.00  0.00     0.122 A 
HETATM    2  C   UNL     1     -41.588 -49.991  12.286  1.00  0.00     0.135 A 
HETATM    3  N   UNL     1     -41.286 -46.905  10.629  1.00  0.00    -0.324 N 
HETATM    4  C   UNL     1     -40.783 -47.918  11.401  1.00  0.00     0.140 A 
HETATM    5  N   UNL     1     -42.905 -48.416  10.749  1.00  0.00    -0.346 N 
ATOM      6  HN  UNL     1     -43.798 -48.894  10.631  1.00  0.00     0.167 HD
HETATM    7  C   UNL     1     -42.550 -47.256  10.247  1.00  0.00     0.185 A 
HETATM    8  N   UNL     1     -40.345 -50.108  12.849  1.00  0.00    -0.337 N 
ATOM      9  HN  UNL     1     -40.107 -50.931  13.404  1.00  0.00     0.168 HD
HETATM   10  N   UNL     1     -39.573 -47.977  11.977  1.00  0.00    -0.336 N 
ATOM     11  HN  UNL     1     -38.857 -47.254  11.904  1.00  0.00     0.168 HD
HETATM   12  C   UNL     1     -39.436 -49.128  12.665  1.00  0.00     0.183 A 
ENDROOT
BRANCH   2  13
HETATM   13  N   UNL     1     -42.547 -50.960  12.548  1.00  0.00    -0.359 N 
HETATM   14  C   UNL     1     -43.808 -50.628  13.245  1.00  0.00     0.115 C 
HETATM   15  C   UNL     1     -44.519 -52.045  13.424  1.00  0.00     0.246 C 
HETATM   16  C   UNL     1     -43.518 -49.883  14.561  1.00  0.00     0.034 C 
HETATM   17  C   UNL     1     -43.400 -53.054  13.040  1.00  0.00     0.057 C 
HETATM   18  C   UNL     1     -42.102 -52.265  12.993  1.00  0.00     0.127 C 
BRANCH  15  19
HETATM   19  N   UNL     1     -45.213 -52.347  14.706  1.00  0.00     0.092 N 
HETATM   20  C   UNL     1     -46.604 -51.880  14.729  1.00  0.00     0.310 C 
BRANCH  19  21
HETATM   21  C   UNL     1     -45.188 -53.776  15.108  1.00  0.00     0.298 C 
BRANCH  21  22
HETATM   22  C   UNL     1     -46.395 -54.648  14.712  1.00  0.00     0.194 C 
BRANCH  22  23
HETATM   23  O   UNL     1     -45.971 -55.687  13.834  1.00  0.00    -0.399 OA
HETATM   24  H   UNL     1     -46.024 -56.519  14.336  1.00  0.00     0.209 HD
ENDBRANCH  22  23
ENDBRANCH  21  22
ENDBRANCH  19  21
ENDBRANCH  15  19
ENDBRANCH   2  13
BRANCH   3  25
HETATM   25  C   UNL     1     -40.577 -45.715  10.205  1.00  0.00     0.172 C 
BRANCH  25  26
HETATM   26  C   UNL     1     -40.850 -44.449  11.035  1.00  0.00     0.102 C 
HETATM   27  C   UNL     1     -40.480 -44.527  12.533  1.00  0.00     0.153 C 
HETATM   28  O   UNL     1     -41.470 -43.750  13.256  1.00  0.00    -0.383 OA
HETATM   29  C   UNL     1     -39.115 -43.982  12.921  1.00  0.00     0.042 C 
HETATM   30  C   UNL     1     -42.444 -43.279  12.319  1.00  0.00     0.171 C 
HETATM   31  C   UNL     1     -42.354 -44.210  11.132  1.00  0.00     0.068 C 
BRANCH  26  32
HETATM   32  O   UNL     1     -40.303 -43.288  10.395  1.00  0.00    -0.385 OA
HETATM   33  H   UNL     1     -39.529 -43.545   9.860  1.00  0.00     0.210 HD
ENDBRANCH  26  32
ENDBRANCH  25  26
ENDBRANCH   3  25
TORSDOF 8
ENDMDL
MODEL 2
REMARK VINA RESULT:      -6.4      4.081      8.462
REMARK  8 active torsions:
REMARK  status: ('A' for Active; 'I' for Inactive)
REMARK    1  A    between atoms: N_2  and  C_3 
REMARK    2  A    between atoms: N_4  and  C_12 
REMARK    3  A    between atoms: C_10  and  C_12 
REMARK    4  A    between atoms: C_10  and  O_24 
REMARK    5  A    between atoms: C_11  and  N_20 
REMARK    6  A    between atoms: N_20  and  C_28 
REMARK    7  A    between atoms: O_27  and  C_31 
REMARK    8  A    between atoms: C_28  and  C_31 
ROOT
HETATM    1  C   UNL     1     -40.880 -52.100  13.667  1.00  0.00     0.122 A 
HETATM    2  C   UNL     1     -40.063 -50.945  13.671  1.00  0.00     0.135 A 
HETATM    3  N   UNL     1     -42.625 -53.279  13.079  1.00  0.00    -0.324 N 
HETATM    4  C   UNL     1     -41.983 -52.097  12.823  1.00  0.00     0.140 A 
HETATM    5  N   UNL     1     -40.852 -53.271  14.410  1.00  0.00    -0.346 N 
ATOM      6  HN  UNL     1     -40.163 -53.542  15.112  1.00  0.00     0.167 HD
HETATM    7  C   UNL     1     -41.902 -53.956  14.021  1.00  0.00     0.185 A 
HETATM    8  N   UNL     1     -40.386 -49.968  12.768  1.00  0.00    -0.337 N 
ATOM      9  HN  UNL     1     -39.806 -49.133  12.685  1.00  0.00     0.168 HD
HETATM   10  N   UNL     1     -42.355 -51.139  11.962  1.00  0.00    -0.336 N 
ATOM     11  HN  UNL     1     -43.187 -51.178  11.371  1.00  0.00     0.168 HD
HETATM   12  C   UNL     1     -41.476 -50.117  11.987  1.00  0.00     0.183 A 
ENDROOT
BRANCH   2  13
HETATM   13  N   UNL     1     -38.991 -50.749  14.530  1.00  0.00    -0.359 N 
HETATM   14  C   UNL     1     -39.195 -50.491  15.972  1.00  0.00     0.115 C 
HETATM   15  C   UNL     1     -37.719 -50.216  16.514  1.00  0.00     0.246 C 
HETATM   16  C   UNL     1     -40.183 -49.328  16.178  1.00  0.00     0.034 C 
HETATM   17  C   UNL     1     -36.883 -50.077  15.210  1.00  0.00     0.057 C 
HETATM   18  C   UNL     1     -37.878 -49.944  14.069  1.00  0.00     0.127 C 
BRANCH  15  19
HETATM   19  N   UNL     1     -37.507 -49.127  17.506  1.00  0.00     0.092 N 
HETATM   20  C   UNL     1     -36.746 -49.563  18.683  1.00  0.00     0.310 C 
BRANCH  19  21
HETATM   21  C   UNL     1     -36.873 -47.901  16.961  1.00  0.00     0.298 C 
BRANCH  21  22
HETATM   22  C   UNL     1     -35.454 -47.556  17.450  1.00  0.00     0.194 C 
BRANCH  22  23
HETATM   23  O   UNL     1     -34.505 -47.867  16.432  1.00  0.00    -0.399 OA
HETATM   24  H   UNL     1     -35.002 -47.952  15.601  1.00  0.00     0.209 HD
ENDBRANCH  22  23
ENDBRANCH  21  22
ENDBRANCH  19  21
ENDBRANCH  15  19
ENDBRANCH   2  13
BRANCH   3  25
HETATM   25  C   UNL     1     -43.806 -53.778  12.404  1.00  0.00     0.172 C 
BRANCH  25  26
HETATM   26  C   UNL     1     -45.125 -53.629  13.180  1.00  0.00     0.102 C 
HETATM   27  C   UNL     1     -45.085 -52.705  14.418  1.00  0.00     0.153 C 
HETATM   28  O   UNL     1     -45.971 -53.284  15.410  1.00  0.00    -0.383 OA
HETATM   29  C   UNL     1     -45.532 -51.268  14.204  1.00  0.00     0.042 C 
HETATM   30  C   UNL     1     -46.479 -54.519  14.893  1.00  0.00     0.171 C 
HETATM   31  C   UNL     1     -45.492 -54.956  13.836  1.00  0.00     0.068 C 
BRANCH  26  32
HETATM   32  O   UNL     1     -46.209 -53.310  12.295  1.00  0.00    -0.385 OA
HETATM   33  H   UNL     1     -45.851 -53.007  11.439  1.00  0.00     0.210 HD
ENDBRANCH  26  32
ENDBRANCH  25  26
ENDBRANCH   3  25
TORSDOF 8
ENDMDL
MODEL 3
REMARK VINA RESULT:      -6.3      1.706      8.379
REMARK  8 active torsions:
REMARK  status: ('A' for Active; 'I' for Inactive)
REMARK    1  A    between atoms: N_2  and  C_3 
REMARK    2  A    between atoms: N_4  and  C_12 
REMARK    3  A    between atoms: C_10  and  C_12 
REMARK    4  A    between atoms: C_10  and  O_24 
REMARK    5  A    between atoms: C_11  and  N_20 
REMARK    6  A    between atoms: N_20  and  C_28 
REMARK    7  A    between atoms: O_27  and  C_31 
REMARK    8  A    between atoms: C_28  and  C_31 
ROOT
HETATM    1  C   UNL     1     -42.186 -49.919  12.501  1.00  0.00     0.122 A 
HETATM    2  C   UNL     1     -41.289 -49.406  11.536  1.00  0.00     0.135 A 
HETATM    3  N   UNL     1     -43.111 -51.506  13.688  1.00  0.00    -0.324 N 
HETATM    4  C   UNL     1     -42.092 -51.270  12.805  1.00  0.00     0.140 A 
HETATM    5  N   UNL     1     -43.240 -49.347  13.199  1.00  0.00    -0.346 N 
ATOM      6  HN  UNL     1     -43.547 -48.375  13.168  1.00  0.00     0.167 HD
HETATM    7  C   UNL     1     -43.759 -50.323  13.908  1.00  0.00     0.185 A 
HETATM    8  N   UNL     1     -40.343 -50.276  11.061  1.00  0.00    -0.337 N 
ATOM      9  HN  UNL     1     -39.635 -49.954  10.401  1.00  0.00     0.168 HD
HETATM   10  N   UNL     1     -41.211 -52.160  12.324  1.00  0.00    -0.336 N 
ATOM     11  HN  UNL     1     -41.191 -53.151  12.568  1.00  0.00     0.168 HD
HETATM   12  C   UNL     1     -40.355 -51.561  11.471  1.00  0.00     0.183 A 
ENDROOT
BRANCH   2  13
HETATM   13  N   UNL     1     -41.325 -48.107  11.047  1.00  0.00    -0.359 N 
HETATM   14  C   UNL     1     -40.477 -47.042  11.624  1.00  0.00     0.115 C 
HETATM   15  C   UNL     1     -40.940 -45.731  10.841  1.00  0.00     0.246 C 
HETATM   16  C   UNL     1     -40.658 -46.976  13.152  1.00  0.00     0.034 C 
HETATM   17  C   UNL     1     -42.224 -46.198  10.098  1.00  0.00     0.057 C 
HETATM   18  C   UNL     1     -42.612 -47.538  10.701  1.00  0.00     0.127 C 
BRANCH  15  19
HETATM   19  N   UNL     1     -41.087 -44.456  11.593  1.00  0.00     0.092 N 
HETATM   20  C   UNL     1     -40.340 -43.345  10.992  1.00  0.00     0.310 C 
BRANCH  19  21
HETATM   21  C   UNL     1     -42.489 -44.018  11.811  1.00  0.00     0.298 C 
BRANCH  21  22
HETATM   22  C   UNL     1     -42.990 -42.807  11.002  1.00  0.00     0.194 C 
BRANCH  22  23
HETATM   23  O   UNL     1     -43.961 -43.233  10.048  1.00  0.00    -0.399 OA
HETATM   24  H   UNL     1     -44.824 -43.210  10.497  1.00  0.00     0.209 HD
ENDBRANCH  22  23
ENDBRANCH  21  22
ENDBRANCH  19  21
ENDBRANCH  15  19
ENDBRANCH   2  13
BRANCH   3  25
HETATM   25  C   UNL     1     -43.399 -52.760  14.353  1.00  0.00     0.172 C 
BRANCH  25  26
HETATM   26  C   UNL     1     -44.658 -53.496  13.864  1.00  0.00     0.102 C 
HETATM   27  C   UNL     1     -45.948 -53.252  14.681  1.00  0.00     0.153 C 
HETATM   28  O   UNL     1     -46.692 -54.497  14.682  1.00  0.00    -0.383 OA
HETATM   29  C   UNL     1     -46.883 -52.173  14.160  1.00  0.00     0.042 C 
HETATM   30  C   UNL     1     -45.915 -55.486  13.998  1.00  0.00     0.171 C 
HETATM   31  C   UNL     1     -44.486 -54.999  14.059  1.00  0.00     0.068 C 
BRANCH  26  32
HETATM   32  O   UNL     1     -44.857 -53.297  12.457  1.00  0.00    -0.385 OA
HETATM   33  H   UNL     1     -44.036 -52.952  12.058  1.00  0.00     0.210 HD
ENDBRANCH  26  32
ENDBRANCH  25  26
ENDBRANCH   3  25
TORSDOF 8
ENDMDL
MODEL 4
REMARK VINA RESULT:      -6.3      1.746      2.131
REMARK  8 active torsions:
REMARK  status: ('A' for Active; 'I' for Inactive)
REMARK    1  A    between atoms: N_2  and  C_3 
REMARK    2  A    between atoms: N_4  and  C_12 
REMARK    3  A    between atoms: C_10  and  C_12 
REMARK    4  A    between atoms: C_10  and  O_24 
REMARK    5  A    between atoms: C_11  and  N_20 
REMARK    6  A    between atoms: N_20  and  C_28 
REMARK    7  A    between atoms: O_27  and  C_31 
REMARK    8  A    between atoms: C_28  and  C_31 
ROOT
HETATM    1  C   UNL     1     -40.768 -49.397  11.780  1.00  0.00     0.122 A 
HETATM    2  C   UNL     1     -40.409 -50.468  12.630  1.00  0.00     0.135 A 
HETATM    3  N   UNL     1     -40.695 -47.328  11.074  1.00  0.00    -0.324 N 
HETATM    4  C   UNL     1     -40.102 -48.191  11.956  1.00  0.00     0.140 A 
HETATM    5  N   UNL     1     -41.740 -49.264  10.798  1.00  0.00    -0.346 N 
ATOM      6  HN  UNL     1     -42.384 -49.981  10.465  1.00  0.00     0.167 HD
HETATM    7  C   UNL     1     -41.656 -48.019  10.391  1.00  0.00     0.185 A 
HETATM    8  N   UNL     1     -39.364 -50.240  13.487  1.00  0.00    -0.337 N 
ATOM      9  HN  UNL     1     -39.023 -50.988  14.091  1.00  0.00     0.168 HD
HETATM   10  N   UNL     1     -39.109 -47.920  12.817  1.00  0.00    -0.336 N 
ATOM     11  HN  UNL     1     -38.659 -47.010  12.918  1.00  0.00     0.168 HD
HETATM   12  C   UNL     1     -38.790 -49.020  13.528  1.00  0.00     0.183 A 
ENDROOT
BRANCH   2  13
HETATM   13  N   UNL     1     -41.051 -51.698  12.653  1.00  0.00    -0.359 N 
HETATM   14  C   UNL     1     -42.489 -51.811  12.978  1.00  0.00     0.115 C 
HETATM   15  C   UNL     1     -42.744 -53.386  12.999  1.00  0.00     0.246 C 
HETATM   16  C   UNL     1     -42.802 -51.091  14.303  1.00  0.00     0.034 C 
HETATM   17  C   UNL     1     -41.306 -53.978  12.956  1.00  0.00     0.057 C 
HETATM   18  C   UNL     1     -40.354 -52.827  13.236  1.00  0.00     0.127 C 
BRANCH  15  19
HETATM   19  N   UNL     1     -43.620 -53.961  14.056  1.00  0.00     0.092 N 
HETATM   20  C   UNL     1     -44.861 -54.534  13.524  1.00  0.00     0.310 C 
BRANCH  19  21
HETATM   21  C   UNL     1     -42.967 -54.972  14.926  1.00  0.00     0.298 C 
BRANCH  21  22
HETATM   22  C   UNL     1     -42.786 -54.618  16.414  1.00  0.00     0.194 C 
BRANCH  22  23
HETATM   23  O   UNL     1     -43.953 -54.991  17.143  1.00  0.00    -0.399 OA
HETATM   24  H   UNL     1     -44.701 -54.938  16.523  1.00  0.00     0.209 HD
ENDBRANCH  22  23
ENDBRANCH  21  22
ENDBRANCH  19  21
ENDBRANCH  15  19
ENDBRANCH   2  13
BRANCH   3  25
HETATM   25  C   UNL     1     -40.312 -45.953  10.829  1.00  0.00     0.172 C 
BRANCH  25  26
HETATM   26  C   UNL     1     -40.801 -44.933  11.872  1.00  0.00     0.102 C 
HETATM   27  C   UNL     1     -42.316 -44.949  12.179  1.00  0.00     0.153 C 
HETATM   28  O   UNL     1     -42.714 -43.576  12.426  1.00  0.00    -0.383 OA
HETATM   29  C   UNL     1     -42.753 -45.765  13.384  1.00  0.00     0.042 C 
HETATM   30  C   UNL     1     -41.575 -42.733  12.217  1.00  0.00     0.171 C 
HETATM   31  C   UNL     1     -40.643 -43.518  11.324  1.00  0.00     0.068 C 
BRANCH  26  32
HETATM   32  O   UNL     1     -40.002 -44.990  13.062  1.00  0.00    -0.385 OA
HETATM   33  H   UNL     1     -40.236 -45.788  13.573  1.00  0.00     0.210 HD
ENDBRANCH  26  32
ENDBRANCH  25  26
ENDBRANCH   3  25
TORSDOF 8
ENDMDL
MODEL 5
REMARK VINA RESULT:      -6.0      3.063      4.010
REMARK  8 active torsions:
REMARK  status: ('A' for Active; 'I' for Inactive)
REMARK    1  A    between atoms: N_2  and  C_3 
REMARK    2  A    between atoms: N_4  and  C_12 
REMARK    3  A    between atoms: C_10  and  C_12 
REMARK    4  A    between atoms: C_10  and  O_24 
REMARK    5  A    between atoms: C_11  and  N_20 
REMARK    6  A    between atoms: N_20  and  C_28 
REMARK    7  A    between atoms: O_27  and  C_31 
REMARK    8  A    between atoms: C_28  and  C_31 
ROOT
HETATM    1  C   UNL     1     -40.127 -50.717  12.796  1.00  0.00     0.122 A 
HETATM    2  C   UNL     1     -38.949 -51.324  13.290  1.00  0.00     0.135 A 
HETATM    3  N   UNL     1     -41.248 -49.310  11.553  1.00  0.00    -0.324 N 
HETATM    4  C   UNL     1     -39.984 -49.787  11.775  1.00  0.00     0.140 A 
HETATM    5  N   UNL     1     -41.459 -50.807  13.175  1.00  0.00    -0.346 N 
ATOM      6  HN  UNL     1     -41.856 -51.402  13.902  1.00  0.00     0.167 HD
HETATM    7  C   UNL     1     -42.099 -49.963  12.400  1.00  0.00     0.185 A 
HETATM    8  N   UNL     1     -37.783 -51.005  12.646  1.00  0.00    -0.337 N 
ATOM      9  HN  UNL     1     -36.907 -51.448  12.921  1.00  0.00     0.168 HD
HETATM   10  N   UNL     1     -38.854 -49.416  11.154  1.00  0.00    -0.336 N 
ATOM     11  HN  UNL     1     -38.800 -48.714  10.416  1.00  0.00     0.168 HD
HETATM   12  C   UNL     1     -37.802 -50.101  11.644  1.00  0.00     0.183 A 
ENDROOT
BRANCH   2  13
HETATM   13  N   UNL     1     -38.912 -52.189  14.375  1.00  0.00    -0.359 N 
HETATM   14  C   UNL     1     -39.024 -53.653  14.197  1.00  0.00     0.115 C 
HETATM   15  C   UNL     1     -39.052 -54.209  15.693  1.00  0.00     0.246 C 
HETATM   16  C   UNL     1     -40.267 -54.002  13.358  1.00  0.00     0.034 C 
HETATM   17  C   UNL     1     -39.238 -52.922  16.546  1.00  0.00     0.057 C 
HETATM   18  C   UNL     1     -39.623 -51.813  15.580  1.00  0.00     0.127 C 
BRANCH  15  19
HETATM   19  N   UNL     1     -39.984 -55.318  16.033  1.00  0.00     0.092 N 
HETATM   20  C   UNL     1     -39.341 -56.397  16.793  1.00  0.00     0.310 C 
BRANCH  19  21
HETATM   21  C   UNL     1     -41.214 -54.902  16.751  1.00  0.00     0.298 C 
BRANCH  21  22
HETATM   22  C   UNL     1     -42.568 -55.293  16.129  1.00  0.00     0.194 C 
BRANCH  22  23
HETATM   23  O   UNL     1     -43.573 -55.318  17.139  1.00  0.00    -0.399 OA
HETATM   24  H   UNL     1     -43.792 -54.391  17.340  1.00  0.00     0.209 HD
ENDBRANCH  22  23
ENDBRANCH  21  22
ENDBRANCH  19  21
ENDBRANCH  15  19
ENDBRANCH   2  13
BRANCH   3  25
HETATM   25  C   UNL     1     -41.640 -48.357  10.535  1.00  0.00     0.172 C 
BRANCH  25  26
HETATM   26  C   UNL     1     -41.338 -46.883  10.855  1.00  0.00     0.102 C 
HETATM   27  C   UNL     1     -41.594 -46.438  12.313  1.00  0.00     0.153 C 
HETATM   28  O   UNL     1     -42.077 -45.071  12.261  1.00  0.00    -0.383 OA
HETATM   29  C   UNL     1     -40.394 -46.454  13.245  1.00  0.00     0.042 C 
HETATM   30  C   UNL     1     -42.201 -44.689  10.887  1.00  0.00     0.171 C 
HETATM   31  C   UNL     1     -42.319 -45.982  10.113  1.00  0.00     0.068 C 
BRANCH  26  32
HETATM   32  O   UNL     1     -40.031 -46.514  10.393  1.00  0.00    -0.385 OA
HETATM   33  H   UNL     1     -39.485 -47.316  10.287  1.00  0.00     0.210 HD
ENDBRANCH  26  32
ENDBRANCH  25  26
ENDBRANCH   3  25
TORSDOF 8
ENDMDL
MODEL 6
REMARK VINA RESULT:      -6.0      1.994      8.228
REMARK  8 active torsions:
REMARK  status: ('A' for Active; 'I' for Inactive)
REMARK    1  A    between atoms: N_2  and  C_3 
REMARK    2  A    between atoms: N_4  and  C_12 
REMARK    3  A    between atoms: C_10  and  C_12 
REMARK    4  A    between atoms: C_10  and  O_24 
REMARK    5  A    between atoms: C_11  and  N_20 
REMARK    6  A    between atoms: N_20  and  C_28 
REMARK    7  A    between atoms: O_27  and  C_31 
REMARK    8  A    between atoms: C_28  and  C_31 
ROOT
HETATM    1  C   UNL     1     -40.820 -49.312  13.479  1.00  0.00     0.122 A 
HETATM    2  C   UNL     1     -40.464 -48.213  12.664  1.00  0.00     0.135 A 
HETATM    3  N   UNL     1     -41.463 -51.370  13.846  1.00  0.00    -0.324 N 
HETATM    4  C   UNL     1     -41.068 -50.522  12.846  1.00  0.00     0.140 A 
HETATM    5  N   UNL     1     -41.052 -49.432  14.842  1.00  0.00    -0.346 N 
ATOM      6  HN  UNL     1     -40.957 -48.706  15.552  1.00  0.00     0.167 HD
HETATM    7  C   UNL     1     -41.420 -50.679  15.024  1.00  0.00     0.185 A 
HETATM    8  N   UNL     1     -40.302 -48.473  11.328  1.00  0.00    -0.337 N 
ATOM      9  HN  UNL     1     -39.996 -47.735  10.695  1.00  0.00     0.168 HD
HETATM   10  N   UNL     1     -40.966 -50.800  11.537  1.00  0.00    -0.336 N 
ATOM     11  HN  UNL     1     -41.174 -51.706  11.116  1.00  0.00     0.168 HD
HETATM   12  C   UNL     1     -40.551 -49.713  10.857  1.00  0.00     0.183 A 
ENDROOT
BRANCH   2  13
HETATM   13  N   UNL     1     -40.289 -46.917  13.130  1.00  0.00    -0.359 N 
HETATM   14  C   UNL     1     -41.417 -46.141  13.690  1.00  0.00     0.115 C 
HETATM   15  C   UNL     1     -40.777 -44.706  13.971  1.00  0.00     0.246 C 
HETATM   16  C   UNL     1     -42.607 -46.135  12.713  1.00  0.00     0.034 C 
HETATM   17  C   UNL     1     -39.402 -44.783  13.250  1.00  0.00     0.057 C 
HETATM   18  C   UNL     1     -39.443 -46.021  12.368  1.00  0.00     0.127 C 
BRANCH  15  19
HETATM   19  N   UNL     1     -41.573 -43.488  13.659  1.00  0.00     0.092 N 
HETATM   20  C   UNL     1     -41.958 -42.731  14.856  1.00  0.00     0.310 C 
BRANCH  19  21
HETATM   21  C   UNL     1     -40.937 -42.556  12.695  1.00  0.00     0.298 C 
BRANCH  21  22
HETATM   22  C   UNL     1     -41.478 -42.547  11.253  1.00  0.00     0.194 C 
BRANCH  22  23
HETATM   23  O   UNL     1     -40.485 -43.050  10.362  1.00  0.00    -0.399 OA
HETATM   24  H   UNL     1     -39.703 -42.480  10.462  1.00  0.00     0.209 HD
ENDBRANCH  22  23
ENDBRANCH  21  22
ENDBRANCH  19  21
ENDBRANCH  15  19
ENDBRANCH   2  13
BRANCH   3  25
HETATM   25  C   UNL     1     -41.776 -52.777  13.706  1.00  0.00     0.172 C 
BRANCH  25  26
HETATM   26  C   UNL     1     -43.210 -53.095  13.247  1.00  0.00     0.102 C 
HETATM   27  C   UNL     1     -44.342 -52.355  13.995  1.00  0.00     0.153 C 
HETATM   28  O   UNL     1     -45.461 -53.275  14.088  1.00  0.00    -0.383 OA
HETATM   29  C   UNL     1     -44.862 -51.083  13.347  1.00  0.00     0.042 C 
HETATM   30  C   UNL     1     -45.061 -54.528  13.523  1.00  0.00     0.171 C 
HETATM   31  C   UNL     1     -43.551 -54.542  13.586  1.00  0.00     0.068 C 
BRANCH  26  32
HETATM   32  O   UNL     1     -43.330 -52.980  11.822  1.00  0.00    -0.385 OA
HETATM   33  H   UNL     1     -42.676 -53.562  11.392  1.00  0.00     0.210 HD
ENDBRANCH  26  32
ENDBRANCH  25  26
ENDBRANCH   3  25
TORSDOF 8
ENDMDL
MODEL 7
REMARK VINA RESULT:      -6.0      2.506      8.160
REMARK  8 active torsions:
REMARK  status: ('A' for Active; 'I' for Inactive)
REMARK    1  A    between atoms: N_2  and  C_3 
REMARK    2  A    between atoms: N_4  and  C_12 
REMARK    3  A    between atoms: C_10  and  C_12 
REMARK    4  A    between atoms: C_10  and  O_24 
REMARK    5  A    between atoms: C_11  and  N_20 
REMARK    6  A    between atoms: N_20  and  C_28 
REMARK    7  A    between atoms: O_27  and  C_31 
REMARK    8  A    between atoms: C_28  and  C_31 
ROOT
HETATM    1  C   UNL     1     -40.226 -47.772  12.035  1.00  0.00     0.122 A 
HETATM    2  C   UNL     1     -40.835 -46.663  11.403  1.00  0.00     0.135 A 
HETATM    3  N   UNL     1     -39.938 -49.904  12.431  1.00  0.00    -0.324 N 
HETATM    4  C   UNL     1     -40.608 -49.038  11.609  1.00  0.00     0.140 A 
HETATM    5  N   UNL     1     -39.332 -47.875  13.091  1.00  0.00    -0.346 N 
ATOM      6  HN  UNL     1     -38.891 -47.112  13.605  1.00  0.00     0.167 HD
HETATM    7  C   UNL     1     -39.173 -49.163  13.289  1.00  0.00     0.185 A 
HETATM    8  N   UNL     1     -41.675 -46.944  10.358  1.00  0.00    -0.337 N 
ATOM      9  HN  UNL     1     -42.105 -46.187   9.827  1.00  0.00     0.168 HD
HETATM   10  N   UNL     1     -41.463 -49.349  10.623  1.00  0.00    -0.336 N 
ATOM     11  HN  UNL     1     -41.722 -50.299  10.356  1.00  0.00     0.168 HD
HETATM   12  C   UNL     1     -41.930 -48.229  10.036  1.00  0.00     0.183 A 
ENDROOT
BRANCH   2  13
HETATM   13  N   UNL     1     -40.642 -45.343  11.785  1.00  0.00    -0.359 N 
HETATM   14  C   UNL     1     -41.265 -44.796  13.009  1.00  0.00     0.115 C 
HETATM   15  C   UNL     1     -40.870 -43.250  12.969  1.00  0.00     0.246 C 
HETATM   16  C   UNL     1     -42.779 -45.073  13.016  1.00  0.00     0.034 C 
HETATM   17  C   UNL     1     -40.294 -43.068  11.537  1.00  0.00     0.057 C 
HETATM   18  C   UNL     1     -40.664 -44.320  10.758  1.00  0.00     0.127 C 
BRANCH  15  19
HETATM   19  N   UNL     1     -41.886 -42.236  13.362  1.00  0.00     0.092 N 
HETATM   20  C   UNL     1     -41.448 -41.384  14.474  1.00  0.00     0.310 C 
BRANCH  19  21
HETATM   21  C   UNL     1     -42.358 -41.364  12.257  1.00  0.00     0.298 C 
BRANCH  21  22
HETATM   22  C   UNL     1     -43.779 -41.610  11.716  1.00  0.00     0.194 C 
BRANCH  22  23
HETATM   23  O   UNL     1     -43.742 -42.614  10.705  1.00  0.00    -0.399 OA
HETATM   24  H   UNL     1     -44.076 -42.204   9.888  1.00  0.00     0.209 HD
ENDBRANCH  22  23
ENDBRANCH  21  22
ENDBRANCH  19  21
ENDBRANCH  15  19
ENDBRANCH   2  13
BRANCH   3  25
HETATM   25  C   UNL     1     -39.952 -51.349  12.350  1.00  0.00     0.172 C 
BRANCH  25  26
HETATM   26  C   UNL     1     -41.255 -52.026  12.808  1.00  0.00     0.102 C 
HETATM   27  C   UNL     1     -41.806 -51.580  14.181  1.00  0.00     0.153 C 
HETATM   28  O   UNL     1     -42.404 -52.749  14.800  1.00  0.00    -0.383 OA
HETATM   29  C   UNL     1     -42.868 -50.493  14.162  1.00  0.00     0.042 C 
HETATM   30  C   UNL     1     -42.187 -53.873  13.940  1.00  0.00     0.171 C 
HETATM   31  C   UNL     1     -41.001 -53.506  13.078  1.00  0.00     0.068 C 
BRANCH  26  32
HETATM   32  O   UNL     1     -42.251 -51.976  11.777  1.00  0.00    -0.385 OA
HETATM   33  H   UNL     1     -42.204 -52.788  11.238  1.00  0.00     0.210 HD
ENDBRANCH  26  32
ENDBRANCH  25  26
ENDBRANCH   3  25
TORSDOF 8
ENDMDL
MODEL 8
REMARK VINA RESULT:      -6.0      2.491      3.605
REMARK  8 active torsions:
REMARK  status: ('A' for Active; 'I' for Inactive)
REMARK    1  A    between atoms: N_2  and  C_3 
REMARK    2  A    between atoms: N_4  and  C_12 
REMARK    3  A    between atoms: C_10  and  C_12 
REMARK    4  A    between atoms: C_10  and  O_24 
REMARK    5  A    between atoms: C_11  and  N_20 
REMARK    6  A    between atoms: N_20  and  C_28 
REMARK    7  A    between atoms: O_27  and  C_31 
REMARK    8  A    between atoms: C_28  and  C_31 
ROOT
HETATM    1  C   UNL     1     -41.953 -47.518  12.430  1.00  0.00     0.122 A 
HETATM    2  C   UNL     1     -42.021 -48.647  11.581  1.00  0.00     0.135 A 
HETATM    3  N   UNL     1     -42.180 -45.397  12.915  1.00  0.00    -0.324 N 
HETATM    4  C   UNL     1     -42.443 -46.317  11.935  1.00  0.00     0.140 A 
HETATM    5  N   UNL     1     -41.413 -47.327  13.694  1.00  0.00    -0.346 N 
ATOM      6  HN  UNL     1     -40.978 -48.028  14.293  1.00  0.00     0.167 HD
HETATM    7  C   UNL     1     -41.581 -46.051  13.955  1.00  0.00     0.185 A 
HETATM    8  N   UNL     1     -42.655 -48.467  10.380  1.00  0.00    -0.337 N 
ATOM      9  HN  UNL     1     -42.783 -49.255   9.744  1.00  0.00     0.168 HD
HETATM   10  N   UNL     1     -43.025 -46.095  10.747  1.00  0.00    -0.336 N 
ATOM     11  HN  UNL     1     -43.358 -45.187  10.422  1.00  0.00     0.168 HD
HETATM   12  C   UNL     1     -43.110 -47.242  10.043  1.00  0.00     0.183 A 
ENDROOT
BRANCH   2  13
HETATM   13  N   UNL     1     -41.480 -49.888  11.885  1.00  0.00    -0.359 N 
HETATM   14  C   UNL     1     -42.313 -50.977  12.440  1.00  0.00     0.115 C 
HETATM   15  C   UNL     1     -41.259 -52.139  12.735  1.00  0.00     0.246 C 
HETATM   16  C   UNL     1     -43.091 -50.486  13.674  1.00  0.00     0.034 C 
HETATM   17  C   UNL     1     -39.888 -51.426  12.561  1.00  0.00     0.057 C 
HETATM   18  C   UNL     1     -40.176 -49.934  12.516  1.00  0.00     0.127 C 
BRANCH  15  19
HETATM   19  N   UNL     1     -41.391 -52.931  13.987  1.00  0.00     0.092 N 
HETATM   20  C   UNL     1     -42.104 -54.199  13.793  1.00  0.00     0.310 C 
BRANCH  19  21
HETATM   21  C   UNL     1     -40.112 -53.212  14.686  1.00  0.00     0.298 C 
BRANCH  21  22
HETATM   22  C   UNL     1     -39.504 -54.617  14.520  1.00  0.00     0.194 C 
BRANCH  22  23
HETATM   23  O   UNL     1     -38.622 -54.632  13.400  1.00  0.00    -0.399 OA
HETATM   24  H   UNL     1     -37.774 -54.266  13.706  1.00  0.00     0.209 HD
ENDBRANCH  22  23
ENDBRANCH  21  22
ENDBRANCH  19  21
ENDBRANCH  15  19
ENDBRANCH   2  13
BRANCH   3  25
HETATM   25  C   UNL     1     -42.557 -43.999  12.904  1.00  0.00     0.172 C 
BRANCH  25  26
HETATM   26  C   UNL     1     -41.538 -43.044  12.259  1.00  0.00     0.102 C 
HETATM   27  C   UNL     1     -40.223 -42.825  13.040  1.00  0.00     0.153 C 
HETATM   28  O   UNL     1     -39.831 -41.443  12.834  1.00  0.00    -0.383 OA
HETATM   29  C   UNL     1     -39.042 -43.690  12.633  1.00  0.00     0.042 C 
HETATM   30  C   UNL     1     -40.845 -40.799  12.055  1.00  0.00     0.171 C 
HETATM   31  C   UNL     1     -42.096 -41.624  12.250  1.00  0.00     0.068 C 
BRANCH  26  32
HETATM   32  O   UNL     1     -41.307 -43.389  10.886  1.00  0.00    -0.385 OA
HETATM   33  H   UNL     1     -40.738 -42.713  10.471  1.00  0.00     0.210 HD
ENDBRANCH  26  32
ENDBRANCH  25  26
ENDBRANCH   3  25
TORSDOF 8
ENDMDL
MODEL 9
REMARK VINA RESULT:      -6.0      4.235      6.421
REMARK  8 active torsions:
REMARK  status: ('A' for Active; 'I' for Inactive)
REMARK    1  A    between atoms: N_2  and  C_3 
REMARK    2  A    between atoms: N_4  and  C_12 
REMARK    3  A    between atoms: C_10  and  C_12 
REMARK    4  A    between atoms: C_10  and  O_24 
REMARK    5  A    between atoms: C_11  and  N_20 
REMARK    6  A    between atoms: N_20  and  C_28 
REMARK    7  A    between atoms: O_27  and  C_31 
REMARK    8  A    between atoms: C_28  and  C_31 
ROOT
HETATM    1  C   UNL     1     -41.186 -49.762  13.852  1.00  0.00     0.122 A 
HETATM    2  C   UNL     1     -40.264 -50.790  14.159  1.00  0.00     0.135 A 
HETATM    3  N   UNL     1     -42.615 -48.711  12.573  1.00  0.00    -0.324 N 
HETATM    4  C   UNL     1     -41.868 -49.857  12.647  1.00  0.00     0.140 A 
HETATM    5  N   UNL     1     -41.525 -48.582  14.499  1.00  0.00    -0.346 N 
ATOM      6  HN  UNL     1     -41.174 -48.247  15.397  1.00  0.00     0.167 HD
HETATM    7  C   UNL     1     -42.391 -47.990  13.712  1.00  0.00     0.185 A 
HETATM    8  N   UNL     1     -40.204 -51.837  13.277  1.00  0.00    -0.337 N 
ATOM      9  HN  UNL     1     -39.597 -52.634  13.467  1.00  0.00     0.168 HD
HETATM   10  N   UNL     1     -41.798 -50.842  11.739  1.00  0.00    -0.336 N 
ATOM     11  HN  UNL     1     -42.312 -50.859  10.857  1.00  0.00     0.168 HD
HETATM   12  C   UNL     1     -40.953 -51.806  12.155  1.00  0.00     0.183 A 
ENDROOT
BRANCH   2  13
HETATM   13  N   UNL     1     -39.429 -50.786  15.268  1.00  0.00    -0.359 N 
HETATM   14  C   UNL     1     -38.349 -49.788  15.416  1.00  0.00     0.115 C 
HETATM   15  C   UNL     1     -37.600 -50.245  16.750  1.00  0.00     0.246 C 
HETATM   16  C   UNL     1     -37.462 -49.760  14.158  1.00  0.00     0.034 C 
HETATM   17  C   UNL     1     -38.206 -51.648  17.033  1.00  0.00     0.057 C 
HETATM   18  C   UNL     1     -38.958 -52.058  15.777  1.00  0.00     0.127 C 
BRANCH  15  19
HETATM   19  N   UNL     1     -36.114 -50.189  16.798  1.00  0.00     0.092 N 
HETATM   20  C   UNL     1     -35.597 -48.836  17.035  1.00  0.00     0.310 C 
BRANCH  19  21
HETATM   21  C   UNL     1     -35.486 -51.113  17.775  1.00  0.00     0.298 C 
BRANCH  21  22
HETATM   22  C   UNL     1     -34.936 -50.503  19.078  1.00  0.00     0.194 C 
BRANCH  22  23
HETATM   23  O   UNL     1     -33.600 -50.951  19.294  1.00  0.00    -0.399 OA
HETATM   24  H   UNL     1     -33.612 -51.490  20.103  1.00  0.00     0.209 HD
ENDBRANCH  22  23
ENDBRANCH  21  22
ENDBRANCH  19  21
ENDBRANCH  15  19
ENDBRANCH   2  13
BRANCH   3  25
HETATM   25  C   UNL     1     -43.554 -48.364  11.527  1.00  0.00     0.172 C 
BRANCH  25  26
HETATM   26  C   UNL     1     -42.948 -47.674  10.294  1.00  0.00     0.102 C 
HETATM   27  C   UNL     1     -42.393 -46.249  10.517  1.00  0.00     0.153 C 
HETATM   28  O   UNL     1     -42.658 -45.494   9.307  1.00  0.00    -0.383 OA
HETATM   29  C   UNL     1     -40.903 -46.139  10.794  1.00  0.00     0.042 C 
HETATM   30  C   UNL     1     -43.394 -46.331   8.407  1.00  0.00     0.171 C 
HETATM   31  C   UNL     1     -44.042 -47.388   9.271  1.00  0.00     0.068 C 
BRANCH  26  32
HETATM   32  O   UNL     1     -42.003 -48.531   9.637  1.00  0.00    -0.385 OA
HETATM   33  H   UNL     1     -42.396 -48.878   8.814  1.00  0.00     0.210 HD
ENDBRANCH  26  32
ENDBRANCH  25  26
ENDBRANCH   3  25
TORSDOF 8
ENDMDL
