MODEL 1
REMARK VINA RESULT:      -5.9      0.000      0.000
REMARK  2 active torsions:
REMARK  status: ('A' for Active; 'I' for Inactive)
REMARK    1  A    between atoms: C_5  and  N_11 
REMARK       I    between atoms: N_11  and  C_12 
REMARK       I    between atoms: C_12  and  N_14 
REMARK    2  A    between atoms: N_14  and  C_15 
ROOT
HETATM    1  N   UNL     1     -42.261 -51.218  11.967  1.00  0.00    -0.338 N 
HETATM    2  C   UNL     1     -43.094 -51.602  13.007  1.00  0.00     0.322 C 
HETATM    3  O   UNL     1     -43.001 -51.106  14.121  1.00  0.00    -0.247 OA
HETATM    4  N   UNL     1     -44.029 -52.511  12.584  1.00  0.00    -0.289 N 
HETATM    5  H   UNL     1     -42.016 -51.942  11.308  1.00  0.00     0.164 HD
HETATM    6  H   UNL     1     -44.187 -52.622  11.597  1.00  0.00     0.172 HD
ENDROOT
BRANCH   1   7
HETATM    7  C   UNL     1     -41.284 -50.155  12.195  1.00  0.00     0.091 C 
HETATM    8  C   UNL     1     -41.684 -48.880  11.457  1.00  0.00     0.066 C 
HETATM    9  C   UNL     1     -40.671 -47.740  11.687  1.00  0.00     0.153 C 
HETATM   10  C   UNL     1     -40.809 -47.125  13.092  1.00  0.00     0.048 C 
HETATM   11  C   UNL     1     -40.983 -46.606  10.684  1.00  0.00     0.048 C 
HETATM   12  N   UNL     1     -39.290 -48.180  11.416  1.00  0.00     0.101 N 
HETATM   13  C   UNL     1     -38.844 -49.459  12.009  1.00  0.00     0.153 C 
HETATM   14  H   UNL     1     -39.161 -48.236  10.404  1.00  0.00     0.317 HD
HETATM   15  C   UNL     1     -39.876 -50.579  11.766  1.00  0.00     0.066 C 
HETATM   16  C   UNL     1     -38.505 -49.322  13.506  1.00  0.00     0.048 C 
HETATM   17  C   UNL     1     -37.526 -49.837  11.296  1.00  0.00     0.048 C 
ENDBRANCH   1   7
BRANCH   4  18
HETATM   18  C   UNL     1     -45.017 -52.944  13.423  1.00  0.00     0.152 A 
HETATM   19  N   UNL     1     -45.971 -52.262  14.004  1.00  0.00    -0.346 N 
HETATM   20  C   UNL     1     -46.794 -53.122  14.699  1.00  0.00     0.097 A 
ATOM     21  HN  UNL     1     -46.088 -51.250  13.951  1.00  0.00     0.167 HD
HETATM   22  C   UNL     1     -46.435 -54.452  14.653  1.00  0.00     0.070 A 
HETATM   23  S   UNL     1     -44.996 -54.625  13.730  1.00  0.00    -0.064 SA
ENDBRANCH   4  18
TORSDOF 2
ENDMDL
MODEL 2
REMARK VINA RESULT:      -5.9      3.204      6.750
REMARK  2 active torsions:
REMARK  status: ('A' for Active; 'I' for Inactive)
REMARK    1  A    between atoms: C_5  and  N_11 
REMARK       I    between atoms: N_11  and  C_12 
REMARK       I    between atoms: C_12  and  N_14 
REMARK    2  A    between atoms: N_14  and  C_15 
ROOT
HETATM    1  N   UNL     1     -41.949 -51.059  11.809  1.00  0.00    -0.338 N 
HETATM    2  C   UNL     1     -41.824 -49.686  11.953  1.00  0.00     0.322 C 
HETATM    3  O   UNL     1     -41.683 -49.166  13.051  1.00  0.00    -0.247 OA
HETATM    4  N   UNL     1     -41.807 -49.058  10.735  1.00  0.00    -0.289 N 
HETATM    5  H   UNL     1     -42.548 -51.371  11.059  1.00  0.00     0.164 HD
HETATM    6  H   UNL     1     -41.642 -49.606   9.908  1.00  0.00     0.172 HD
ENDROOT
BRANCH   1   7
HETATM    7  C   UNL     1     -41.854 -51.910  12.993  1.00  0.00     0.091 C 
HETATM    8  C   UNL     1     -40.573 -52.741  12.966  1.00  0.00     0.066 C 
HETATM    9  C   UNL     1     -40.447 -53.644  14.209  1.00  0.00     0.153 C 
HETATM   10  C   UNL     1     -40.052 -52.841  15.463  1.00  0.00     0.048 C 
HETATM   11  C   UNL     1     -39.301 -54.652  13.961  1.00  0.00     0.048 C 
HETATM   12  N   UNL     1     -41.671 -54.437  14.430  1.00  0.00     0.101 N 
HETATM   13  C   UNL     1     -42.969 -53.731  14.376  1.00  0.00     0.153 C 
HETATM   14  H   UNL     1     -41.692 -55.196  13.747  1.00  0.00     0.317 HD
HETATM   15  C   UNL     1     -43.067 -52.836  13.125  1.00  0.00     0.066 C 
HETATM   16  C   UNL     1     -43.255 -52.934  15.662  1.00  0.00     0.048 C 
HETATM   17  C   UNL     1     -44.058 -54.824  14.289  1.00  0.00     0.048 C 
ENDBRANCH   1   7
BRANCH   4  18
HETATM   18  C   UNL     1     -41.586 -47.712  10.642  1.00  0.00     0.152 A 
HETATM   19  N   UNL     1     -40.455 -47.054  10.654  1.00  0.00    -0.346 N 
HETATM   20  C   UNL     1     -40.701 -45.713  10.450  1.00  0.00     0.097 A 
ATOM     21  HN  UNL     1     -39.533 -47.468  10.794  1.00  0.00     0.167 HD
HETATM   22  C   UNL     1     -42.029 -45.369  10.306  1.00  0.00     0.070 A 
HETATM   23  S   UNL     1     -43.004 -46.775  10.465  1.00  0.00    -0.064 SA
ENDBRANCH   4  18
TORSDOF 2
ENDMDL
MODEL 3
REMARK VINA RESULT:      -5.6      3.079      7.262
REMARK  2 active torsions:
REMARK  status: ('A' for Active; 'I' for Inactive)
REMARK    1  A    between atoms: C_5  and  N_11 
REMARK       I    between atoms: N_11  and  C_12 
REMARK       I    between atoms: C_12  and  N_14 
REMARK    2  A    between atoms: N_14  and  C_15 
ROOT
HETATM    1  N   UNL     1     -42.707 -50.632  12.163  1.00  0.00    -0.338 N 
HETATM    2  C   UNL     1     -42.346 -49.294  12.181  1.00  0.00     0.322 C 
HETATM    3  O   UNL     1     -42.528 -48.593  13.167  1.00  0.00    -0.247 OA
HETATM    4  N   UNL     1     -41.721 -48.932  11.016  1.00  0.00    -0.289 N 
HETATM    5  H   UNL     1     -43.024 -50.991  11.274  1.00  0.00     0.164 HD
HETATM    6  H   UNL     1     -41.376 -49.653  10.406  1.00  0.00     0.172 HD
ENDROOT
BRANCH   1   7
HETATM    7  C   UNL     1     -43.269 -51.234  13.370  1.00  0.00     0.091 C 
HETATM    8  C   UNL     1     -43.020 -52.740  13.395  1.00  0.00     0.066 C 
HETATM    9  C   UNL     1     -43.598 -53.398  14.664  1.00  0.00     0.153 C 
HETATM   10  C   UNL     1     -42.735 -53.105  15.905  1.00  0.00     0.048 C 
HETATM   11  C   UNL     1     -43.572 -54.931  14.469  1.00  0.00     0.048 C 
HETATM   12  N   UNL     1     -45.008 -53.020  14.877  1.00  0.00     0.101 N 
HETATM   13  C   UNL     1     -45.361 -51.588  14.773  1.00  0.00     0.153 C 
HETATM   14  H   UNL     1     -45.585 -53.540  14.213  1.00  0.00     0.317 HD
HETATM   15  C   UNL     1     -44.770 -50.956  13.497  1.00  0.00     0.066 C 
HETATM   16  C   UNL     1     -44.961 -50.795  16.031  1.00  0.00     0.048 C 
HETATM   17  C   UNL     1     -46.903 -51.522  14.689  1.00  0.00     0.048 C 
ENDBRANCH   1   7
BRANCH   4  18
HETATM   18  C   UNL     1     -41.189 -47.683  10.864  1.00  0.00     0.152 A 
HETATM   19  N   UNL     1     -39.954 -47.281  11.029  1.00  0.00    -0.346 N 
HETATM   20  C   UNL     1     -39.853 -45.950  10.684  1.00  0.00     0.097 A 
ATOM     21  HN  UNL     1     -39.185 -47.862  11.361  1.00  0.00     0.167 HD
HETATM   22  C   UNL     1     -41.028 -45.352  10.280  1.00  0.00     0.070 A 
HETATM   23  S   UNL     1     -42.310 -46.493  10.367  1.00  0.00    -0.064 SA
ENDBRANCH   4  18
TORSDOF 2
ENDMDL
MODEL 4
REMARK VINA RESULT:      -5.6      3.162      7.134
REMARK  2 active torsions:
REMARK  status: ('A' for Active; 'I' for Inactive)
REMARK    1  A    between atoms: C_5  and  N_11 
REMARK       I    between atoms: N_11  and  C_12 
REMARK       I    between atoms: C_12  and  N_14 
REMARK    2  A    between atoms: N_14  and  C_15 
ROOT
HETATM    1  N   UNL     1     -41.736 -52.190  12.697  1.00  0.00    -0.338 N 
HETATM    2  C   UNL     1     -42.058 -50.878  12.386  1.00  0.00     0.322 C 
HETATM    3  O   UNL     1     -42.961 -50.285  12.960  1.00  0.00    -0.247 OA
HETATM    4  N   UNL     1     -41.202 -50.366  11.446  1.00  0.00    -0.289 N 
HETATM    5  H   UNL     1     -41.413 -52.759  11.929  1.00  0.00     0.164 HD
HETATM    6  H   UNL     1     -40.337 -50.846  11.264  1.00  0.00     0.172 HD
ENDROOT
BRANCH   1   7
HETATM    7  C   UNL     1     -42.457 -52.862  13.776  1.00  0.00     0.091 C 
HETATM    8  C   UNL     1     -41.532 -53.801  14.547  1.00  0.00     0.066 C 
HETATM    9  C   UNL     1     -42.269 -54.519  15.696  1.00  0.00     0.153 C 
HETATM   10  C   UNL     1     -42.522 -53.579  16.890  1.00  0.00     0.048 C 
HETATM   11  C   UNL     1     -41.358 -55.652  16.221  1.00  0.00     0.048 C 
HETATM   12  N   UNL     1     -43.514 -55.156  15.228  1.00  0.00     0.101 N 
HETATM   13  C   UNL     1     -44.427 -54.351  14.389  1.00  0.00     0.153 C 
HETATM   14  H   UNL     1     -43.269 -56.003  14.711  1.00  0.00     0.317 HD
HETATM   15  C   UNL     1     -43.665 -53.644  13.250  1.00  0.00     0.066 C 
HETATM   16  C   UNL     1     -45.253 -53.349  15.218  1.00  0.00     0.048 C 
HETATM   17  C   UNL     1     -45.438 -55.341  13.767  1.00  0.00     0.048 C 
ENDBRANCH   1   7
BRANCH   4  18
HETATM   18  C   UNL     1     -41.274 -49.054  11.071  1.00  0.00     0.152 A 
HETATM   19  N   UNL     1     -42.166 -48.451  10.326  1.00  0.00    -0.346 N 
HETATM   20  C   UNL     1     -41.889 -47.102  10.277  1.00  0.00     0.097 A 
ATOM     21  HN  UNL     1     -42.946 -48.909   9.854  1.00  0.00     0.167 HD
HETATM   22  C   UNL     1     -40.768 -46.702  10.974  1.00  0.00     0.070 A 
HETATM   23  S   UNL     1     -40.019 -48.073  11.689  1.00  0.00    -0.064 SA
ENDBRANCH   4  18
TORSDOF 2
ENDMDL
MODEL 5
REMARK VINA RESULT:      -5.5      3.072      7.125
REMARK  2 active torsions:
REMARK  status: ('A' for Active; 'I' for Inactive)
REMARK    1  A    between atoms: C_5  and  N_11 
REMARK       I    between atoms: N_11  and  C_12 
REMARK       I    between atoms: C_12  and  N_14 
REMARK    2  A    between atoms: N_14  and  C_15 
ROOT
HETATM    1  N   UNL     1     -41.960 -50.238  13.745  1.00  0.00    -0.338 N 
HETATM    2  C   UNL     1     -41.777 -49.285  12.756  1.00  0.00     0.322 C 
HETATM    3  O   UNL     1     -42.490 -49.242  11.764  1.00  0.00    -0.247 OA
HETATM    4  N   UNL     1     -40.779 -48.406  13.093  1.00  0.00    -0.289 N 
HETATM    5  H   UNL     1     -41.124 -50.561  14.208  1.00  0.00     0.164 HD
HETATM    6  H   UNL     1     -40.466 -48.369  14.048  1.00  0.00     0.172 HD
ENDROOT
BRANCH   1   7
HETATM    7  C   UNL     1     -43.069 -51.183  13.625  1.00  0.00     0.091 C 
HETATM    8  C   UNL     1     -44.289 -50.692  14.401  1.00  0.00     0.066 C 
HETATM    9  C   UNL     1     -45.476 -51.669  14.284  1.00  0.00     0.153 C 
HETATM   10  C   UNL     1     -46.157 -51.582  12.905  1.00  0.00     0.048 C 
HETATM   11  C   UNL     1     -46.545 -51.259  15.322  1.00  0.00     0.048 C 
HETATM   12  N   UNL     1     -45.075 -53.051  14.609  1.00  0.00     0.101 N 
HETATM   13  C   UNL     1     -43.847 -53.579  13.979  1.00  0.00     0.153 C 
HETATM   14  H   UNL     1     -44.972 -53.127  15.623  1.00  0.00     0.317 HD
HETATM   15  C   UNL     1     -42.678 -52.582  14.110  1.00  0.00     0.066 C 
HETATM   16  C   UNL     1     -44.072 -53.992  12.512  1.00  0.00     0.048 C 
HETATM   17  C   UNL     1     -43.482 -54.871  14.745  1.00  0.00     0.048 C 
ENDBRANCH   1   7
BRANCH   4  18
HETATM   18  C   UNL     1     -40.503 -47.323  12.307  1.00  0.00     0.152 A 
HETATM   19  N   UNL     1     -40.190 -47.277  11.037  1.00  0.00    -0.346 N 
HETATM   20  C   UNL     1     -40.077 -45.962  10.638  1.00  0.00     0.097 A 
ATOM     21  HN  UNL     1     -40.052 -48.088  10.434  1.00  0.00     0.167 HD
HETATM   22  C   UNL     1     -40.285 -45.023  11.627  1.00  0.00     0.070 A 
HETATM   23  S   UNL     1     -40.604 -45.821  13.115  1.00  0.00    -0.064 SA
ENDBRANCH   4  18
TORSDOF 2
ENDMDL
MODEL 6
REMARK VINA RESULT:      -5.4      3.744      5.821
REMARK  2 active torsions:
REMARK  status: ('A' for Active; 'I' for Inactive)
REMARK    1  A    between atoms: C_5  and  N_11 
REMARK       I    between atoms: N_11  and  C_12 
REMARK       I    between atoms: C_12  and  N_14 
REMARK    2  A    between atoms: N_14  and  C_15 
ROOT
HETATM    1  N   UNL     1     -40.897 -50.182  11.359  1.00  0.00    -0.338 N 
HETATM    2  C   UNL     1     -41.720 -49.068  11.326  1.00  0.00     0.322 C 
HETATM    3  O   UNL     1     -42.163 -48.565  12.350  1.00  0.00    -0.247 OA
HETATM    4  N   UNL     1     -41.880 -48.606  10.046  1.00  0.00    -0.289 N 
HETATM    5  H   UNL     1     -40.993 -50.825  10.587  1.00  0.00     0.164 HD
HETATM    6  H   UNL     1     -41.245 -48.921   9.332  1.00  0.00     0.172 HD
ENDROOT
BRANCH   1   7
HETATM    7  C   UNL     1     -40.503 -50.738  12.652  1.00  0.00     0.091 C 
HETATM    8  C   UNL     1     -39.162 -50.166  13.105  1.00  0.00     0.066 C 
HETATM    9  C   UNL     1     -38.727 -50.733  14.472  1.00  0.00     0.153 C 
HETATM   10  C   UNL     1     -39.529 -50.112  15.631  1.00  0.00     0.048 C 
HETATM   11  C   UNL     1     -37.250 -50.344  14.709  1.00  0.00     0.048 C 
HETATM   12  N   UNL     1     -38.789 -52.206  14.492  1.00  0.00     0.101 N 
HETATM   13  C   UNL     1     -40.014 -52.853  13.978  1.00  0.00     0.153 C 
HETATM   14  H   UNL     1     -37.991 -52.570  13.966  1.00  0.00     0.317 HD
HETATM   15  C   UNL     1     -40.426 -52.267  12.613  1.00  0.00     0.066 C 
HETATM   16  C   UNL     1     -41.175 -52.793  14.989  1.00  0.00     0.048 C 
HETATM   17  C   UNL     1     -39.676 -54.350  13.792  1.00  0.00     0.048 C 
ENDBRANCH   1   7
BRANCH   4  18
HETATM   18  C   UNL     1     -42.570 -47.453   9.796  1.00  0.00     0.152 A 
HETATM   19  N   UNL     1     -42.486 -46.290  10.391  1.00  0.00    -0.346 N 
HETATM   20  C   UNL     1     -43.311 -45.387   9.755  1.00  0.00     0.097 A 
ATOM     21  HN  UNL     1     -41.901 -46.083  11.200  1.00  0.00     0.167 HD
HETATM   22  C   UNL     1     -44.032 -45.890   8.692  1.00  0.00     0.070 A 
HETATM   23  S   UNL     1     -43.684 -47.562   8.504  1.00  0.00    -0.064 SA
ENDBRANCH   4  18
TORSDOF 2
ENDMDL
MODEL 7
REMARK VINA RESULT:      -5.1      2.684      7.485
REMARK  2 active torsions:
REMARK  status: ('A' for Active; 'I' for Inactive)
REMARK    1  A    between atoms: C_5  and  N_11 
REMARK       I    between atoms: N_11  and  C_12 
REMARK       I    between atoms: C_12  and  N_14 
REMARK    2  A    between atoms: N_14  and  C_15 
ROOT
HETATM    1  N   UNL     1     -43.314 -51.104  12.974  1.00  0.00    -0.338 N 
HETATM    2  C   UNL     1     -41.949 -50.905  13.108  1.00  0.00     0.322 C 
HETATM    3  O   UNL     1     -41.329 -51.333  14.072  1.00  0.00    -0.247 OA
HETATM    4  N   UNL     1     -41.432 -50.259  12.015  1.00  0.00    -0.289 N 
HETATM    5  H   UNL     1     -43.827 -50.361  12.523  1.00  0.00     0.164 HD
HETATM    6  H   UNL     1     -41.979 -50.216  11.173  1.00  0.00     0.172 HD
ENDROOT
BRANCH   1   7
HETATM    7  C   UNL     1     -44.020 -51.893  13.981  1.00  0.00     0.091 C 
HETATM    8  C   UNL     1     -44.340 -53.290  13.454  1.00  0.00     0.066 C 
HETATM    9  C   UNL     1     -45.080 -54.145  14.502  1.00  0.00     0.153 C 
HETATM   10  C   UNL     1     -44.132 -54.641  15.610  1.00  0.00     0.048 C 
HETATM   11  C   UNL     1     -45.623 -55.410  13.798  1.00  0.00     0.048 C 
HETATM   12  N   UNL     1     -46.246 -53.433  15.057  1.00  0.00     0.101 N 
HETATM   13  C   UNL     1     -46.054 -52.037  15.504  1.00  0.00     0.153 C 
HETATM   14  H   UNL     1     -46.994 -53.446  14.361  1.00  0.00     0.317 HD
HETATM   15  C   UNL     1     -45.311 -51.206  14.438  1.00  0.00     0.066 C 
HETATM   16  C   UNL     1     -45.352 -51.952  16.873  1.00  0.00     0.048 C 
HETATM   17  C   UNL     1     -47.466 -51.441  15.700  1.00  0.00     0.048 C 
ENDBRANCH   1   7
BRANCH   4  18
HETATM   18  C   UNL     1     -40.086 -50.055  11.892  1.00  0.00     0.152 A 
HETATM   19  N   UNL     1     -39.123 -50.930  11.747  1.00  0.00    -0.346 N 
HETATM   20  C   UNL     1     -37.925 -50.270  11.579  1.00  0.00     0.097 A 
ATOM     21  HN  UNL     1     -39.242 -51.943  11.756  1.00  0.00     0.167 HD
HETATM   22  C   UNL     1     -37.994 -48.894  11.623  1.00  0.00     0.070 A 
HETATM   23  S   UNL     1     -39.617 -48.412  11.916  1.00  0.00    -0.064 SA
ENDBRANCH   4  18
TORSDOF 2
ENDMDL
MODEL 8
REMARK VINA RESULT:      -5.0      3.215      6.341
REMARK  2 active torsions:
REMARK  status: ('A' for Active; 'I' for Inactive)
REMARK    1  A    between atoms: C_5  and  N_11 
REMARK       I    between atoms: N_11  and  C_12 
REMARK       I    between atoms: C_12  and  N_14 
REMARK    2  A    between atoms: N_14  and  C_15 
ROOT
HETATM    1  N   UNL     1     -41.297 -51.158  11.327  1.00  0.00    -0.338 N 
HETATM    2  C   UNL     1     -41.404 -49.805  11.609  1.00  0.00     0.322 C 
HETATM    3  O   UNL     1     -41.487 -49.393  12.758  1.00  0.00    -0.247 OA
HETATM    4  N   UNL     1     -41.327 -49.052  10.466  1.00  0.00    -0.289 N 
HETATM    5  H   UNL     1     -41.739 -51.468  10.474  1.00  0.00     0.164 HD
HETATM    6  H   UNL     1     -40.975 -49.478   9.626  1.00  0.00     0.172 HD
ENDROOT
BRANCH   1   7
HETATM    7  C   UNL     1     -41.226 -52.111  12.432  1.00  0.00     0.091 C 
HETATM    8  C   UNL     1     -42.486 -52.042  13.293  1.00  0.00     0.066 C 
HETATM    9  C   UNL     1     -42.438 -53.045  14.463  1.00  0.00     0.153 C 
HETATM   10  C   UNL     1     -42.684 -54.490  13.991  1.00  0.00     0.048 C 
HETATM   11  C   UNL     1     -43.588 -52.705  15.438  1.00  0.00     0.048 C 
HETATM   12  N   UNL     1     -41.183 -52.926  15.228  1.00  0.00     0.101 N 
HETATM   13  C   UNL     1     -39.914 -52.884  14.470  1.00  0.00     0.153 C 
HETATM   14  H   UNL     1     -41.236 -52.086  15.808  1.00  0.00     0.317 HD
HETATM   15  C   UNL     1     -39.991 -51.876  13.306  1.00  0.00     0.066 C 
HETATM   16  C   UNL     1     -39.480 -54.279  13.979  1.00  0.00     0.048 C 
HETATM   17  C   UNL     1     -38.826 -52.414  15.462  1.00  0.00     0.048 C 
ENDBRANCH   1   7
BRANCH   4  18
HETATM   18  C   UNL     1     -41.305 -47.687  10.525  1.00  0.00     0.152 A 
HETATM   19  N   UNL     1     -40.288 -46.878  10.684  1.00  0.00    -0.346 N 
HETATM   20  C   UNL     1     -40.720 -45.573  10.599  1.00  0.00     0.097 A 
ATOM     21  HN  UNL     1     -39.324 -47.170  10.845  1.00  0.00     0.167 HD
HETATM   22  C   UNL     1     -42.075 -45.408  10.398  1.00  0.00     0.070 A 
HETATM   23  S   UNL     1     -42.836 -46.948  10.345  1.00  0.00    -0.064 SA
ENDBRANCH   4  18
TORSDOF 2
ENDMDL
MODEL 9
REMARK VINA RESULT:      -4.8      2.061      2.872
REMARK  2 active torsions:
REMARK  status: ('A' for Active; 'I' for Inactive)
REMARK    1  A    between atoms: C_5  and  N_11 
REMARK       I    between atoms: N_11  and  C_12 
REMARK       I    between atoms: C_12  and  N_14 
REMARK    2  A    between atoms: N_14  and  C_15 
ROOT
HETATM    1  N   UNL     1     -40.719 -52.574  14.000  1.00  0.00    -0.338 N 
HETATM    2  C   UNL     1     -41.971 -52.576  14.593  1.00  0.00     0.322 C 
HETATM    3  O   UNL     1     -42.427 -51.580  15.137  1.00  0.00    -0.247 OA
HETATM    4  N   UNL     1     -42.605 -53.778  14.410  1.00  0.00    -0.289 N 
HETATM    5  H   UNL     1     -40.204 -53.440  14.051  1.00  0.00     0.164 HD
HETATM    6  H   UNL     1     -42.255 -54.410  13.710  1.00  0.00     0.172 HD
ENDROOT
BRANCH   1   7
HETATM    7  C   UNL     1     -39.946 -51.333  13.977  1.00  0.00     0.091 C 
HETATM    8  C   UNL     1     -39.246 -51.153  12.632  1.00  0.00     0.066 C 
HETATM    9  C   UNL     1     -38.428 -49.846  12.580  1.00  0.00     0.153 C 
HETATM   10  C   UNL     1     -39.332 -48.610  12.421  1.00  0.00     0.048 C 
HETATM   11  C   UNL     1     -37.527 -49.889  11.324  1.00  0.00     0.048 C 
HETATM   12  N   UNL     1     -37.531 -49.722  13.744  1.00  0.00     0.101 N 
HETATM   13  C   UNL     1     -38.100 -49.977  15.084  1.00  0.00     0.153 C 
HETATM   14  H   UNL     1     -36.737 -50.351  13.608  1.00  0.00     0.317 HD
HETATM   15  C   UNL     1     -38.913 -51.287  15.106  1.00  0.00     0.066 C 
HETATM   16  C   UNL     1     -38.933 -48.789  15.601  1.00  0.00     0.048 C 
HETATM   17  C   UNL     1     -36.901 -50.122  16.049  1.00  0.00     0.048 C 
ENDBRANCH   1   7
BRANCH   4  18
HETATM   18  C   UNL     1     -43.894 -53.963  14.823  1.00  0.00     0.152 A 
HETATM   19  N   UNL     1     -44.425 -53.761  16.002  1.00  0.00    -0.346 N 
HETATM   20  C   UNL     1     -45.781 -54.002  15.944  1.00  0.00     0.097 A 
ATOM     21  HN  UNL     1     -43.914 -53.471  16.836  1.00  0.00     0.167 HD
HETATM   22  C   UNL     1     -46.258 -54.408  14.715  1.00  0.00     0.070 A 
HETATM   23  S   UNL     1     -44.953 -54.521  13.603  1.00  0.00    -0.064 SA
ENDBRANCH   4  18
TORSDOF 2
ENDMDL
