MODEL 1
REMARK VINA RESULT:      -6.4      0.000      0.000
REMARK  5 active torsions:
REMARK  status: ('A' for Active; 'I' for Inactive)
REMARK    1  A    between atoms: C_6  and  N_7 
REMARK       I    between atoms: N_7  and  C_8 
REMARK       I    between atoms: C_8  and  N_10 
REMARK    2  A    between atoms: N_10  and  C_11 
REMARK    3  A    between atoms: C_11  and  C_12 
REMARK    4  A    between atoms: C_12  and  N_13 
REMARK    5  A    between atoms: C_12  and  C_16 
ROOT
HETATM    1  N   UNL     1     -42.682 -51.116  12.213  1.00  0.00    -0.338 N 
HETATM    2  C   UNL     1     -42.181 -49.841  12.267  1.00  0.00     0.316 C 
HETATM    3  O   UNL     1     -42.117 -49.164  13.282  1.00  0.00    -0.247 OA
HETATM    4  N   UNL     1     -41.771 -49.417  11.029  1.00  0.00    -0.341 N 
HETATM    5  H   UNL     1     -43.069 -51.386  11.320  1.00  0.00     0.164 HD
HETATM    6  H   UNL     1     -41.401 -50.135  10.422  1.00  0.00     0.164 HD
ENDROOT
BRANCH   4   7
HETATM    7  C   UNL     1     -41.208 -48.087  10.855  1.00  0.00     0.165 C 
BRANCH   7   8
HETATM    8  C   UNL     1     -42.264 -46.942  10.726  1.00  0.00     0.275 C 
BRANCH   8   9
HETATM    9  N   UNL     1     -41.659 -45.620  10.383  1.00  0.00     0.090 N 
HETATM   10  C   UNL     1     -42.272 -44.475  11.051  1.00  0.00     0.310 C 
HETATM   11  C   UNL     1     -40.205 -45.600  10.583  1.00  0.00     0.310 C 
ENDBRANCH   8   9
BRANCH   8  12
HETATM   12  C   UNL     1     -43.366 -47.332   9.769  1.00  0.00     0.011 A 
HETATM   13  C   UNL     1     -43.273 -47.563   8.373  1.00  0.00     0.118 A 
HETATM   14  N   UNL     1     -44.434 -47.903   7.818  1.00  0.00    -0.310 N 
HETATM   15  N   UNL     1     -45.287 -47.910   8.858  1.00  0.00    -0.308 N 
ATOM     16  HN  UNL     1     -44.631 -48.108   6.839  1.00  0.00     0.186 HD
HETATM   17  C   UNL     1     -46.673 -48.246   8.648  1.00  0.00     0.177 C 
HETATM   18  C   UNL     1     -44.698 -47.585  10.045  1.00  0.00     0.120 A 
ENDBRANCH   8  12
ENDBRANCH   7   8
ENDBRANCH   4   7
BRANCH   1  19
HETATM   19  C   UNL     1     -43.197 -51.770  13.406  1.00  0.00     0.089 C 
HETATM   20  C   UNL     1     -42.959 -53.285  13.405  1.00  0.00     0.004 C 
HETATM   21  C   UNL     1     -41.587 -53.719  12.910  1.00  0.00     0.012 C 
HETATM   22  C   UNL     1     -44.106 -53.854  12.565  1.00  0.00     0.006 C 
HETATM   23  C   UNL     1     -45.254 -52.851  12.686  1.00  0.00     0.002 C 
HETATM   24  C   UNL     1     -44.721 -51.678  13.507  1.00  0.00     0.026 C 
ENDBRANCH   1  19
TORSDOF 5
ENDMDL
MODEL 2
REMARK VINA RESULT:      -5.8      2.488      4.400
REMARK  5 active torsions:
REMARK  status: ('A' for Active; 'I' for Inactive)
REMARK    1  A    between atoms: C_6  and  N_7 
REMARK       I    between atoms: N_7  and  C_8 
REMARK       I    between atoms: C_8  and  N_10 
REMARK    2  A    between atoms: N_10  and  C_11 
REMARK    3  A    between atoms: C_11  and  C_12 
REMARK    4  A    between atoms: C_12  and  N_13 
REMARK    5  A    between atoms: C_12  and  C_16 
ROOT
HETATM    1  N   UNL     1     -44.086 -51.789  12.628  1.00  0.00    -0.338 N 
HETATM    2  C   UNL     1     -42.727 -51.969  12.629  1.00  0.00     0.316 C 
HETATM    3  O   UNL     1     -42.153 -52.908  13.157  1.00  0.00    -0.247 OA
HETATM    4  N   UNL     1     -42.092 -50.950  11.967  1.00  0.00    -0.341 N 
HETATM    5  H   UNL     1     -44.391 -50.828  12.559  1.00  0.00     0.164 HD
HETATM    6  H   UNL     1     -42.600 -50.550  11.191  1.00  0.00     0.164 HD
ENDROOT
BRANCH   4   7
HETATM    7  C   UNL     1     -40.642 -50.938  11.849  1.00  0.00     0.165 C 
BRANCH   7   8
HETATM    8  C   UNL     1     -39.947 -49.681  12.467  1.00  0.00     0.275 C 
BRANCH   8   9
HETATM    9  N   UNL     1     -38.474 -49.853  12.645  1.00  0.00     0.090 N 
HETATM   10  C   UNL     1     -38.090 -50.924  13.562  1.00  0.00     0.310 C 
HETATM   11  C   UNL     1     -37.769 -50.008  11.367  1.00  0.00     0.310 C 
ENDBRANCH   8   9
BRANCH   8  12
HETATM   12  C   UNL     1     -40.287 -48.438  11.677  1.00  0.00     0.011 A 
HETATM   13  C   UNL     1     -41.234 -48.295  10.633  1.00  0.00     0.118 A 
HETATM   14  N   UNL     1     -41.298 -47.057  10.147  1.00  0.00    -0.310 N 
HETATM   15  N   UNL     1     -40.401 -46.384  10.889  1.00  0.00    -0.308 N 
ATOM     16  HN  UNL     1     -41.887 -46.703   9.393  1.00  0.00     0.186 HD
HETATM   17  C   UNL     1     -40.187 -44.977  10.656  1.00  0.00     0.177 C 
HETATM   18  C   UNL     1     -39.777 -47.160  11.821  1.00  0.00     0.120 A 
ENDBRANCH   8  12
ENDBRANCH   7   8
ENDBRANCH   4   7
BRANCH   1  19
HETATM   19  C   UNL     1     -44.969 -52.737  13.290  1.00  0.00     0.089 C 
HETATM   20  C   UNL     1     -46.452 -52.387  13.125  1.00  0.00     0.004 C 
HETATM   21  C   UNL     1     -46.851 -51.920  11.732  1.00  0.00     0.012 C 
HETATM   22  C   UNL     1     -46.724 -51.340  14.209  1.00  0.00     0.006 C 
HETATM   23  C   UNL     1     -45.700 -51.603  15.314  1.00  0.00     0.002 C 
HETATM   24  C   UNL     1     -44.797 -52.729  14.811  1.00  0.00     0.026 C 
ENDBRANCH   1  19
TORSDOF 5
ENDMDL
MODEL 3
REMARK VINA RESULT:      -5.7      2.144      3.528
REMARK  5 active torsions:
REMARK  status: ('A' for Active; 'I' for Inactive)
REMARK    1  A    between atoms: C_6  and  N_7 
REMARK       I    between atoms: N_7  and  C_8 
REMARK       I    between atoms: C_8  and  N_10 
REMARK    2  A    between atoms: N_10  and  C_11 
REMARK    3  A    between atoms: C_11  and  C_12 
REMARK    4  A    between atoms: C_12  and  N_13 
REMARK    5  A    between atoms: C_12  and  C_16 
ROOT
HETATM    1  N   UNL     1     -42.580 -52.903  13.058  1.00  0.00    -0.338 N 
HETATM    2  C   UNL     1     -41.535 -52.355  12.361  1.00  0.00     0.316 C 
HETATM    3  O   UNL     1     -40.487 -52.933  12.115  1.00  0.00    -0.247 OA
HETATM    4  N   UNL     1     -41.812 -51.067  11.983  1.00  0.00    -0.341 N 
HETATM    5  H   UNL     1     -43.162 -52.239  13.549  1.00  0.00     0.164 HD
HETATM    6  H   UNL     1     -42.782 -50.872  11.777  1.00  0.00     0.164 HD
ENDROOT
BRANCH   4   7
HETATM    7  C   UNL     1     -40.836 -50.292  11.233  1.00  0.00     0.165 C 
BRANCH   7   8
HETATM    8  C   UNL     1     -40.513 -48.888  11.837  1.00  0.00     0.275 C 
BRANCH   8   9
HETATM    9  N   UNL     1     -39.052 -48.665  12.058  1.00  0.00     0.090 N 
HETATM   10  C   UNL     1     -38.684 -48.346  13.435  1.00  0.00     0.310 C 
HETATM   11  C   UNL     1     -38.235 -49.778  11.564  1.00  0.00     0.310 C 
ENDBRANCH   8   9
BRANCH   8  12
HETATM   12  C   UNL     1     -41.140 -47.790  11.008  1.00  0.00     0.011 A 
HETATM   13  C   UNL     1     -40.654 -46.478  10.780  1.00  0.00     0.118 A 
HETATM   14  N   UNL     1     -41.445 -45.754   9.990  1.00  0.00    -0.310 N 
HETATM   15  N   UNL     1     -42.443 -46.603   9.687  1.00  0.00    -0.308 N 
ATOM     16  HN  UNL     1     -41.323 -44.788   9.687  1.00  0.00     0.186 HD
HETATM   17  C   UNL     1     -43.515 -46.171   8.825  1.00  0.00     0.177 C 
HETATM   18  C   UNL     1     -42.304 -47.832  10.261  1.00  0.00     0.120 A 
ENDBRANCH   8  12
ENDBRANCH   7   8
ENDBRANCH   4   7
BRANCH   1  19
HETATM   19  C   UNL     1     -42.505 -54.259  13.579  1.00  0.00     0.089 C 
HETATM   20  C   UNL     1     -43.836 -54.747  14.165  1.00  0.00     0.004 C 
HETATM   21  C   UNL     1     -45.069 -54.381  13.352  1.00  0.00     0.012 C 
HETATM   22  C   UNL     1     -43.864 -54.175  15.586  1.00  0.00     0.006 C 
HETATM   23  C   UNL     1     -42.402 -53.995  15.995  1.00  0.00     0.002 C 
HETATM   24  C   UNL     1     -41.559 -54.371  14.777  1.00  0.00     0.026 C 
ENDBRANCH   1  19
TORSDOF 5
ENDMDL
MODEL 4
REMARK VINA RESULT:      -5.7      2.070      3.091
REMARK  5 active torsions:
REMARK  status: ('A' for Active; 'I' for Inactive)
REMARK    1  A    between atoms: C_6  and  N_7 
REMARK       I    between atoms: N_7  and  C_8 
REMARK       I    between atoms: C_8  and  N_10 
REMARK    2  A    between atoms: N_10  and  C_11 
REMARK    3  A    between atoms: C_11  and  C_12 
REMARK    4  A    between atoms: C_12  and  N_13 
REMARK    5  A    between atoms: C_12  and  C_16 
ROOT
HETATM    1  N   UNL     1     -43.971 -52.024  13.491  1.00  0.00    -0.338 N 
HETATM    2  C   UNL     1     -42.706 -51.500  13.423  1.00  0.00     0.316 C 
HETATM    3  O   UNL     1     -41.964 -51.355  14.382  1.00  0.00    -0.247 OA
HETATM    4  N   UNL     1     -42.384 -51.149  12.137  1.00  0.00    -0.341 N 
HETATM    5  H   UNL     1     -44.605 -51.706  12.772  1.00  0.00     0.164 HD
HETATM    6  H   UNL     1     -42.786 -51.727  11.413  1.00  0.00     0.164 HD
ENDROOT
BRANCH   4   7
HETATM    7  C   UNL     1     -41.085 -50.568  11.836  1.00  0.00     0.165 C 
BRANCH   7   8
HETATM    8  C   UNL     1     -40.952 -49.050  12.182  1.00  0.00     0.275 C 
BRANCH   8   9
HETATM    9  N   UNL     1     -39.562 -48.529  12.015  1.00  0.00     0.090 N 
HETATM   10  C   UNL     1     -39.056 -47.761  13.150  1.00  0.00     0.310 C 
HETATM   11  C   UNL     1     -38.607 -49.583  11.655  1.00  0.00     0.310 C 
ENDBRANCH   8   9
BRANCH   8  12
HETATM   12  C   UNL     1     -41.965 -48.233  11.414  1.00  0.00     0.011 A 
HETATM   13  C   UNL     1     -43.024 -47.443  11.927  1.00  0.00     0.118 A 
HETATM   14  N   UNL     1     -43.737 -46.839  10.979  1.00  0.00    -0.310 N 
HETATM   15  N   UNL     1     -43.131 -47.222   9.841  1.00  0.00    -0.308 N 
ATOM     16  HN  UNL     1     -44.548 -46.231  11.088  1.00  0.00     0.186 HD
HETATM   17  C   UNL     1     -43.626 -46.754   8.571  1.00  0.00     0.177 C 
HETATM   18  C   UNL     1     -42.064 -48.047  10.046  1.00  0.00     0.120 A 
ENDBRANCH   8  12
ENDBRANCH   7   8
ENDBRANCH   4   7
BRANCH   1  19
HETATM   19  C   UNL     1     -44.539 -52.451  14.760  1.00  0.00     0.089 C 
HETATM   20  C   UNL     1     -45.560 -53.584  14.606  1.00  0.00     0.004 C 
HETATM   21  C   UNL     1     -45.166 -54.673  13.619  1.00  0.00     0.012 C 
HETATM   22  C   UNL     1     -46.866 -52.878  14.230  1.00  0.00     0.006 C 
HETATM   23  C   UNL     1     -46.764 -51.467  14.811  1.00  0.00     0.002 C 
HETATM   24  C   UNL     1     -45.369 -51.350  15.425  1.00  0.00     0.026 C 
ENDBRANCH   1  19
TORSDOF 5
ENDMDL
MODEL 5
REMARK VINA RESULT:      -5.5      2.510      4.419
REMARK  5 active torsions:
REMARK  status: ('A' for Active; 'I' for Inactive)
REMARK    1  A    between atoms: C_6  and  N_7 
REMARK       I    between atoms: N_7  and  C_8 
REMARK       I    between atoms: C_8  and  N_10 
REMARK    2  A    between atoms: N_10  and  C_11 
REMARK    3  A    between atoms: C_11  and  C_12 
REMARK    4  A    between atoms: C_12  and  N_13 
REMARK    5  A    between atoms: C_12  and  C_16 
ROOT
HETATM    1  N   UNL     1     -43.757 -53.120  13.996  1.00  0.00    -0.338 N 
HETATM    2  C   UNL     1     -42.591 -52.702  13.410  1.00  0.00     0.316 C 
HETATM    3  O   UNL     1     -42.366 -52.739  12.210  1.00  0.00    -0.247 OA
HETATM    4  N   UNL     1     -41.702 -52.244  14.348  1.00  0.00    -0.341 N 
HETATM    5  H   UNL     1     -43.667 -53.436  14.951  1.00  0.00     0.164 HD
HETATM    6  H   UNL     1     -42.111 -51.796  15.156  1.00  0.00     0.164 HD
ENDROOT
BRANCH   4   7
HETATM    7  C   UNL     1     -40.393 -51.753  13.945  1.00  0.00     0.165 C 
BRANCH   7   8
HETATM    8  C   UNL     1     -40.263 -50.197  13.903  1.00  0.00     0.275 C 
BRANCH   8   9
HETATM    9  N   UNL     1     -38.896 -49.711  14.256  1.00  0.00     0.090 N 
HETATM   10  C   UNL     1     -37.802 -50.503  13.697  1.00  0.00     0.310 C 
HETATM   11  C   UNL     1     -38.705 -48.292  13.935  1.00  0.00     0.310 C 
ENDBRANCH   8   9
BRANCH   8  12
HETATM   12  C   UNL     1     -40.738 -49.654  12.574  1.00  0.00     0.011 A 
HETATM   13  C   UNL     1     -40.252 -49.960  11.279  1.00  0.00     0.118 A 
HETATM   14  N   UNL     1     -40.896 -49.314  10.309  1.00  0.00    -0.310 N 
HETATM   15  N   UNL     1     -41.819 -48.596  10.973  1.00  0.00    -0.308 N 
ATOM     16  HN  UNL     1     -40.730 -49.355   9.304  1.00  0.00     0.186 HD
HETATM   17  C   UNL     1     -42.733 -47.752  10.243  1.00  0.00     0.177 C 
HETATM   18  C   UNL     1     -41.772 -48.769  12.325  1.00  0.00     0.120 A 
ENDBRANCH   8  12
ENDBRANCH   7   8
ENDBRANCH   4   7
BRANCH   1  19
HETATM   19  C   UNL     1     -44.844 -53.665  13.198  1.00  0.00     0.089 C 
HETATM   20  C   UNL     1     -46.104 -52.791  13.229  1.00  0.00     0.004 C 
HETATM   21  C   UNL     1     -45.850 -51.294  13.129  1.00  0.00     0.012 C 
HETATM   22  C   UNL     1     -46.819 -53.192  14.523  1.00  0.00     0.006 C 
HETATM   23  C   UNL     1     -46.385 -54.629  14.815  1.00  0.00     0.002 C 
HETATM   24  C   UNL     1     -45.357 -54.999  13.746  1.00  0.00     0.026 C 
ENDBRANCH   1  19
TORSDOF 5
ENDMDL
MODEL 6
REMARK VINA RESULT:      -5.2      5.079      7.727
REMARK  5 active torsions:
REMARK  status: ('A' for Active; 'I' for Inactive)
REMARK    1  A    between atoms: C_6  and  N_7 
REMARK       I    between atoms: N_7  and  C_8 
REMARK       I    between atoms: C_8  and  N_10 
REMARK    2  A    between atoms: N_10  and  C_11 
REMARK    3  A    between atoms: C_11  and  C_12 
REMARK    4  A    between atoms: C_12  and  N_13 
REMARK    5  A    between atoms: C_12  and  C_16 
ROOT
HETATM    1  N   UNL     1     -44.416 -53.043  15.812  1.00  0.00    -0.338 N 
HETATM    2  C   UNL     1     -43.526 -53.910  16.392  1.00  0.00     0.316 C 
HETATM    3  O   UNL     1     -43.829 -54.984  16.889  1.00  0.00    -0.247 OA
HETATM    4  N   UNL     1     -42.250 -53.410  16.354  1.00  0.00    -0.341 N 
HETATM    5  H   UNL     1     -44.144 -52.070  15.838  1.00  0.00     0.164 HD
HETATM    6  H   UNL     1     -42.029 -52.841  15.549  1.00  0.00     0.164 HD
ENDROOT
BRANCH   4   7
HETATM    7  C   UNL     1     -41.144 -54.167  16.919  1.00  0.00     0.165 C 
BRANCH   7   8
HETATM    8  C   UNL     1     -39.889 -54.280  15.994  1.00  0.00     0.275 C 
BRANCH   8   9
HETATM    9  N   UNL     1     -39.301 -55.653  15.968  1.00  0.00     0.090 N 
HETATM   10  C   UNL     1     -37.878 -55.715  16.293  1.00  0.00     0.310 C 
HETATM   11  C   UNL     1     -40.049 -56.600  16.802  1.00  0.00     0.310 C 
ENDBRANCH   8   9
BRANCH   8  12
HETATM   12  C   UNL     1     -40.196 -53.762  14.608  1.00  0.00     0.011 A 
HETATM   13  C   UNL     1     -40.632 -54.494  13.476  1.00  0.00     0.118 A 
HETATM   14  N   UNL     1     -40.821 -53.734  12.399  1.00  0.00    -0.310 N 
HETATM   15  N   UNL     1     -40.524 -52.497  12.834  1.00  0.00    -0.308 N 
ATOM     16  HN  UNL     1     -41.121 -54.021  11.467  1.00  0.00     0.186 HD
HETATM   17  C   UNL     1     -40.619 -51.376  11.933  1.00  0.00     0.177 C 
HETATM   18  C   UNL     1     -40.153 -52.458  14.147  1.00  0.00     0.120 A 
ENDBRANCH   8  12
ENDBRANCH   7   8
ENDBRANCH   4   7
BRANCH   1  19
HETATM   19  C   UNL     1     -45.836 -53.353  15.754  1.00  0.00     0.089 C 
HETATM   20  C   UNL     1     -46.300 -53.764  14.352  1.00  0.00     0.004 C 
HETATM   21  C   UNL     1     -45.353 -54.697  13.610  1.00  0.00     0.012 C 
HETATM   22  C   UNL     1     -46.532 -52.440  13.619  1.00  0.00     0.006 C 
HETATM   23  C   UNL     1     -46.856 -51.411  14.702  1.00  0.00     0.002 C 
HETATM   24  C   UNL     1     -46.710 -52.130  16.043  1.00  0.00     0.026 C 
ENDBRANCH   1  19
TORSDOF 5
ENDMDL
MODEL 7
REMARK VINA RESULT:      -5.2      1.799      2.564
REMARK  5 active torsions:
REMARK  status: ('A' for Active; 'I' for Inactive)
REMARK    1  A    between atoms: C_6  and  N_7 
REMARK       I    between atoms: N_7  and  C_8 
REMARK       I    between atoms: C_8  and  N_10 
REMARK    2  A    between atoms: N_10  and  C_11 
REMARK    3  A    between atoms: C_11  and  C_12 
REMARK    4  A    between atoms: C_12  and  N_13 
REMARK    5  A    between atoms: C_12  and  C_16 
ROOT
HETATM    1  N   UNL     1     -41.968 -52.032  13.468  1.00  0.00    -0.338 N 
HETATM    2  C   UNL     1     -41.310 -51.123  12.680  1.00  0.00     0.316 C 
HETATM    3  O   UNL     1     -40.782 -51.388  11.611  1.00  0.00    -0.247 OA
HETATM    4  N   UNL     1     -41.312 -49.878  13.253  1.00  0.00    -0.341 N 
HETATM    5  H   UNL     1     -41.973 -51.819  14.455  1.00  0.00     0.164 HD
HETATM    6  H   UNL     1     -42.130 -49.650  13.801  1.00  0.00     0.164 HD
ENDROOT
BRANCH   4   7
HETATM    7  C   UNL     1     -40.663 -48.759  12.587  1.00  0.00     0.165 C 
BRANCH   7   8
HETATM    8  C   UNL     1     -41.555 -47.485  12.432  1.00  0.00     0.275 C 
BRANCH   8   9
HETATM    9  N   UNL     1     -40.767 -46.216  12.407  1.00  0.00     0.090 N 
HETATM   10  C   UNL     1     -41.547 -45.007  12.660  1.00  0.00     0.310 C 
HETATM   11  C   UNL     1     -39.603 -46.261  13.299  1.00  0.00     0.310 C 
ENDBRANCH   8   9
BRANCH   8  12
HETATM   12  C   UNL     1     -42.472 -47.613  11.238  1.00  0.00     0.011 A 
HETATM   13  C   UNL     1     -43.885 -47.720  11.226  1.00  0.00     0.118 A 
HETATM   14  N   UNL     1     -44.395 -47.811   9.999  1.00  0.00    -0.310 N 
HETATM   15  N   UNL     1     -43.312 -47.746   9.205  1.00  0.00    -0.308 N 
ATOM     16  HN  UNL     1     -45.373 -47.906   9.727  1.00  0.00     0.186 HD
HETATM   17  C   UNL     1     -43.466 -47.808   7.773  1.00  0.00     0.177 C 
HETATM   18  C   UNL     1     -42.141 -47.620   9.894  1.00  0.00     0.120 A 
ENDBRANCH   8  12
ENDBRANCH   7   8
ENDBRANCH   4   7
BRANCH   1  19
HETATM   19  C   UNL     1     -42.079 -53.427  13.071  1.00  0.00     0.089 C 
HETATM   20  C   UNL     1     -43.521 -53.946  13.108  1.00  0.00     0.004 C 
HETATM   21  C   UNL     1     -44.565 -52.982  12.561  1.00  0.00     0.012 C 
HETATM   22  C   UNL     1     -43.759 -54.317  14.575  1.00  0.00     0.006 C 
HETATM   23  C   UNL     1     -42.383 -54.646  15.154  1.00  0.00     0.002 C 
HETATM   24  C   UNL     1     -41.367 -54.367  14.047  1.00  0.00     0.026 C 
ENDBRANCH   1  19
TORSDOF 5
ENDMDL
MODEL 8
REMARK VINA RESULT:      -5.1      2.141      2.744
REMARK  5 active torsions:
REMARK  status: ('A' for Active; 'I' for Inactive)
REMARK    1  A    between atoms: C_6  and  N_7 
REMARK       I    between atoms: N_7  and  C_8 
REMARK       I    between atoms: C_8  and  N_10 
REMARK    2  A    between atoms: N_10  and  C_11 
REMARK    3  A    between atoms: C_11  and  C_12 
REMARK    4  A    between atoms: C_12  and  N_13 
REMARK    5  A    between atoms: C_12  and  C_16 
ROOT
HETATM    1  N   UNL     1     -44.048 -50.346  13.800  1.00  0.00    -0.338 N 
HETATM    2  C   UNL     1     -43.292 -49.370  14.397  1.00  0.00     0.316 C 
HETATM    3  O   UNL     1     -42.931 -49.390  15.564  1.00  0.00    -0.247 OA
HETATM    4  N   UNL     1     -43.001 -48.361  13.516  1.00  0.00    -0.341 N 
HETATM    5  H   UNL     1     -44.617 -50.033  13.027  1.00  0.00     0.164 HD
HETATM    6  H   UNL     1     -42.887 -48.642  12.552  1.00  0.00     0.164 HD
ENDROOT
BRANCH   4   7
HETATM    7  C   UNL     1     -42.210 -47.217  13.941  1.00  0.00     0.165 C 
BRANCH   7   8
HETATM    8  C   UNL     1     -41.473 -46.466  12.785  1.00  0.00     0.275 C 
BRANCH   8   9
HETATM    9  N   UNL     1     -39.994 -46.389  12.983  1.00  0.00     0.090 N 
HETATM   10  C   UNL     1     -39.442 -45.037  12.948  1.00  0.00     0.310 C 
HETATM   11  C   UNL     1     -39.555 -47.081  14.200  1.00  0.00     0.310 C 
ENDBRANCH   8   9
BRANCH   8  12
HETATM   12  C   UNL     1     -41.840 -47.056  11.443  1.00  0.00     0.011 A 
HETATM   13  C   UNL     1     -41.265 -48.174  10.790  1.00  0.00     0.118 A 
HETATM   14  N   UNL     1     -41.826 -48.442   9.612  1.00  0.00    -0.310 N 
HETATM   15  N   UNL     1     -42.784 -47.504   9.503  1.00  0.00    -0.308 N 
ATOM     16  HN  UNL     1     -41.587 -49.181   8.951  1.00  0.00     0.186 HD
HETATM   17  C   UNL     1     -43.628 -47.473   8.335  1.00  0.00     0.177 C 
HETATM   18  C   UNL     1     -42.839 -46.658  10.572  1.00  0.00     0.120 A 
ENDBRANCH   8  12
ENDBRANCH   7   8
ENDBRANCH   4   7
BRANCH   1  19
HETATM   19  C   UNL     1     -44.494 -51.511  14.548  1.00  0.00     0.089 C 
HETATM   20  C   UNL     1     -44.830 -52.706  13.648  1.00  0.00     0.004 C 
HETATM   21  C   UNL     1     -43.852 -52.944  12.506  1.00  0.00     0.012 C 
HETATM   22  C   UNL     1     -46.258 -52.435  13.166  1.00  0.00     0.006 C 
HETATM   23  C   UNL     1     -46.907 -51.563  14.241  1.00  0.00     0.002 C 
HETATM   24  C   UNL     1     -45.819 -51.264  15.273  1.00  0.00     0.026 C 
ENDBRANCH   1  19
TORSDOF 5
ENDMDL
MODEL 9
REMARK VINA RESULT:      -5.0      3.890      7.701
REMARK  5 active torsions:
REMARK  status: ('A' for Active; 'I' for Inactive)
REMARK    1  A    between atoms: C_6  and  N_7 
REMARK       I    between atoms: N_7  and  C_8 
REMARK       I    between atoms: C_8  and  N_10 
REMARK    2  A    between atoms: N_10  and  C_11 
REMARK    3  A    between atoms: C_11  and  C_12 
REMARK    4  A    between atoms: C_12  and  N_13 
REMARK    5  A    between atoms: C_12  and  C_16 
ROOT
HETATM    1  N   UNL     1     -40.223 -49.441  13.576  1.00  0.00    -0.338 N 
HETATM    2  C   UNL     1     -41.244 -50.111  12.955  1.00  0.00     0.316 C 
HETATM    3  O   UNL     1     -41.404 -50.162  11.745  1.00  0.00    -0.247 OA
HETATM    4  N   UNL     1     -42.073 -50.708  13.869  1.00  0.00    -0.341 N 
HETATM    5  H   UNL     1     -40.429 -49.117  14.510  1.00  0.00     0.164 HD
HETATM    6  H   UNL     1     -41.628 -51.034  14.715  1.00  0.00     0.164 HD
ENDROOT
BRANCH   4   7
HETATM    7  C   UNL     1     -43.230 -51.472  13.427  1.00  0.00     0.165 C 
BRANCH   7   8
HETATM    8  C   UNL     1     -43.303 -52.930  13.985  1.00  0.00     0.275 C 
BRANCH   8   9
HETATM    9  N   UNL     1     -44.320 -53.775  13.290  1.00  0.00     0.090 N 
HETATM   10  C   UNL     1     -44.867 -54.862  14.099  1.00  0.00     0.310 C 
HETATM   11  C   UNL     1     -45.410 -52.979  12.714  1.00  0.00     0.310 C 
ENDBRANCH   8   9
BRANCH   8  12
HETATM   12  C   UNL     1     -41.934 -53.571  13.990  1.00  0.00     0.011 A 
HETATM   13  C   UNL     1     -41.101 -53.868  12.883  1.00  0.00     0.118 A 
HETATM   14  N   UNL     1     -39.944 -54.429  13.230  1.00  0.00    -0.310 N 
HETATM   15  N   UNL     1     -40.015 -54.485  14.572  1.00  0.00    -0.308 N 
ATOM     16  HN  UNL     1     -39.186 -54.742  12.624  1.00  0.00     0.186 HD
HETATM   17  C   UNL     1     -38.919 -55.038  15.327  1.00  0.00     0.177 C 
HETATM   18  C   UNL     1     -41.177 -53.978  15.075  1.00  0.00     0.120 A 
ENDBRANCH   8  12
ENDBRANCH   7   8
ENDBRANCH   4   7
BRANCH   1  19
HETATM   19  C   UNL     1     -39.226 -48.712  12.807  1.00  0.00     0.089 C 
HETATM   20  C   UNL     1     -37.788 -49.083  13.189  1.00  0.00     0.004 C 
HETATM   21  C   UNL     1     -37.546 -50.569  13.411  1.00  0.00     0.012 C 
HETATM   22  C   UNL     1     -37.489 -48.235  14.429  1.00  0.00     0.006 C 
HETATM   23  C   UNL     1     -38.391 -47.005  14.325  1.00  0.00     0.002 C 
HETATM   24  C   UNL     1     -39.262 -47.208  13.086  1.00  0.00     0.026 C 
ENDBRANCH   1  19
TORSDOF 5
ENDMDL
