MODEL 1
REMARK VINA RESULT:      -5.6      0.000      0.000
REMARK  5 active torsions:
REMARK  status: ('A' for Active; 'I' for Inactive)
REMARK    1  A    between atoms: N_7  and  C_8 
REMARK    2  A    between atoms: C_8  and  C_9 
REMARK       I    between atoms: C_9  and  N_11 
REMARK    3  A    between atoms: N_11  and  C_12 
REMARK    4  A    between atoms: C_12  and  C_13 
REMARK    5  A    between atoms: C_13  and  C_14 
ROOT
HETATM    1  C   UNL     1     -42.630 -53.641  12.997  1.00  0.00     0.235 C 
HETATM    2  O   UNL     1     -42.926 -54.108  14.098  1.00  0.00    -0.272 OA
HETATM    3  N   UNL     1     -43.578 -53.069  12.156  1.00  0.00    -0.359 N 
HETATM    4  H   UNL     1     -43.283 -52.504  11.364  1.00  0.00     0.162 HD
ENDROOT
BRANCH   1   5
HETATM    5  C   UNL     1     -41.185 -53.649  12.505  1.00  0.00     0.235 C 
BRANCH   5   6
HETATM    6  N   UNL     1     -40.347 -52.635  13.110  1.00  0.00    -0.303 N 
HETATM    7  C   UNL     1     -39.399 -52.839  14.106  1.00  0.00     0.018 A 
HETATM    8  C   UNL     1     -39.195 -54.153  14.788  1.00  0.00     0.069 C 
HETATM    9  C   UNL     1     -38.694 -51.736  14.394  1.00  0.00     0.080 A 
HETATM   10  S   UNL     1     -39.190 -50.372  13.443  1.00  0.00    -0.039 SA
HETATM   11  C   UNL     1     -40.424 -51.339  12.628  1.00  0.00     0.290 A 
HETATM   12  O   UNL     1     -41.191 -50.906  11.787  1.00  0.00    -0.259 OA
ENDBRANCH   5   6
ENDBRANCH   1   5
BRANCH   3  13
HETATM   13  C   UNL     1     -44.973 -53.124  12.569  1.00  0.00     0.127 C 
BRANCH  13  14
HETATM   14  C   UNL     1     -45.719 -51.792  12.740  1.00  0.00     0.053 C 
BRANCH  14  15
HETATM   15  C   UNL     1     -45.835 -51.393  14.215  1.00  0.00    -0.082 A 
HETATM   16  C   UNL     1     -46.973 -51.565  14.907  1.00  0.00    -0.024 A 
HETATM   17  C   UNL     1     -47.167 -51.213  16.346  1.00  0.00     0.027 A 
HETATM   18  C   UNL     1     -45.974 -50.634  17.097  1.00  0.00     0.004 A 
HETATM   19  C   UNL     1     -44.671 -50.423  16.337  1.00  0.00     0.005 A 
HETATM   20  C   UNL     1     -44.611 -50.794  14.853  1.00  0.00     0.034 A 
ENDBRANCH  14  15
ENDBRANCH  13  14
ENDBRANCH   3  13
TORSDOF 5
ENDMDL
MODEL 2
REMARK VINA RESULT:      -5.5      2.107      3.413
REMARK  5 active torsions:
REMARK  status: ('A' for Active; 'I' for Inactive)
REMARK    1  A    between atoms: N_7  and  C_8 
REMARK    2  A    between atoms: C_8  and  C_9 
REMARK       I    between atoms: C_9  and  N_11 
REMARK    3  A    between atoms: N_11  and  C_12 
REMARK    4  A    between atoms: C_12  and  C_13 
REMARK    5  A    between atoms: C_13  and  C_14 
ROOT
HETATM    1  C   UNL     1     -39.675 -53.056  13.900  1.00  0.00     0.235 C 
HETATM    2  O   UNL     1     -39.131 -54.133  13.648  1.00  0.00    -0.272 OA
HETATM    3  N   UNL     1     -41.054 -52.893  13.848  1.00  0.00    -0.359 N 
HETATM    4  H   UNL     1     -41.488 -52.073  14.263  1.00  0.00     0.162 HD
ENDROOT
BRANCH   1   5
HETATM    5  C   UNL     1     -38.850 -51.838  14.306  1.00  0.00     0.235 C 
BRANCH   5   6
HETATM    6  N   UNL     1     -38.658 -50.870  13.247  1.00  0.00    -0.303 N 
HETATM    7  C   UNL     1     -39.391 -49.705  13.055  1.00  0.00     0.018 A 
HETATM    8  C   UNL     1     -40.586 -49.344  13.875  1.00  0.00     0.069 C 
HETATM    9  C   UNL     1     -38.918 -48.945  12.057  1.00  0.00     0.080 A 
HETATM   10  S   UNL     1     -37.535 -49.656  11.288  1.00  0.00    -0.039 SA
HETATM   11  C   UNL     1     -37.611 -51.060  12.359  1.00  0.00     0.290 A 
HETATM   12  O   UNL     1     -36.852 -52.010  12.302  1.00  0.00    -0.259 OA
ENDBRANCH   5   6
ENDBRANCH   1   5
BRANCH   3  13
HETATM   13  C   UNL     1     -41.853 -54.019  13.383  1.00  0.00     0.127 C 
BRANCH  13  14
HETATM   14  C   UNL     1     -43.099 -54.393  14.200  1.00  0.00     0.053 C 
BRANCH  14  15
HETATM   15  C   UNL     1     -44.246 -53.404  13.969  1.00  0.00    -0.082 A 
HETATM   16  C   UNL     1     -44.920 -53.362  12.809  1.00  0.00    -0.024 A 
HETATM   17  C   UNL     1     -46.055 -52.437  12.505  1.00  0.00     0.027 A 
HETATM   18  C   UNL     1     -46.497 -51.480  13.606  1.00  0.00     0.004 A 
HETATM   19  C   UNL     1     -45.747 -51.502  14.931  1.00  0.00     0.005 A 
HETATM   20  C   UNL     1     -44.579 -52.475  15.105  1.00  0.00     0.034 A 
ENDBRANCH  14  15
ENDBRANCH  13  14
ENDBRANCH   3  13
TORSDOF 5
ENDMDL
MODEL 3
REMARK VINA RESULT:      -5.3      2.147      3.594
REMARK  5 active torsions:
REMARK  status: ('A' for Active; 'I' for Inactive)
REMARK    1  A    between atoms: N_7  and  C_8 
REMARK    2  A    between atoms: C_8  and  C_9 
REMARK       I    between atoms: C_9  and  N_11 
REMARK    3  A    between atoms: N_11  and  C_12 
REMARK    4  A    between atoms: C_12  and  C_13 
REMARK    5  A    between atoms: C_13  and  C_14 
ROOT
HETATM    1  C   UNL     1     -40.959 -52.312  13.243  1.00  0.00     0.235 C 
HETATM    2  O   UNL     1     -40.467 -52.932  12.299  1.00  0.00    -0.272 OA
HETATM    3  N   UNL     1     -41.839 -52.906  14.141  1.00  0.00    -0.359 N 
HETATM    4  H   UNL     1     -42.057 -52.447  15.022  1.00  0.00     0.162 HD
ENDROOT
BRANCH   1   5
HETATM    5  C   UNL     1     -40.605 -50.848  13.488  1.00  0.00     0.235 C 
BRANCH   5   6
HETATM    6  N   UNL     1     -41.287 -49.918  12.613  1.00  0.00    -0.303 N 
HETATM    7  C   UNL     1     -42.538 -49.352  12.828  1.00  0.00     0.018 A 
HETATM    8  C   UNL     1     -43.423 -49.729  13.971  1.00  0.00     0.069 C 
HETATM    9  C   UNL     1     -42.868 -48.440  11.903  1.00  0.00     0.080 A 
HETATM   10  S   UNL     1     -41.635 -48.250  10.698  1.00  0.00    -0.039 SA
HETATM   11  C   UNL     1     -40.630 -49.479  11.474  1.00  0.00     0.290 A 
HETATM   12  O   UNL     1     -39.548 -49.847  11.056  1.00  0.00    -0.259 OA
ENDBRANCH   5   6
ENDBRANCH   1   5
BRANCH   3  13
HETATM   13  C   UNL     1     -42.253 -54.277  13.878  1.00  0.00     0.127 C 
BRANCH  13  14
HETATM   14  C   UNL     1     -43.646 -54.705  14.363  1.00  0.00     0.053 C 
BRANCH  14  15
HETATM   15  C   UNL     1     -44.688 -53.604  14.135  1.00  0.00    -0.082 A 
HETATM   16  C   UNL     1     -45.108 -53.272  12.904  1.00  0.00    -0.024 A 
HETATM   17  C   UNL     1     -46.124 -52.221  12.596  1.00  0.00     0.027 A 
HETATM   18  C   UNL     1     -46.751 -51.480  13.771  1.00  0.00     0.004 A 
HETATM   19  C   UNL     1     -46.290 -51.832  15.179  1.00  0.00     0.005 A 
HETATM   20  C   UNL     1     -45.216 -52.907  15.360  1.00  0.00     0.034 A 
ENDBRANCH  14  15
ENDBRANCH  13  14
ENDBRANCH   3  13
TORSDOF 5
ENDMDL
MODEL 4
REMARK VINA RESULT:      -5.3      2.224      2.973
REMARK  5 active torsions:
REMARK  status: ('A' for Active; 'I' for Inactive)
REMARK    1  A    between atoms: N_7  and  C_8 
REMARK    2  A    between atoms: C_8  and  C_9 
REMARK       I    between atoms: C_9  and  N_11 
REMARK    3  A    between atoms: N_11  and  C_12 
REMARK    4  A    between atoms: C_12  and  C_13 
REMARK    5  A    between atoms: C_13  and  C_14 
ROOT
HETATM    1  C   UNL     1     -41.036 -51.668  11.964  1.00  0.00     0.235 C 
HETATM    2  O   UNL     1     -40.259 -52.605  12.156  1.00  0.00    -0.272 OA
HETATM    3  N   UNL     1     -42.404 -51.784  12.180  1.00  0.00    -0.359 N 
HETATM    4  H   UNL     1     -42.986 -50.951  12.224  1.00  0.00     0.162 HD
ENDROOT
BRANCH   1   5
HETATM    5  C   UNL     1     -40.522 -50.310  11.494  1.00  0.00     0.235 C 
BRANCH   5   6
HETATM    6  N   UNL     1     -39.768 -49.582  12.493  1.00  0.00    -0.303 N 
HETATM    7  C   UNL     1     -38.390 -49.408  12.518  1.00  0.00     0.018 A 
HETATM    8  C   UNL     1     -37.462 -50.068  11.549  1.00  0.00     0.069 C 
HETATM    9  C   UNL     1     -37.980 -48.595  13.501  1.00  0.00     0.080 A 
HETATM   10  S   UNL     1     -39.300 -48.012  14.464  1.00  0.00    -0.039 SA
HETATM   11  C   UNL     1     -40.462 -48.929  13.499  1.00  0.00     0.290 A 
HETATM   12  O   UNL     1     -41.661 -48.953  13.708  1.00  0.00    -0.259 OA
ENDBRANCH   5   6
ENDBRANCH   1   5
BRANCH   3  13
HETATM   13  C   UNL     1     -42.924 -53.093  12.549  1.00  0.00     0.127 C 
BRANCH  13  14
HETATM   14  C   UNL     1     -44.416 -53.361  12.302  1.00  0.00     0.053 C 
BRANCH  14  15
HETATM   15  C   UNL     1     -45.275 -52.924  13.494  1.00  0.00    -0.082 A 
HETATM   16  C   UNL     1     -45.998 -51.794  13.467  1.00  0.00    -0.024 A 
HETATM   17  C   UNL     1     -46.867 -51.301  14.579  1.00  0.00     0.027 A 
HETATM   18  C   UNL     1     -46.958 -52.160  15.835  1.00  0.00     0.004 A 
HETATM   19  C   UNL     1     -46.143 -53.445  15.896  1.00  0.00     0.005 A 
HETATM   20  C   UNL     1     -45.265 -53.822  14.701  1.00  0.00     0.034 A 
ENDBRANCH  14  15
ENDBRANCH  13  14
ENDBRANCH   3  13
TORSDOF 5
ENDMDL
MODEL 5
REMARK VINA RESULT:      -5.2      1.672      2.672
REMARK  5 active torsions:
REMARK  status: ('A' for Active; 'I' for Inactive)
REMARK    1  A    between atoms: N_7  and  C_8 
REMARK    2  A    between atoms: C_8  and  C_9 
REMARK       I    between atoms: C_9  and  N_11 
REMARK    3  A    between atoms: N_11  and  C_12 
REMARK    4  A    between atoms: C_12  and  C_13 
REMARK    5  A    between atoms: C_13  and  C_14 
ROOT
HETATM    1  C   UNL     1     -42.070 -52.097  12.664  1.00  0.00     0.235 C 
HETATM    2  O   UNL     1     -42.012 -51.810  13.862  1.00  0.00    -0.272 OA
HETATM    3  N   UNL     1     -43.234 -52.575  12.073  1.00  0.00    -0.359 N 
HETATM    4  H   UNL     1     -43.320 -52.597  11.060  1.00  0.00     0.162 HD
ENDROOT
BRANCH   1   5
HETATM    5  C   UNL     1     -40.856 -51.919  11.757  1.00  0.00     0.235 C 
BRANCH   5   6
HETATM    6  N   UNL     1     -39.969 -50.846  12.156  1.00  0.00    -0.303 N 
HETATM    7  C   UNL     1     -40.131 -49.496  11.869  1.00  0.00     0.018 A 
HETATM    8  C   UNL     1     -41.215 -48.969  10.985  1.00  0.00     0.069 C 
HETATM    9  C   UNL     1     -39.213 -48.719  12.461  1.00  0.00     0.080 A 
HETATM   10  S   UNL     1     -38.082 -49.639  13.400  1.00  0.00    -0.039 SA
HETATM   11  C   UNL     1     -38.880 -51.151  12.956  1.00  0.00     0.290 A 
HETATM   12  O   UNL     1     -38.511 -52.255  13.314  1.00  0.00    -0.259 OA
ENDBRANCH   5   6
ENDBRANCH   1   5
BRANCH   3  13
HETATM   13  C   UNL     1     -44.378 -52.830  12.937  1.00  0.00     0.127 C 
BRANCH  13  14
HETATM   14  C   UNL     1     -45.455 -51.738  13.033  1.00  0.00     0.053 C 
BRANCH  14  15
HETATM   15  C   UNL     1     -45.749 -51.360  14.489  1.00  0.00    -0.082 A 
HETATM   16  C   UNL     1     -44.833 -50.752  15.260  1.00  0.00    -0.024 A 
HETATM   17  C   UNL     1     -45.041 -50.341  16.682  1.00  0.00     0.027 A 
HETATM   18  C   UNL     1     -46.406 -50.615  17.302  1.00  0.00     0.004 A 
HETATM   19  C   UNL     1     -47.463 -51.309  16.453  1.00  0.00     0.005 A 
HETATM   20  C   UNL     1     -47.114 -51.709  15.018  1.00  0.00     0.034 A 
ENDBRANCH  14  15
ENDBRANCH  13  14
ENDBRANCH   3  13
TORSDOF 5
ENDMDL
MODEL 6
REMARK VINA RESULT:      -5.2      2.603      6.628
REMARK  5 active torsions:
REMARK  status: ('A' for Active; 'I' for Inactive)
REMARK    1  A    between atoms: N_7  and  C_8 
REMARK    2  A    between atoms: C_8  and  C_9 
REMARK       I    between atoms: C_9  and  N_11 
REMARK    3  A    between atoms: N_11  and  C_12 
REMARK    4  A    between atoms: C_12  and  C_13 
REMARK    5  A    between atoms: C_13  and  C_14 
ROOT
HETATM    1  C   UNL     1     -43.342 -53.607  12.977  1.00  0.00     0.235 C 
HETATM    2  O   UNL     1     -43.106 -52.758  12.116  1.00  0.00    -0.272 OA
HETATM    3  N   UNL     1     -42.339 -54.167  13.759  1.00  0.00    -0.359 N 
HETATM    4  H   UNL     1     -42.578 -54.693  14.596  1.00  0.00     0.162 HD
ENDROOT
BRANCH   1   5
HETATM    5  C   UNL     1     -44.770 -54.074  13.245  1.00  0.00     0.235 C 
BRANCH   5   6
HETATM    6  N   UNL     1     -45.469 -53.301  14.250  1.00  0.00    -0.303 N 
HETATM    7  C   UNL     1     -46.310 -52.220  14.017  1.00  0.00     0.018 A 
HETATM    8  C   UNL     1     -46.519 -51.620  12.664  1.00  0.00     0.069 C 
HETATM    9  C   UNL     1     -46.907 -51.769  15.129  1.00  0.00     0.080 A 
HETATM   10  S   UNL     1     -46.435 -52.665  16.537  1.00  0.00    -0.039 SA
HETATM   11  C   UNL     1     -45.364 -53.690  15.575  1.00  0.00     0.290 A 
HETATM   12  O   UNL     1     -44.671 -54.580  16.033  1.00  0.00    -0.259 OA
ENDBRANCH   5   6
ENDBRANCH   1   5
BRANCH   3  13
HETATM   13  C   UNL     1     -40.962 -53.797  13.465  1.00  0.00     0.127 C 
BRANCH  13  14
HETATM   14  C   UNL     1     -40.343 -52.650  14.280  1.00  0.00     0.053 C 
BRANCH  14  15
HETATM   15  C   UNL     1     -39.511 -51.713  13.397  1.00  0.00    -0.082 A 
HETATM   16  C   UNL     1     -38.170 -51.692  13.456  1.00  0.00    -0.024 A 
HETATM   17  C   UNL     1     -37.286 -50.819  12.626  1.00  0.00     0.027 A 
HETATM   18  C   UNL     1     -37.956 -49.894  11.616  1.00  0.00     0.004 A 
HETATM   19  C   UNL     1     -39.476 -49.893  11.531  1.00  0.00     0.005 A 
HETATM   20  C   UNL     1     -40.271 -50.812  12.461  1.00  0.00     0.034 A 
ENDBRANCH  14  15
ENDBRANCH  13  14
ENDBRANCH   3  13
TORSDOF 5
ENDMDL
MODEL 7
REMARK VINA RESULT:      -5.1      1.892      2.994
REMARK  5 active torsions:
REMARK  status: ('A' for Active; 'I' for Inactive)
REMARK    1  A    between atoms: N_7  and  C_8 
REMARK    2  A    between atoms: C_8  and  C_9 
REMARK       I    between atoms: C_9  and  N_11 
REMARK    3  A    between atoms: N_11  and  C_12 
REMARK    4  A    between atoms: C_12  and  C_13 
REMARK    5  A    between atoms: C_13  and  C_14 
ROOT
HETATM    1  C   UNL     1     -41.772 -52.638  13.204  1.00  0.00     0.235 C 
HETATM    2  O   UNL     1     -42.341 -51.824  13.933  1.00  0.00    -0.272 OA
HETATM    3  N   UNL     1     -41.944 -54.009  13.349  1.00  0.00    -0.359 N 
HETATM    4  H   UNL     1     -41.644 -54.643  12.612  1.00  0.00     0.162 HD
ENDROOT
BRANCH   1   5
HETATM    5  C   UNL     1     -40.856 -52.172  12.076  1.00  0.00     0.235 C 
BRANCH   5   6
HETATM    6  N   UNL     1     -39.930 -51.126  12.457  1.00  0.00    -0.303 N 
HETATM    7  C   UNL     1     -40.066 -49.769  12.188  1.00  0.00     0.018 A 
HETATM    8  C   UNL     1     -41.163 -49.207  11.344  1.00  0.00     0.069 C 
HETATM    9  C   UNL     1     -39.111 -49.022  12.759  1.00  0.00     0.080 A 
HETATM   10  S   UNL     1     -37.975 -49.979  13.653  1.00  0.00    -0.039 SA
HETATM   11  C   UNL     1     -38.824 -51.467  13.219  1.00  0.00     0.290 A 
HETATM   12  O   UNL     1     -38.473 -52.582  13.556  1.00  0.00    -0.259 OA
ENDBRANCH   5   6
ENDBRANCH   1   5
BRANCH   3  13
HETATM   13  C   UNL     1     -42.748 -54.477  14.469  1.00  0.00     0.127 C 
BRANCH  13  14
HETATM   14  C   UNL     1     -44.201 -54.888  14.181  1.00  0.00     0.053 C 
BRANCH  14  15
HETATM   15  C   UNL     1     -45.156 -53.693  14.276  1.00  0.00    -0.082 A 
HETATM   16  C   UNL     1     -45.650 -53.274  15.451  1.00  0.00    -0.024 A 
HETATM   17  C   UNL     1     -46.576 -52.115  15.632  1.00  0.00     0.027 A 
HETATM   18  C   UNL     1     -46.976 -51.332  14.387  1.00  0.00     0.004 A 
HETATM   19  C   UNL     1     -46.436 -51.788  13.038  1.00  0.00     0.005 A 
HETATM   20  C   UNL     1     -45.520 -53.012  12.984  1.00  0.00     0.034 A 
ENDBRANCH  14  15
ENDBRANCH  13  14
ENDBRANCH   3  13
TORSDOF 5
ENDMDL
MODEL 8
REMARK VINA RESULT:      -5.1      2.876      6.643
REMARK  5 active torsions:
REMARK  status: ('A' for Active; 'I' for Inactive)
REMARK    1  A    between atoms: N_7  and  C_8 
REMARK    2  A    between atoms: C_8  and  C_9 
REMARK       I    between atoms: C_9  and  N_11 
REMARK    3  A    between atoms: N_11  and  C_12 
REMARK    4  A    between atoms: C_12  and  C_13 
REMARK    5  A    between atoms: C_13  and  C_14 
ROOT
HETATM    1  C   UNL     1     -44.226 -50.600  13.434  1.00  0.00     0.235 C 
HETATM    2  O   UNL     1     -43.831 -50.526  14.599  1.00  0.00    -0.272 OA
HETATM    3  N   UNL     1     -43.503 -50.070  12.372  1.00  0.00    -0.359 N 
HETATM    4  H   UNL     1     -43.736 -50.329  11.416  1.00  0.00     0.162 HD
ENDROOT
BRANCH   1   5
HETATM    5  C   UNL     1     -45.537 -51.305  13.095  1.00  0.00     0.235 C 
BRANCH   5   6
HETATM    6  N   UNL     1     -45.679 -52.614  13.696  1.00  0.00    -0.303 N 
HETATM    7  C   UNL     1     -46.432 -52.924  14.823  1.00  0.00     0.018 A 
HETATM    8  C   UNL     1     -47.121 -51.894  15.657  1.00  0.00     0.069 C 
HETATM    9  C   UNL     1     -46.468 -54.238  15.085  1.00  0.00     0.080 A 
HETATM   10  S   UNL     1     -45.546 -55.162  13.943  1.00  0.00    -0.039 SA
HETATM   11  C   UNL     1     -45.074 -53.696  13.077  1.00  0.00     0.290 A 
HETATM   12  O   UNL     1     -44.344 -53.678  12.102  1.00  0.00    -0.259 OA
ENDBRANCH   5   6
ENDBRANCH   1   5
BRANCH   3  13
HETATM   13  C   UNL     1     -42.293 -49.322  12.681  1.00  0.00     0.127 C 
BRANCH  13  14
HETATM   14  C   UNL     1     -41.228 -49.203  11.580  1.00  0.00     0.053 C 
BRANCH  14  15
HETATM   15  C   UNL     1     -39.903 -49.847  12.002  1.00  0.00    -0.082 A 
HETATM   16  C   UNL     1     -38.743 -49.537  11.401  1.00  0.00    -0.024 A 
HETATM   17  C   UNL     1     -37.409 -50.110  11.757  1.00  0.00     0.027 A 
HETATM   18  C   UNL     1     -37.356 -51.110  12.906  1.00  0.00     0.004 A 
HETATM   19  C   UNL     1     -38.657 -51.486  13.602  1.00  0.00     0.005 A 
HETATM   20  C   UNL     1     -39.964 -50.852  13.120  1.00  0.00     0.034 A 
ENDBRANCH  14  15
ENDBRANCH  13  14
ENDBRANCH   3  13
TORSDOF 5
ENDMDL
MODEL 9
REMARK VINA RESULT:      -5.0      2.402      3.095
REMARK  5 active torsions:
REMARK  status: ('A' for Active; 'I' for Inactive)
REMARK    1  A    between atoms: N_7  and  C_8 
REMARK    2  A    between atoms: C_8  and  C_9 
REMARK       I    between atoms: C_9  and  N_11 
REMARK    3  A    between atoms: N_11  and  C_12 
REMARK    4  A    between atoms: C_12  and  C_13 
REMARK    5  A    between atoms: C_13  and  C_14 
ROOT
HETATM    1  C   UNL     1     -44.780 -54.471  13.995  1.00  0.00     0.235 C 
HETATM    2  O   UNL     1     -44.935 -54.329  12.780  1.00  0.00    -0.272 OA
HETATM    3  N   UNL     1     -45.732 -54.051  14.917  1.00  0.00    -0.359 N 
HETATM    4  H   UNL     1     -45.683 -54.369  15.881  1.00  0.00     0.162 HD
ENDROOT
BRANCH   1   5
HETATM    5  C   UNL     1     -43.528 -55.144  14.551  1.00  0.00     0.235 C 
BRANCH   5   6
HETATM    6  N   UNL     1     -42.513 -54.221  15.012  1.00  0.00    -0.303 N 
HETATM    7  C   UNL     1     -41.444 -53.736  14.269  1.00  0.00     0.018 A 
HETATM    8  C   UNL     1     -41.124 -54.208  12.888  1.00  0.00     0.069 C 
HETATM    9  C   UNL     1     -40.728 -52.809  14.921  1.00  0.00     0.080 A 
HETATM   10  S   UNL     1     -41.345 -52.502  16.513  1.00  0.00    -0.039 SA
HETATM   11  C   UNL     1     -42.625 -53.700  16.292  1.00  0.00     0.290 A 
HETATM   12  O   UNL     1     -43.450 -53.989  17.139  1.00  0.00    -0.259 OA
ENDBRANCH   5   6
ENDBRANCH   1   5
BRANCH   3  13
HETATM   13  C   UNL     1     -46.894 -53.334  14.413  1.00  0.00     0.127 C 
BRANCH  13  14
HETATM   14  C   UNL     1     -46.829 -51.799  14.388  1.00  0.00     0.053 C 
BRANCH  14  15
HETATM   15  C   UNL     1     -46.805 -51.211  15.804  1.00  0.00    -0.082 A 
HETATM   16  C   UNL     1     -47.895 -51.208  16.587  1.00  0.00    -0.024 A 
HETATM   17  C   UNL     1     -47.955 -50.666  17.978  1.00  0.00     0.027 A 
HETATM   18  C   UNL     1     -46.672 -50.089  18.565  1.00  0.00     0.004 A 
HETATM   19  C   UNL     1     -45.420 -50.073  17.697  1.00  0.00     0.005 A 
HETATM   20  C   UNL     1     -45.499 -50.630  16.274  1.00  0.00     0.034 A 
ENDBRANCH  14  15
ENDBRANCH  13  14
ENDBRANCH   3  13
TORSDOF 5
ENDMDL
