MODEL 1
REMARK VINA RESULT:      -5.5      0.000      0.000
REMARK  4 active torsions:
REMARK  status: ('A' for Active; 'I' for Inactive)
REMARK    1  A    between atoms: C_2  and  C_4 
REMARK    2  A    between atoms: C_2  and  N_15 
REMARK    3  A    between atoms: C_4  and  N_5 
REMARK       I    between atoms: N_5  and  C_6 
REMARK       I    between atoms: C_6  and  N_8 
REMARK    4  A    between atoms: N_8  and  C_9 
ROOT
HETATM    1  N   UNL     1     -41.557 -51.171  11.435  1.00  0.00    -0.340 N 
HETATM    2  C   UNL     1     -41.083 -49.875  11.556  1.00  0.00     0.322 C 
HETATM    3  O   UNL     1     -40.171 -49.596  12.322  1.00  0.00    -0.247 OA
HETATM    4  N   UNL     1     -41.811 -49.015  10.777  1.00  0.00    -0.289 N 
HETATM    5  H   UNL     1     -41.818 -51.460  10.500  1.00  0.00     0.164 HD
HETATM    6  H   UNL     1     -42.730 -49.296  10.478  1.00  0.00     0.172 HD
ENDROOT
BRANCH   1   7
HETATM    7  C   UNL     1     -40.969 -52.214  12.256  1.00  0.00     0.165 C 
BRANCH   7   8
HETATM    8  C   UNL     1     -41.932 -52.710  13.383  1.00  0.00     0.168 C 
HETATM    9  C   UNL     1     -41.639 -54.207  13.597  1.00  0.00     0.050 C 
HETATM   10  C   UNL     1     -41.489 -51.980  14.683  1.00  0.00     0.050 C 
BRANCH   8  11
HETATM   11  N   UNL     1     -43.352 -52.354  13.077  1.00  0.00     0.103 N 
HETATM   12  C   UNL     1     -44.150 -51.751  14.167  1.00  0.00     0.299 C 
HETATM   13  C   UNL     1     -44.833 -52.759  15.107  1.00  0.00     0.198 C 
HETATM   14  O   UNL     1     -45.665 -53.667  14.379  1.00  0.00    -0.388 OA
HETATM   15  C   UNL     1     -44.913 -54.361  13.379  1.00  0.00     0.198 C 
HETATM   16  C   UNL     1     -44.196 -53.386  12.426  1.00  0.00     0.299 C 
ENDBRANCH   8  11
ENDBRANCH   7   8
ENDBRANCH   1   7
BRANCH   4  17
HETATM   17  C   UNL     1     -41.500 -47.688  10.706  1.00  0.00     0.152 A 
HETATM   18  N   UNL     1     -40.325 -47.117  10.667  1.00  0.00    -0.346 N 
HETATM   19  C   UNL     1     -40.479 -45.747  10.617  1.00  0.00     0.097 A 
ATOM     20  HN  UNL     1     -39.432 -47.609  10.671  1.00  0.00     0.167 HD
HETATM   21  C   UNL     1     -41.782 -45.301  10.599  1.00  0.00     0.070 A 
HETATM   22  S   UNL     1     -42.852 -46.645  10.636  1.00  0.00    -0.064 SA
ENDBRANCH   4  17
TORSDOF 4
ENDMDL
MODEL 2
REMARK VINA RESULT:      -5.4      2.801      3.518
REMARK  4 active torsions:
REMARK  status: ('A' for Active; 'I' for Inactive)
REMARK    1  A    between atoms: C_2  and  C_4 
REMARK    2  A    between atoms: C_2  and  N_15 
REMARK    3  A    between atoms: C_4  and  N_5 
REMARK       I    between atoms: N_5  and  C_6 
REMARK       I    between atoms: C_6  and  N_8 
REMARK    4  A    between atoms: N_8  and  C_9 
ROOT
HETATM    1  N   UNL     1     -42.457 -53.154  12.215  1.00  0.00    -0.340 N 
HETATM    2  C   UNL     1     -41.824 -51.924  12.270  1.00  0.00     0.322 C 
HETATM    3  O   UNL     1     -42.445 -50.895  12.499  1.00  0.00    -0.247 OA
HETATM    4  N   UNL     1     -40.492 -52.047  11.973  1.00  0.00    -0.289 N 
HETATM    5  H   UNL     1     -41.939 -53.935  12.602  1.00  0.00     0.164 HD
HETATM    6  H   UNL     1     -40.184 -52.861  11.470  1.00  0.00     0.172 HD
ENDROOT
BRANCH   1   7
HETATM    7  C   UNL     1     -43.894 -53.215  12.413  1.00  0.00     0.165 C 
BRANCH   7   8
HETATM    8  C   UNL     1     -44.285 -53.663  13.859  1.00  0.00     0.168 C 
HETATM    9  C   UNL     1     -45.493 -54.610  13.724  1.00  0.00     0.050 C 
HETATM   10  C   UNL     1     -43.100 -54.525  14.381  1.00  0.00     0.050 C 
BRANCH   8  11
HETATM   11  N   UNL     1     -44.471 -52.483  14.760  1.00  0.00     0.103 N 
HETATM   12  C   UNL     1     -44.945 -52.748  16.135  1.00  0.00     0.299 C 
HETATM   13  C   UNL     1     -46.473 -52.833  16.292  1.00  0.00     0.198 C 
HETATM   14  O   UNL     1     -47.111 -51.648  15.808  1.00  0.00    -0.388 OA
HETATM   15  C   UNL     1     -46.771 -51.405  14.439  1.00  0.00     0.198 C 
HETATM   16  C   UNL     1     -45.246 -51.332  14.236  1.00  0.00     0.299 C 
ENDBRANCH   8  11
ENDBRANCH   7   8
ENDBRANCH   1   7
BRANCH   4  17
HETATM   17  C   UNL     1     -39.658 -50.967  12.002  1.00  0.00     0.152 A 
HETATM   18  N   UNL     1     -39.576 -49.965  11.167  1.00  0.00    -0.346 N 
HETATM   19  C   UNL     1     -38.576 -49.106  11.573  1.00  0.00     0.097 A 
ATOM     20  HN  UNL     1     -40.161 -49.838  10.342  1.00  0.00     0.167 HD
HETATM   21  C   UNL     1     -37.926 -49.465  12.733  1.00  0.00     0.070 A 
HETATM   22  S   UNL     1     -38.597 -50.926  13.341  1.00  0.00    -0.064 SA
ENDBRANCH   4  17
TORSDOF 4
ENDMDL
MODEL 3
REMARK VINA RESULT:      -5.4      1.200      1.807
REMARK  4 active torsions:
REMARK  status: ('A' for Active; 'I' for Inactive)
REMARK    1  A    between atoms: C_2  and  C_4 
REMARK    2  A    between atoms: C_2  and  N_15 
REMARK    3  A    between atoms: C_4  and  N_5 
REMARK       I    between atoms: N_5  and  C_6 
REMARK       I    between atoms: C_6  and  N_8 
REMARK    4  A    between atoms: N_8  and  C_9 
ROOT
HETATM    1  N   UNL     1     -42.252 -51.403  12.091  1.00  0.00    -0.340 N 
HETATM    2  C   UNL     1     -41.755 -50.113  12.160  1.00  0.00     0.322 C 
HETATM    3  O   UNL     1     -41.164 -49.708  13.152  1.00  0.00    -0.247 OA
HETATM    4  N   UNL     1     -42.081 -49.403  11.035  1.00  0.00    -0.289 N 
HETATM    5  H   UNL     1     -42.178 -51.857  11.188  1.00  0.00     0.164 HD
HETATM    6  H   UNL     1     -42.848 -49.724  10.469  1.00  0.00     0.172 HD
ENDROOT
BRANCH   1   7
HETATM    7  C   UNL     1     -42.085 -52.284  13.233  1.00  0.00     0.165 C 
BRANCH   7   8
HETATM    8  C   UNL     1     -43.417 -52.992  13.649  1.00  0.00     0.168 C 
HETATM    9  C   UNL     1     -44.200 -53.270  12.352  1.00  0.00     0.050 C 
HETATM   10  C   UNL     1     -43.007 -54.377  14.227  1.00  0.00     0.050 C 
BRANCH   8  11
HETATM   11  N   UNL     1     -44.139 -52.212  14.701  1.00  0.00     0.103 N 
HETATM   12  C   UNL     1     -44.890 -52.980  15.718  1.00  0.00     0.299 C 
HETATM   13  C   UNL     1     -46.327 -53.356  15.318  1.00  0.00     0.198 C 
HETATM   14  O   UNL     1     -47.088 -52.198  14.964  1.00  0.00    -0.388 OA
HETATM   15  C   UNL     1     -46.457 -51.475  13.902  1.00  0.00     0.198 C 
HETATM   16  C   UNL     1     -45.007 -51.095  14.255  1.00  0.00     0.299 C 
ENDBRANCH   8  11
ENDBRANCH   7   8
ENDBRANCH   1   7
BRANCH   4  17
HETATM   17  C   UNL     1     -41.663 -48.116  10.865  1.00  0.00     0.152 A 
HETATM   18  N   UNL     1     -40.455 -47.623  10.946  1.00  0.00    -0.346 N 
HETATM   19  C   UNL     1     -40.495 -46.262  10.718  1.00  0.00     0.097 A 
ATOM     20  HN  UNL     1     -39.612 -48.161  11.146  1.00  0.00     0.167 HD
HETATM   21  C   UNL     1     -41.743 -45.747  10.445  1.00  0.00     0.070 A 
HETATM   22  S   UNL     1     -42.906 -47.013  10.465  1.00  0.00    -0.064 SA
ENDBRANCH   4  17
TORSDOF 4
ENDMDL
MODEL 4
REMARK VINA RESULT:      -5.4      3.029      3.840
REMARK  4 active torsions:
REMARK  status: ('A' for Active; 'I' for Inactive)
REMARK    1  A    between atoms: C_2  and  C_4 
REMARK    2  A    between atoms: C_2  and  N_15 
REMARK    3  A    between atoms: C_4  and  N_5 
REMARK       I    between atoms: N_5  and  C_6 
REMARK       I    between atoms: C_6  and  N_8 
REMARK    4  A    between atoms: N_8  and  C_9 
ROOT
HETATM    1  N   UNL     1     -43.187 -51.502  12.542  1.00  0.00    -0.340 N 
HETATM    2  C   UNL     1     -41.847 -51.679  12.241  1.00  0.00     0.322 C 
HETATM    3  O   UNL     1     -41.409 -52.766  11.890  1.00  0.00    -0.247 OA
HETATM    4  N   UNL     1     -41.141 -50.526  12.460  1.00  0.00    -0.289 N 
HETATM    5  H   UNL     1     -43.591 -50.619  12.253  1.00  0.00     0.164 HD
HETATM    6  H   UNL     1     -41.535 -49.828  13.068  1.00  0.00     0.172 HD
ENDROOT
BRANCH   1   7
HETATM    7  C   UNL     1     -44.083 -52.641  12.458  1.00  0.00     0.165 C 
BRANCH   7   8
HETATM    8  C   UNL     1     -45.399 -52.434  13.277  1.00  0.00     0.168 C 
HETATM    9  C   UNL     1     -45.190 -51.185  14.153  1.00  0.00     0.050 C 
HETATM   10  C   UNL     1     -46.501 -52.070  12.240  1.00  0.00     0.050 C 
BRANCH   8  11
HETATM   11  N   UNL     1     -45.792 -53.685  13.996  1.00  0.00     0.103 N 
HETATM   12  C   UNL     1     -46.098 -53.570  15.438  1.00  0.00     0.299 C 
HETATM   13  C   UNL     1     -44.880 -53.675  16.372  1.00  0.00     0.198 C 
HETATM   14  O   UNL     1     -44.160 -54.891  16.152  1.00  0.00    -0.388 OA
HETATM   15  C   UNL     1     -43.743 -55.000  14.787  1.00  0.00     0.198 C 
HETATM   16  C   UNL     1     -44.932 -54.881  13.817  1.00  0.00     0.299 C 
ENDBRANCH   8  11
ENDBRANCH   7   8
ENDBRANCH   1   7
BRANCH   4  17
HETATM   17  C   UNL     1     -39.804 -50.453  12.196  1.00  0.00     0.152 A 
HETATM   18  N   UNL     1     -39.197 -49.993  11.133  1.00  0.00    -0.346 N 
HETATM   19  C   UNL     1     -37.833 -50.131  11.285  1.00  0.00     0.097 A 
ATOM     20  HN  UNL     1     -39.661 -49.592  10.318  1.00  0.00     0.167 HD
HETATM   21  C   UNL     1     -37.425 -50.679  12.480  1.00  0.00     0.070 A 
HETATM   22  S   UNL     1     -38.799 -51.027  13.453  1.00  0.00    -0.064 SA
ENDBRANCH   4  17
TORSDOF 4
ENDMDL
MODEL 5
REMARK VINA RESULT:      -5.3      1.879      2.913
REMARK  4 active torsions:
REMARK  status: ('A' for Active; 'I' for Inactive)
REMARK    1  A    between atoms: C_2  and  C_4 
REMARK    2  A    between atoms: C_2  and  N_15 
REMARK    3  A    between atoms: C_4  and  N_5 
REMARK       I    between atoms: N_5  and  C_6 
REMARK       I    between atoms: C_6  and  N_8 
REMARK    4  A    between atoms: N_8  and  C_9 
ROOT
HETATM    1  N   UNL     1     -44.216 -50.507  12.720  1.00  0.00    -0.340 N 
HETATM    2  C   UNL     1     -43.193 -49.575  12.754  1.00  0.00     0.322 C 
HETATM    3  O   UNL     1     -42.556 -49.362  13.776  1.00  0.00    -0.247 OA
HETATM    4  N   UNL     1     -43.078 -48.933  11.550  1.00  0.00    -0.289 N 
HETATM    5  H   UNL     1     -44.293 -51.049  11.868  1.00  0.00     0.164 HD
HETATM    6  H   UNL     1     -43.863 -48.943  10.921  1.00  0.00     0.172 HD
ENDROOT
BRANCH   1   7
HETATM    7  C   UNL     1     -44.552 -51.228  13.935  1.00  0.00     0.165 C 
BRANCH   7   8
HETATM    8  C   UNL     1     -45.909 -51.996  13.825  1.00  0.00     0.168 C 
HETATM    9  C   UNL     1     -46.828 -51.443  14.930  1.00  0.00     0.050 C 
HETATM   10  C   UNL     1     -46.539 -51.570  12.467  1.00  0.00     0.050 C 
BRANCH   8  11
HETATM   11  N   UNL     1     -45.695 -53.477  13.826  1.00  0.00     0.103 N 
HETATM   12  C   UNL     1     -45.648 -54.153  15.140  1.00  0.00     0.299 C 
HETATM   13  C   UNL     1     -44.265 -54.172  15.813  1.00  0.00     0.198 C 
HETATM   14  O   UNL     1     -43.279 -54.760  14.959  1.00  0.00    -0.388 OA
HETATM   15  C   UNL     1     -43.207 -54.069  13.708  1.00  0.00     0.198 C 
HETATM   16  C   UNL     1     -44.578 -54.012  13.009  1.00  0.00     0.299 C 
ENDBRANCH   8  11
ENDBRANCH   7   8
ENDBRANCH   1   7
BRANCH   4  17
HETATM   17  C   UNL     1     -42.108 -47.997  11.336  1.00  0.00     0.152 A 
HETATM   18  N   UNL     1     -40.836 -48.043  11.634  1.00  0.00    -0.346 N 
HETATM   19  C   UNL     1     -40.229 -46.864  11.254  1.00  0.00     0.097 A 
ATOM     20  HN  UNL     1     -40.365 -48.831  12.079  1.00  0.00     0.167 HD
HETATM   21  C   UNL     1     -41.056 -45.944  10.649  1.00  0.00     0.070 A 
HETATM   22  S   UNL     1     -42.649 -46.582  10.545  1.00  0.00    -0.064 SA
ENDBRANCH   4  17
TORSDOF 4
ENDMDL
MODEL 6
REMARK VINA RESULT:      -5.3      2.026      2.892
REMARK  4 active torsions:
REMARK  status: ('A' for Active; 'I' for Inactive)
REMARK    1  A    between atoms: C_2  and  C_4 
REMARK    2  A    between atoms: C_2  and  N_15 
REMARK    3  A    between atoms: C_4  and  N_5 
REMARK       I    between atoms: N_5  and  C_6 
REMARK       I    between atoms: C_6  and  N_8 
REMARK    4  A    between atoms: N_8  and  C_9 
ROOT
HETATM    1  N   UNL     1     -41.044 -51.165  11.462  1.00  0.00    -0.340 N 
HETATM    2  C   UNL     1     -40.998 -49.788  11.600  1.00  0.00     0.322 C 
HETATM    3  O   UNL     1     -40.481 -49.261  12.576  1.00  0.00    -0.247 OA
HETATM    4  N   UNL     1     -41.648 -49.171  10.565  1.00  0.00    -0.289 N 
HETATM    5  H   UNL     1     -40.913 -51.519  10.522  1.00  0.00     0.164 HD
HETATM    6  H   UNL     1     -42.317 -49.701  10.032  1.00  0.00     0.172 HD
ENDROOT
BRANCH   1   7
HETATM    7  C   UNL     1     -40.486 -51.997  12.512  1.00  0.00     0.165 C 
BRANCH   7   8
HETATM    8  C   UNL     1     -41.584 -52.713  13.363  1.00  0.00     0.168 C 
HETATM    9  C   UNL     1     -41.918 -51.779  14.541  1.00  0.00     0.050 C 
HETATM   10  C   UNL     1     -42.856 -52.771  12.468  1.00  0.00     0.050 C 
BRANCH   8  11
HETATM   11  N   UNL     1     -41.170 -54.105  13.723  1.00  0.00     0.103 N 
HETATM   12  C   UNL     1     -41.808 -54.717  14.909  1.00  0.00     0.299 C 
HETATM   13  C   UNL     1     -41.125 -54.400  16.250  1.00  0.00     0.198 C 
HETATM   14  O   UNL     1     -39.744 -54.770  16.231  1.00  0.00    -0.388 OA
HETATM   15  C   UNL     1     -39.053 -54.115  15.162  1.00  0.00     0.198 C 
HETATM   16  C   UNL     1     -39.717 -54.392  13.801  1.00  0.00     0.299 C 
ENDBRANCH   8  11
ENDBRANCH   7   8
ENDBRANCH   1   7
BRANCH   4  17
HETATM   17  C   UNL     1     -41.698 -47.811  10.470  1.00  0.00     0.152 A 
HETATM   18  N   UNL     1     -40.718 -46.946  10.485  1.00  0.00    -0.346 N 
HETATM   19  C   UNL     1     -41.228 -45.668  10.382  1.00  0.00     0.097 A 
ATOM     20  HN  UNL     1     -39.729 -47.180  10.561  1.00  0.00     0.167 HD
HETATM   21  C   UNL     1     -42.599 -45.588  10.268  1.00  0.00     0.070 A 
HETATM   22  S   UNL     1     -43.271 -47.170  10.282  1.00  0.00    -0.064 SA
ENDBRANCH   4  17
TORSDOF 4
ENDMDL
MODEL 7
REMARK VINA RESULT:      -5.2      2.162      2.613
REMARK  4 active torsions:
REMARK  status: ('A' for Active; 'I' for Inactive)
REMARK    1  A    between atoms: C_2  and  C_4 
REMARK    2  A    between atoms: C_2  and  N_15 
REMARK    3  A    between atoms: C_4  and  N_5 
REMARK       I    between atoms: N_5  and  C_6 
REMARK       I    between atoms: C_6  and  N_8 
REMARK    4  A    between atoms: N_8  and  C_9 
ROOT
HETATM    1  N   UNL     1     -40.345 -52.094  11.942  1.00  0.00    -0.340 N 
HETATM    2  C   UNL     1     -41.142 -50.969  11.814  1.00  0.00     0.322 C 
HETATM    3  O   UNL     1     -42.263 -50.921  12.302  1.00  0.00    -0.247 OA
HETATM    4  N   UNL     1     -40.527 -50.021  11.040  1.00  0.00    -0.289 N 
HETATM    5  H   UNL     1     -39.355 -51.921  12.075  1.00  0.00     0.164 HD
HETATM    6  H   UNL     1     -39.787 -50.309  10.423  1.00  0.00     0.172 HD
ENDROOT
BRANCH   1   7
HETATM    7  C   UNL     1     -40.865 -53.247  12.655  1.00  0.00     0.165 C 
BRANCH   7   8
HETATM    8  C   UNL     1     -40.200 -53.440  14.057  1.00  0.00     0.168 C 
HETATM    9  C   UNL     1     -39.404 -54.757  13.998  1.00  0.00     0.050 C 
HETATM   10  C   UNL     1     -39.157 -52.295  14.202  1.00  0.00     0.050 C 
BRANCH   8  11
HETATM   11  N   UNL     1     -41.211 -53.329  15.155  1.00  0.00     0.103 N 
HETATM   12  C   UNL     1     -40.984 -54.143  16.369  1.00  0.00     0.299 C 
HETATM   13  C   UNL     1     -41.535 -55.578  16.302  1.00  0.00     0.198 C 
HETATM   14  O   UNL     1     -42.933 -55.584  16.001  1.00  0.00    -0.388 OA
HETATM   15  C   UNL     1     -43.195 -54.900  14.771  1.00  0.00     0.198 C 
HETATM   16  C   UNL     1     -42.642 -53.463  14.789  1.00  0.00     0.299 C 
ENDBRANCH   8  11
ENDBRANCH   7   8
ENDBRANCH   1   7
BRANCH   4  17
HETATM   17  C   UNL     1     -41.112 -48.810  10.807  1.00  0.00     0.152 A 
HETATM   18  N   UNL     1     -42.235 -48.540  10.195  1.00  0.00    -0.346 N 
HETATM   19  C   UNL     1     -42.431 -47.174  10.171  1.00  0.00     0.097 A 
ATOM     20  HN  UNL     1     -42.869 -49.232   9.797  1.00  0.00     0.167 HD
HETATM   21  C   UNL     1     -41.453 -46.428  10.790  1.00  0.00     0.070 A 
HETATM   22  S   UNL     1     -40.250 -47.474  11.433  1.00  0.00    -0.064 SA
ENDBRANCH   4  17
TORSDOF 4
ENDMDL
MODEL 8
REMARK VINA RESULT:      -5.2      2.770      7.055
REMARK  4 active torsions:
REMARK  status: ('A' for Active; 'I' for Inactive)
REMARK    1  A    between atoms: C_2  and  C_4 
REMARK    2  A    between atoms: C_2  and  N_15 
REMARK    3  A    between atoms: C_4  and  N_5 
REMARK       I    between atoms: N_5  and  C_6 
REMARK       I    between atoms: C_6  and  N_8 
REMARK    4  A    between atoms: N_8  and  C_9 
ROOT
HETATM    1  N   UNL     1     -42.768 -50.526  12.127  1.00  0.00    -0.340 N 
HETATM    2  C   UNL     1     -43.098 -51.650  12.866  1.00  0.00     0.322 C 
HETATM    3  O   UNL     1     -42.300 -52.164  13.638  1.00  0.00    -0.247 OA
HETATM    4  N   UNL     1     -44.355 -52.090  12.548  1.00  0.00    -0.289 N 
HETATM    5  H   UNL     1     -43.508 -49.845  12.004  1.00  0.00     0.164 HD
HETATM    6  H   UNL     1     -44.759 -51.805  11.672  1.00  0.00     0.172 HD
ENDROOT
BRANCH   1   7
HETATM    7  C   UNL     1     -41.436 -49.963  12.258  1.00  0.00     0.165 C 
BRANCH   7   8
HETATM    8  C   UNL     1     -41.440 -48.400  12.275  1.00  0.00     0.168 C 
HETATM    9  C   UNL     1     -42.778 -47.963  12.902  1.00  0.00     0.050 C 
HETATM   10  C   UNL     1     -40.322 -47.975  13.271  1.00  0.00     0.050 C 
BRANCH   8  11
HETATM   11  N   UNL     1     -41.134 -47.843  10.921  1.00  0.00     0.103 N 
HETATM   12  C   UNL     1     -40.431 -46.542  10.867  1.00  0.00     0.299 C 
HETATM   13  C   UNL     1     -41.345 -45.306  10.929  1.00  0.00     0.198 C 
HETATM   14  O   UNL     1     -42.333 -45.338   9.894  1.00  0.00    -0.388 OA
HETATM   15  C   UNL     1     -43.117 -46.533   9.971  1.00  0.00     0.198 C 
HETATM   16  C   UNL     1     -42.236 -47.795   9.931  1.00  0.00     0.299 C 
ENDBRANCH   8  11
ENDBRANCH   7   8
ENDBRANCH   1   7
BRANCH   4  17
HETATM   17  C   UNL     1     -44.909 -53.165  13.181  1.00  0.00     0.152 A 
HETATM   18  N   UNL     1     -44.586 -54.429  13.097  1.00  0.00    -0.346 N 
HETATM   19  C   UNL     1     -45.426 -55.175  13.897  1.00  0.00     0.097 A 
ATOM     20  HN  UNL     1     -43.829 -54.805  12.527  1.00  0.00     0.167 HD
HETATM   21  C   UNL     1     -46.367 -54.453  14.598  1.00  0.00     0.070 A 
HETATM   22  S   UNL     1     -46.188 -52.780  14.248  1.00  0.00    -0.064 SA
ENDBRANCH   4  17
TORSDOF 4
ENDMDL
MODEL 9
REMARK VINA RESULT:      -5.1      1.939      2.357
REMARK  4 active torsions:
REMARK  status: ('A' for Active; 'I' for Inactive)
REMARK    1  A    between atoms: C_2  and  C_4 
REMARK    2  A    between atoms: C_2  and  N_15 
REMARK    3  A    between atoms: C_4  and  N_5 
REMARK       I    between atoms: N_5  and  C_6 
REMARK       I    between atoms: C_6  and  N_8 
REMARK    4  A    between atoms: N_8  and  C_9 
ROOT
HETATM    1  N   UNL     1     -41.232 -49.720  11.992  1.00  0.00    -0.340 N 
HETATM    2  C   UNL     1     -42.278 -48.861  11.698  1.00  0.00     0.322 C 
HETATM    3  O   UNL     1     -43.091 -48.529  12.550  1.00  0.00    -0.247 OA
HETATM    4  N   UNL     1     -42.281 -48.533  10.369  1.00  0.00    -0.289 N 
HETATM    5  H   UNL     1     -40.351 -49.515  11.537  1.00  0.00     0.164 HD
HETATM    6  H   UNL     1     -41.793 -49.131   9.724  1.00  0.00     0.172 HD
ENDROOT
BRANCH   1   7
HETATM    7  C   UNL     1     -41.116 -50.253  13.338  1.00  0.00     0.165 C 
BRANCH   7   8
HETATM    8  C   UNL     1     -41.421 -51.785  13.409  1.00  0.00     0.168 C 
HETATM    9  C   UNL     1     -41.212 -52.349  11.991  1.00  0.00     0.050 C 
HETATM   10  C   UNL     1     -40.310 -52.406  14.304  1.00  0.00     0.050 C 
BRANCH   8  11
HETATM   11  N   UNL     1     -42.757 -52.042  14.031  1.00  0.00     0.103 N 
HETATM   12  C   UNL     1     -42.872 -53.213  14.927  1.00  0.00     0.299 C 
HETATM   13  C   UNL     1     -43.187 -54.543  14.221  1.00  0.00     0.198 C 
HETATM   14  O   UNL     1     -44.380 -54.446  13.437  1.00  0.00    -0.388 OA
HETATM   15  C   UNL     1     -44.276 -53.393  12.474  1.00  0.00     0.198 C 
HETATM   16  C   UNL     1     -43.942 -52.045  13.139  1.00  0.00     0.299 C 
ENDBRANCH   8  11
ENDBRANCH   7   8
ENDBRANCH   1   7
BRANCH   4  17
HETATM   17  C   UNL     1     -43.202 -47.666   9.856  1.00  0.00     0.152 A 
HETATM   18  N   UNL     1     -44.441 -47.890   9.506  1.00  0.00    -0.346 N 
HETATM   19  C   UNL     1     -45.001 -46.727   9.018  1.00  0.00     0.097 A 
ATOM     20  HN  UNL     1     -44.921 -48.786   9.583  1.00  0.00     0.167 HD
HETATM   21  C   UNL     1     -44.173 -45.626   9.026  1.00  0.00     0.070 A 
HETATM   22  S   UNL     1     -42.643 -46.061   9.677  1.00  0.00    -0.064 SA
ENDBRANCH   4  17
TORSDOF 4
ENDMDL
