MODEL 1
REMARK VINA RESULT:      -6.1      0.000      0.000
REMARK  7 active torsions:
REMARK  status: ('A' for Active; 'I' for Inactive)
REMARK    1  A    between atoms: C_2  and  C_3 
REMARK    2  A    between atoms: C_2  and  N_9 
REMARK    3  A    between atoms: C_3  and  S_4 
REMARK    4  A    between atoms: S_4  and  C_5 
REMARK    5  A    between atoms: N_9  and  C_10 
REMARK    6  A    between atoms: C_10  and  C_11 
REMARK    7  A    between atoms: C_14  and  N_18 
ROOT
HETATM    1  C   UNL     1     -41.927 -51.633  12.673  1.00  0.00    -0.015 A 
HETATM    2  C   UNL     1     -42.784 -50.586  12.979  1.00  0.00     0.014 A 
HETATM    3  C   UNL     1     -42.653 -49.365  12.312  1.00  0.00     0.049 A 
HETATM    4  C   UNL     1     -41.675 -49.184  11.334  1.00  0.00     0.103 A 
HETATM    5  N   UNL     1     -40.834 -50.205  11.050  1.00  0.00    -0.352 N 
ATOM      6  HN  UNL     1     -40.106 -50.091  10.345  1.00  0.00     0.166 HD
HETATM    7  C   UNL     1     -40.966 -51.382  11.710  1.00  0.00     0.098 A 
ENDROOT
BRANCH   1   8
HETATM    8  C   UNL     1     -42.084 -52.985  13.310  1.00  0.00     0.310 C 
BRANCH   8   9
HETATM    9  N   UNL     1     -43.154 -53.788  12.711  1.00  0.00     0.092 N 
HETATM   10  H   UNL     1     -43.759 -53.191  12.150  1.00  0.00     0.316 HD
BRANCH   9  11
HETATM   11  C   UNL     1     -43.953 -54.575  13.666  1.00  0.00     0.226 C 
HETATM   12  C   UNL     1     -43.394 -54.467  15.092  1.00  0.00     0.043 C 
BRANCH  11  13
HETATM   13  C   UNL     1     -45.434 -54.111  13.689  1.00  0.00     0.109 C 
BRANCH  13  14
HETATM   14  S   UNL     1     -46.056 -53.682  15.362  1.00  0.00    -0.158 SA
BRANCH  14  15
HETATM   15  C   UNL     1     -46.252 -51.844  15.236  1.00  0.00    -0.003 C 
HETATM   16  C   UNL     1     -46.524 -51.425  13.786  1.00  0.00     0.026 C 
HETATM   17  C   UNL     1     -47.468 -51.460  16.098  1.00  0.00     0.026 C 
HETATM   18  C   UNL     1     -45.014 -51.124  15.785  1.00  0.00     0.026 C 
ENDBRANCH  14  15
ENDBRANCH  13  14
ENDBRANCH  11  13
ENDBRANCH   9  11
ENDBRANCH   8   9
ENDBRANCH   1   8
BRANCH   4  19
HETATM   19  N   UNL     1     -41.518 -48.005  10.645  1.00  0.00    -0.363 N 
HETATM   20  C   UNL     1     -40.550 -46.951  10.960  1.00  0.00     0.150 C 
HETATM   21  C   UNL     1     -41.297 -45.659  11.325  1.00  0.00     0.188 C 
HETATM   22  O   UNL     1     -42.176 -45.251  10.266  1.00  0.00    -0.383 OA
HETATM   23  C   UNL     1     -43.161 -46.274  10.002  1.00  0.00     0.135 C 
HETATM   24  C   UNL     1     -44.049 -45.759   8.878  1.00  0.00     0.041 C 
HETATM   25  C   UNL     1     -42.493 -47.615   9.612  1.00  0.00     0.155 C 
ENDBRANCH   4  19
TORSDOF 7
ENDMDL
MODEL 2
REMARK VINA RESULT:      -6.1      1.251      1.390
REMARK  7 active torsions:
REMARK  status: ('A' for Active; 'I' for Inactive)
REMARK    1  A    between atoms: C_2  and  C_3 
REMARK    2  A    between atoms: C_2  and  N_9 
REMARK    3  A    between atoms: C_3  and  S_4 
REMARK    4  A    between atoms: S_4  and  C_5 
REMARK    5  A    between atoms: N_9  and  C_10 
REMARK    6  A    between atoms: C_10  and  C_11 
REMARK    7  A    between atoms: C_14  and  N_18 
ROOT
HETATM    1  C   UNL     1     -40.818 -51.177  13.147  1.00  0.00    -0.015 A 
HETATM    2  C   UNL     1     -41.115 -49.949  13.720  1.00  0.00     0.014 A 
HETATM    3  C   UNL     1     -41.276 -48.825  12.906  1.00  0.00     0.049 A 
HETATM    4  C   UNL     1     -41.147 -48.919  11.520  1.00  0.00     0.103 A 
HETATM    5  N   UNL     1     -40.843 -50.117  10.969  1.00  0.00    -0.352 N 
ATOM      6  HN  UNL     1     -40.736 -50.205   9.958  1.00  0.00     0.166 HD
HETATM    7  C   UNL     1     -40.683 -51.198  11.770  1.00  0.00     0.098 A 
ENDROOT
BRANCH   1   8
HETATM    8  C   UNL     1     -40.716 -52.425  13.977  1.00  0.00     0.310 C 
BRANCH   8   9
HETATM    9  N   UNL     1     -42.002 -52.864  14.526  1.00  0.00     0.092 N 
HETATM   10  H   UNL     1     -41.906 -53.049  15.522  1.00  0.00     0.316 HD
BRANCH   9  11
HETATM   11  C   UNL     1     -42.609 -54.022  13.846  1.00  0.00     0.226 C 
HETATM   12  C   UNL     1     -43.253 -54.989  14.850  1.00  0.00     0.043 C 
BRANCH  11  13
HETATM   13  C   UNL     1     -43.697 -53.582  12.830  1.00  0.00     0.109 C 
BRANCH  13  14
HETATM   14  S   UNL     1     -45.406 -53.628  13.498  1.00  0.00    -0.158 SA
BRANCH  14  15
HETATM   15  C   UNL     1     -45.929 -51.858  13.328  1.00  0.00    -0.003 C 
HETATM   16  C   UNL     1     -46.807 -51.668  12.086  1.00  0.00     0.026 C 
HETATM   17  C   UNL     1     -46.757 -51.511  14.577  1.00  0.00     0.026 C 
HETATM   18  C   UNL     1     -44.708 -50.930  13.276  1.00  0.00     0.026 C 
ENDBRANCH  14  15
ENDBRANCH  13  14
ENDBRANCH  11  13
ENDBRANCH   9  11
ENDBRANCH   8   9
ENDBRANCH   1   8
BRANCH   4  19
HETATM   19  N   UNL     1     -41.307 -47.841  10.681  1.00  0.00    -0.363 N 
HETATM   20  C   UNL     1     -40.569 -46.578  10.759  1.00  0.00     0.150 C 
HETATM   21  C   UNL     1     -41.546 -45.428  11.044  1.00  0.00     0.188 C 
HETATM   22  O   UNL     1     -42.577 -45.362  10.047  1.00  0.00    -0.383 OA
HETATM   23  C   UNL     1     -43.333 -46.592  10.019  1.00  0.00     0.135 C 
HETATM   24  C   UNL     1     -44.402 -46.433   8.945  1.00  0.00     0.041 C 
HETATM   25  C   UNL     1     -42.424 -47.809   9.722  1.00  0.00     0.155 C 
ENDBRANCH   4  19
TORSDOF 7
ENDMDL
MODEL 3
REMARK VINA RESULT:      -5.9      1.373      2.022
REMARK  7 active torsions:
REMARK  status: ('A' for Active; 'I' for Inactive)
REMARK    1  A    between atoms: C_2  and  C_3 
REMARK    2  A    between atoms: C_2  and  N_9 
REMARK    3  A    between atoms: C_3  and  S_4 
REMARK    4  A    between atoms: S_4  and  C_5 
REMARK    5  A    between atoms: N_9  and  C_10 
REMARK    6  A    between atoms: C_10  and  C_11 
REMARK    7  A    between atoms: C_14  and  N_18 
ROOT
HETATM    1  C   UNL     1     -40.878 -51.447  13.044  1.00  0.00    -0.015 A 
HETATM    2  C   UNL     1     -40.970 -50.455  14.009  1.00  0.00     0.014 A 
HETATM    3  C   UNL     1     -41.298 -49.149  13.634  1.00  0.00     0.049 A 
HETATM    4  C   UNL     1     -41.541 -48.827  12.299  1.00  0.00     0.103 A 
HETATM    5  N   UNL     1     -41.436 -49.796  11.360  1.00  0.00    -0.352 N 
ATOM      6  HN  UNL     1     -41.601 -49.579  10.377  1.00  0.00     0.166 HD
HETATM    7  C   UNL     1     -41.110 -51.057  11.737  1.00  0.00     0.098 A 
ENDROOT
BRANCH   1   8
HETATM    8  C   UNL     1     -40.607 -52.878  13.413  1.00  0.00     0.310 C 
BRANCH   8   9
HETATM    9  N   UNL     1     -41.396 -53.837  12.636  1.00  0.00     0.092 N 
HETATM   10  H   UNL     1     -41.586 -53.457  11.711  1.00  0.00     0.316 HD
BRANCH   9  11
HETATM   11  C   UNL     1     -42.649 -54.278  13.275  1.00  0.00     0.226 C 
HETATM   12  C   UNL     1     -42.691 -53.889  14.760  1.00  0.00     0.043 C 
BRANCH  11  13
HETATM   13  C   UNL     1     -43.893 -53.665  12.577  1.00  0.00     0.109 C 
BRANCH  13  14
HETATM   14  S   UNL     1     -45.384 -53.585  13.644  1.00  0.00    -0.158 SA
BRANCH  14  15
HETATM   15  C   UNL     1     -45.902 -51.817  13.444  1.00  0.00    -0.003 C 
HETATM   16  C   UNL     1     -46.757 -51.640  12.184  1.00  0.00     0.026 C 
HETATM   17  C   UNL     1     -46.753 -51.455  14.675  1.00  0.00     0.026 C 
HETATM   18  C   UNL     1     -44.679 -50.892  13.404  1.00  0.00     0.026 C 
ENDBRANCH  14  15
ENDBRANCH  13  14
ENDBRANCH  11  13
ENDBRANCH   9  11
ENDBRANCH   8   9
ENDBRANCH   1   8
BRANCH   4  19
HETATM   19  N   UNL     1     -41.876 -47.559  11.887  1.00  0.00    -0.363 N 
HETATM   20  C   UNL     1     -43.106 -47.183  11.186  1.00  0.00     0.150 C 
HETATM   21  C   UNL     1     -42.758 -46.631   9.795  1.00  0.00     0.188 C 
HETATM   22  O   UNL     1     -41.857 -45.517   9.889  1.00  0.00    -0.383 OA
HETATM   23  C   UNL     1     -40.626 -45.914  10.532  1.00  0.00     0.135 C 
HETATM   24  C   UNL     1     -39.732 -44.682  10.583  1.00  0.00     0.041 C 
HETATM   25  C   UNL     1     -40.883 -46.473  11.952  1.00  0.00     0.155 C 
ENDBRANCH   4  19
TORSDOF 7
ENDMDL
MODEL 4
REMARK VINA RESULT:      -5.7      3.418      7.654
REMARK  7 active torsions:
REMARK  status: ('A' for Active; 'I' for Inactive)
REMARK    1  A    between atoms: C_2  and  C_3 
REMARK    2  A    between atoms: C_2  and  N_9 
REMARK    3  A    between atoms: C_3  and  S_4 
REMARK    4  A    between atoms: S_4  and  C_5 
REMARK    5  A    between atoms: N_9  and  C_10 
REMARK    6  A    between atoms: C_10  and  C_11 
REMARK    7  A    between atoms: C_14  and  N_18 
ROOT
HETATM    1  C   UNL     1     -40.719 -51.633  12.528  1.00  0.00    -0.015 A 
HETATM    2  C   UNL     1     -40.525 -51.926  13.870  1.00  0.00     0.014 A 
HETATM    3  C   UNL     1     -41.414 -52.778  14.530  1.00  0.00     0.049 A 
HETATM    4  C   UNL     1     -42.495 -53.346  13.857  1.00  0.00     0.103 A 
HETATM    5  N   UNL     1     -42.687 -53.046  12.551  1.00  0.00    -0.352 N 
ATOM      6  HN  UNL     1     -43.476 -53.444  12.043  1.00  0.00     0.166 HD
HETATM    7  C   UNL     1     -41.821 -52.212  11.924  1.00  0.00     0.098 A 
ENDROOT
BRANCH   1   8
HETATM    8  C   UNL     1     -39.742 -50.787  11.761  1.00  0.00     0.310 C 
BRANCH   8   9
HETATM    9  N   UNL     1     -40.382 -49.917  10.770  1.00  0.00     0.092 N 
HETATM   10  H   UNL     1     -39.745 -49.756   9.993  1.00  0.00     0.316 HD
BRANCH   9  11
HETATM   11  C   UNL     1     -40.885 -48.635  11.295  1.00  0.00     0.226 C 
HETATM   12  C   UNL     1     -39.734 -47.717  11.732  1.00  0.00     0.043 C 
BRANCH  11  13
HETATM   13  C   UNL     1     -41.734 -47.880  10.239  1.00  0.00     0.109 C 
BRANCH  13  14
HETATM   14  S   UNL     1     -43.494 -47.662  10.711  1.00  0.00    -0.158 SA
BRANCH  14  15
HETATM   15  C   UNL     1     -44.260 -47.147   9.104  1.00  0.00    -0.003 C 
HETATM   16  C   UNL     1     -43.578 -47.854   7.926  1.00  0.00     0.026 C 
HETATM   17  C   UNL     1     -45.737 -47.576   9.150  1.00  0.00     0.026 C 
HETATM   18  C   UNL     1     -44.196 -45.624   8.933  1.00  0.00     0.026 C 
ENDBRANCH  14  15
ENDBRANCH  13  14
ENDBRANCH  11  13
ENDBRANCH   9  11
ENDBRANCH   8   9
ENDBRANCH   1   8
BRANCH   4  19
HETATM   19  N   UNL     1     -43.388 -54.197  14.464  1.00  0.00    -0.363 N 
HETATM   20  C   UNL     1     -44.536 -54.838  13.818  1.00  0.00     0.150 C 
HETATM   21  C   UNL     1     -45.835 -54.358  14.484  1.00  0.00     0.188 C 
HETATM   22  O   UNL     1     -45.824 -54.623  15.895  1.00  0.00    -0.383 OA
HETATM   23  C   UNL     1     -44.720 -53.941  16.530  1.00  0.00     0.135 C 
HETATM   24  C   UNL     1     -44.789 -54.269  18.015  1.00  0.00     0.041 C 
HETATM   25  C   UNL     1     -43.363 -54.377  15.926  1.00  0.00     0.155 C 
ENDBRANCH   4  19
TORSDOF 7
ENDMDL
MODEL 5
REMARK VINA RESULT:      -5.7      1.498      2.466
REMARK  7 active torsions:
REMARK  status: ('A' for Active; 'I' for Inactive)
REMARK    1  A    between atoms: C_2  and  C_3 
REMARK    2  A    between atoms: C_2  and  N_9 
REMARK    3  A    between atoms: C_3  and  S_4 
REMARK    4  A    between atoms: S_4  and  C_5 
REMARK    5  A    between atoms: N_9  and  C_10 
REMARK    6  A    between atoms: C_10  and  C_11 
REMARK    7  A    between atoms: C_14  and  N_18 
ROOT
HETATM    1  C   UNL     1     -41.399 -50.701  11.966  1.00  0.00    -0.015 A 
HETATM    2  C   UNL     1     -42.409 -49.949  12.548  1.00  0.00     0.014 A 
HETATM    3  C   UNL     1     -42.394 -48.557  12.429  1.00  0.00     0.049 A 
HETATM    4  C   UNL     1     -41.380 -47.908  11.725  1.00  0.00     0.103 A 
HETATM    5  N   UNL     1     -40.390 -48.646  11.171  1.00  0.00    -0.352 N 
ATOM      6  HN  UNL     1     -39.633 -48.191  10.660  1.00  0.00     0.166 HD
HETATM    7  C   UNL     1     -40.411 -49.996  11.301  1.00  0.00     0.098 A 
ENDROOT
BRANCH   1   8
HETATM    8  C   UNL     1     -41.419 -52.202  12.003  1.00  0.00     0.310 C 
BRANCH   8   9
HETATM    9  N   UNL     1     -42.751 -52.770  11.776  1.00  0.00     0.092 N 
HETATM   10  H   UNL     1     -43.440 -52.023  11.728  1.00  0.00     0.316 HD
BRANCH   9  11
HETATM   11  C   UNL     1     -43.170 -53.791  12.753  1.00  0.00     0.226 C 
HETATM   12  C   UNL     1     -42.477 -53.589  14.109  1.00  0.00     0.043 C 
BRANCH  11  13
HETATM   13  C   UNL     1     -44.704 -53.764  12.984  1.00  0.00     0.109 C 
BRANCH  13  14
HETATM   14  S   UNL     1     -45.192 -53.534  14.738  1.00  0.00    -0.158 SA
BRANCH  14  15
HETATM   15  C   UNL     1     -45.978 -51.855  14.698  1.00  0.00    -0.003 C 
HETATM   16  C   UNL     1     -47.175 -51.793  15.653  1.00  0.00     0.026 C 
HETATM   17  C   UNL     1     -44.914 -50.849  15.172  1.00  0.00     0.026 C 
HETATM   18  C   UNL     1     -46.402 -51.485  13.271  1.00  0.00     0.026 C 
ENDBRANCH  14  15
ENDBRANCH  13  14
ENDBRANCH  11  13
ENDBRANCH   9  11
ENDBRANCH   8   9
ENDBRANCH   1   8
BRANCH   4  19
HETATM   19  N   UNL     1     -41.332 -46.543  11.573  1.00  0.00    -0.363 N 
HETATM   20  C   UNL     1     -41.231 -45.825  10.301  1.00  0.00     0.150 C 
HETATM   21  C   UNL     1     -39.917 -45.028  10.262  1.00  0.00     0.188 C 
HETATM   22  O   UNL     1     -39.826 -44.123  11.373  1.00  0.00    -0.383 OA
HETATM   23  C   UNL     1     -39.871 -44.848  12.622  1.00  0.00     0.135 C 
HETATM   24  C   UNL     1     -39.762 -43.819  13.739  1.00  0.00     0.041 C 
HETATM   25  C   UNL     1     -41.174 -45.672  12.751  1.00  0.00     0.155 C 
ENDBRANCH   4  19
TORSDOF 7
ENDMDL
MODEL 6
REMARK VINA RESULT:      -5.2      2.201      3.018
REMARK  7 active torsions:
REMARK  status: ('A' for Active; 'I' for Inactive)
REMARK    1  A    between atoms: C_2  and  C_3 
REMARK    2  A    between atoms: C_2  and  N_9 
REMARK    3  A    between atoms: C_3  and  S_4 
REMARK    4  A    between atoms: S_4  and  C_5 
REMARK    5  A    between atoms: N_9  and  C_10 
REMARK    6  A    between atoms: C_10  and  C_11 
REMARK    7  A    between atoms: C_14  and  N_18 
ROOT
HETATM    1  C   UNL     1     -39.068 -50.234  13.184  1.00  0.00    -0.015 A 
HETATM    2  C   UNL     1     -39.591 -49.079  13.749  1.00  0.00     0.014 A 
HETATM    3  C   UNL     1     -40.238 -48.143  12.939  1.00  0.00     0.049 A 
HETATM    4  C   UNL     1     -40.374 -48.354  11.567  1.00  0.00     0.103 A 
HETATM    5  N   UNL     1     -39.850 -49.475  11.020  1.00  0.00    -0.352 N 
ATOM      6  HN  UNL     1     -39.930 -49.644  10.017  1.00  0.00     0.166 HD
HETATM    7  C   UNL     1     -39.217 -50.372  11.816  1.00  0.00     0.098 A 
ENDROOT
BRANCH   1   8
HETATM    8  C   UNL     1     -38.435 -51.302  14.030  1.00  0.00     0.310 C 
BRANCH   8   9
HETATM    9  N   UNL     1     -39.406 -52.238  14.604  1.00  0.00     0.092 N 
HETATM   10  H   UNL     1     -39.100 -52.524  15.532  1.00  0.00     0.316 HD
BRANCH   9  11
HETATM   11  C   UNL     1     -39.701 -53.420  13.775  1.00  0.00     0.226 C 
HETATM   12  C   UNL     1     -39.394 -54.724  14.525  1.00  0.00     0.043 C 
BRANCH  11  13
HETATM   13  C   UNL     1     -41.189 -53.452  13.335  1.00  0.00     0.109 C 
BRANCH  13  14
HETATM   14  S   UNL     1     -42.297 -54.326  14.509  1.00  0.00    -0.158 SA
BRANCH  14  15
HETATM   15  C   UNL     1     -43.973 -53.861  13.870  1.00  0.00    -0.003 C 
HETATM   16  C   UNL     1     -44.938 -55.049  13.964  1.00  0.00     0.026 C 
HETATM   17  C   UNL     1     -44.498 -52.725  14.765  1.00  0.00     0.026 C 
HETATM   18  C   UNL     1     -43.884 -53.348  12.427  1.00  0.00     0.026 C 
ENDBRANCH  14  15
ENDBRANCH  13  14
ENDBRANCH  11  13
ENDBRANCH   9  11
ENDBRANCH   8   9
ENDBRANCH   1   8
BRANCH   4  19
HETATM   19  N   UNL     1     -41.012 -47.465  10.735  1.00  0.00    -0.363 N 
HETATM   20  C   UNL     1     -40.739 -46.028  10.645  1.00  0.00     0.150 C 
HETATM   21  C   UNL     1     -41.992 -45.240  11.058  1.00  0.00     0.188 C 
HETATM   22  O   UNL     1     -43.123 -45.601  10.251  1.00  0.00    -0.383 OA
HETATM   23  C   UNL     1     -43.416 -47.009  10.391  1.00  0.00     0.135 C 
HETATM   24  C   UNL     1     -44.625 -47.301   9.512  1.00  0.00     0.041 C 
HETATM   25  C   UNL     1     -42.207 -47.883   9.980  1.00  0.00     0.155 C 
ENDBRANCH   4  19
TORSDOF 7
ENDMDL
MODEL 7
REMARK VINA RESULT:      -5.1      2.095      2.794
REMARK  7 active torsions:
REMARK  status: ('A' for Active; 'I' for Inactive)
REMARK    1  A    between atoms: C_2  and  C_3 
REMARK    2  A    between atoms: C_2  and  N_9 
REMARK    3  A    between atoms: C_3  and  S_4 
REMARK    4  A    between atoms: S_4  and  C_5 
REMARK    5  A    between atoms: N_9  and  C_10 
REMARK    6  A    between atoms: C_10  and  C_11 
REMARK    7  A    between atoms: C_14  and  N_18 
ROOT
HETATM    1  C   UNL     1     -40.527 -52.878  13.074  1.00  0.00    -0.015 A 
HETATM    2  C   UNL     1     -39.639 -52.407  14.031  1.00  0.00     0.014 A 
HETATM    3  C   UNL     1     -39.110 -51.119  13.913  1.00  0.00     0.049 A 
HETATM    4  C   UNL     1     -39.466 -50.293  12.847  1.00  0.00     0.103 A 
HETATM    5  N   UNL     1     -40.320 -50.763  11.909  1.00  0.00    -0.352 N 
ATOM      6  HN  UNL     1     -40.586 -50.179  11.116  1.00  0.00     0.166 HD
HETATM    7  C   UNL     1     -40.821 -52.017  12.031  1.00  0.00     0.098 A 
ENDROOT
BRANCH   1   8
HETATM    8  C   UNL     1     -41.180 -54.224  13.205  1.00  0.00     0.310 C 
BRANCH   8   9
HETATM    9  N   UNL     1     -42.625 -54.194  12.969  1.00  0.00     0.092 N 
HETATM   10  H   UNL     1     -42.888 -53.300  12.558  1.00  0.00     0.316 HD
BRANCH   9  11
HETATM   11  C   UNL     1     -43.458 -54.479  14.151  1.00  0.00     0.226 C 
HETATM   12  C   UNL     1     -42.680 -55.276  15.208  1.00  0.00     0.043 C 
BRANCH  11  13
HETATM   13  C   UNL     1     -43.976 -53.174  14.813  1.00  0.00     0.109 C 
BRANCH  13  14
HETATM   14  S   UNL     1     -45.573 -53.366  15.696  1.00  0.00    -0.158 SA
BRANCH  14  15
HETATM   15  C   UNL     1     -46.314 -51.677  15.519  1.00  0.00    -0.003 C 
HETATM   16  C   UNL     1     -47.539 -51.523  16.427  1.00  0.00     0.026 C 
HETATM   17  C   UNL     1     -45.241 -50.666  15.960  1.00  0.00     0.026 C 
HETATM   18  C   UNL     1     -46.683 -51.393  14.057  1.00  0.00     0.026 C 
ENDBRANCH  14  15
ENDBRANCH  13  14
ENDBRANCH  11  13
ENDBRANCH   9  11
ENDBRANCH   8   9
ENDBRANCH   1   8
BRANCH   4  19
HETATM   19  N   UNL     1     -38.977 -49.017  12.697  1.00  0.00    -0.363 N 
HETATM   20  C   UNL     1     -38.160 -48.292  13.673  1.00  0.00     0.150 C 
HETATM   21  C   UNL     1     -38.916 -47.041  14.148  1.00  0.00     0.188 C 
HETATM   22  O   UNL     1     -39.269 -46.196  13.043  1.00  0.00    -0.383 OA
HETATM   23  C   UNL     1     -40.120 -46.904  12.116  1.00  0.00     0.135 C 
HETATM   24  C   UNL     1     -40.450 -45.938  10.986  1.00  0.00     0.041 C 
HETATM   25  C   UNL     1     -39.429 -48.179  11.573  1.00  0.00     0.155 C 
ENDBRANCH   4  19
TORSDOF 7
ENDMDL
MODEL 8
REMARK VINA RESULT:      -5.1      1.979      2.907
REMARK  7 active torsions:
REMARK  status: ('A' for Active; 'I' for Inactive)
REMARK    1  A    between atoms: C_2  and  C_3 
REMARK    2  A    between atoms: C_2  and  N_9 
REMARK    3  A    between atoms: C_3  and  S_4 
REMARK    4  A    between atoms: S_4  and  C_5 
REMARK    5  A    between atoms: N_9  and  C_10 
REMARK    6  A    between atoms: C_10  and  C_11 
REMARK    7  A    between atoms: C_14  and  N_18 
ROOT
HETATM    1  C   UNL     1     -40.110 -49.711  12.148  1.00  0.00    -0.015 A 
HETATM    2  C   UNL     1     -39.560 -48.911  13.139  1.00  0.00     0.014 A 
HETATM    3  C   UNL     1     -39.554 -47.523  12.987  1.00  0.00     0.049 A 
HETATM    4  C   UNL     1     -40.099 -46.924  11.851  1.00  0.00     0.103 A 
HETATM    5  N   UNL     1     -40.621 -47.710  10.881  1.00  0.00    -0.352 N 
ATOM      6  HN  UNL     1     -41.016 -47.293  10.038  1.00  0.00     0.166 HD
HETATM    7  C   UNL     1     -40.614 -49.057  11.038  1.00  0.00     0.098 A 
ENDROOT
BRANCH   1   8
HETATM    8  C   UNL     1     -40.209 -51.202  12.308  1.00  0.00     0.310 C 
BRANCH   8   9
HETATM    9  N   UNL     1     -41.253 -51.806  11.477  1.00  0.00     0.092 N 
HETATM   10  H   UNL     1     -41.672 -51.096  10.880  1.00  0.00     0.316 HD
BRANCH   9  11
HETATM   11  C   UNL     1     -42.299 -52.534  12.218  1.00  0.00     0.226 C 
HETATM   12  C   UNL     1     -41.692 -53.574  13.171  1.00  0.00     0.043 C 
BRANCH  11  13
HETATM   13  C   UNL     1     -43.183 -51.569  13.052  1.00  0.00     0.109 C 
BRANCH  13  14
HETATM   14  S   UNL     1     -43.881 -52.323  14.574  1.00  0.00    -0.158 SA
BRANCH  14  15
HETATM   15  C   UNL     1     -45.703 -52.195  14.262  1.00  0.00    -0.003 C 
HETATM   16  C   UNL     1     -46.373 -53.568  14.388  1.00  0.00     0.026 C 
HETATM   17  C   UNL     1     -46.281 -51.261  15.341  1.00  0.00     0.026 C 
HETATM   18  C   UNL     1     -45.979 -51.581  12.883  1.00  0.00     0.026 C 
ENDBRANCH  14  15
ENDBRANCH  13  14
ENDBRANCH  11  13
ENDBRANCH   9  11
ENDBRANCH   8   9
ENDBRANCH   1   8
BRANCH   4  19
HETATM   19  N   UNL     1     -40.123 -45.562  11.664  1.00  0.00    -0.363 N 
HETATM   20  C   UNL     1     -39.263 -44.589  12.342  1.00  0.00     0.150 C 
HETATM   21  C   UNL     1     -40.126 -43.639  13.186  1.00  0.00     0.188 C 
HETATM   22  O   UNL     1     -41.115 -42.980  12.380  1.00  0.00    -0.383 OA
HETATM   23  C   UNL     1     -41.991 -43.948  11.762  1.00  0.00     0.135 C 
HETATM   24  C   UNL     1     -43.005 -43.167  10.937  1.00  0.00     0.041 C 
HETATM   25  C   UNL     1     -41.202 -44.942  10.876  1.00  0.00     0.155 C 
ENDBRANCH   4  19
TORSDOF 7
ENDMDL
MODEL 9
REMARK VINA RESULT:      -5.0      3.378      4.788
REMARK  7 active torsions:
REMARK  status: ('A' for Active; 'I' for Inactive)
REMARK    1  A    between atoms: C_2  and  C_3 
REMARK    2  A    between atoms: C_2  and  N_9 
REMARK    3  A    between atoms: C_3  and  S_4 
REMARK    4  A    between atoms: S_4  and  C_5 
REMARK    5  A    between atoms: N_9  and  C_10 
REMARK    6  A    between atoms: C_10  and  C_11 
REMARK    7  A    between atoms: C_14  and  N_18 
ROOT
HETATM    1  C   UNL     1     -41.956 -49.562  12.134  1.00  0.00    -0.015 A 
HETATM    2  C   UNL     1     -42.556 -48.488  12.776  1.00  0.00     0.014 A 
HETATM    3  C   UNL     1     -42.392 -47.197  12.268  1.00  0.00     0.049 A 
HETATM    4  C   UNL     1     -41.636 -46.970  11.118  1.00  0.00     0.103 A 
HETATM    5  N   UNL     1     -41.042 -48.020  10.505  1.00  0.00    -0.352 N 
ATOM      6  HN  UNL     1     -40.477 -47.874   9.667  1.00  0.00     0.166 HD
HETATM    7  C   UNL     1     -41.203 -49.267  11.011  1.00  0.00     0.098 A 
ENDROOT
BRANCH   1   8
HETATM    8  C   UNL     1     -42.172 -50.974  12.600  1.00  0.00     0.310 C 
BRANCH   8   9
HETATM    9  N   UNL     1     -40.997 -51.831  12.421  1.00  0.00     0.092 N 
HETATM   10  H   UNL     1     -41.123 -52.421  11.601  1.00  0.00     0.316 HD
BRANCH   9  11
HETATM   11  C   UNL     1     -40.637 -52.651  13.592  1.00  0.00     0.226 C 
HETATM   12  C   UNL     1     -40.520 -54.137  13.222  1.00  0.00     0.043 C 
BRANCH  11  13
HETATM   13  C   UNL     1     -39.289 -52.198  14.213  1.00  0.00     0.109 C 
BRANCH  13  14
HETATM   14  S   UNL     1     -38.383 -50.955  13.210  1.00  0.00    -0.158 SA
BRANCH  14  15
HETATM   15  C   UNL     1     -38.449 -49.461  14.304  1.00  0.00    -0.003 C 
HETATM   16  C   UNL     1     -37.163 -49.336  15.130  1.00  0.00     0.026 C 
HETATM   17  C   UNL     1     -38.566 -48.233  13.383  1.00  0.00     0.026 C 
HETATM   18  C   UNL     1     -39.679 -49.508  15.219  1.00  0.00     0.026 C 
ENDBRANCH  14  15
ENDBRANCH  13  14
ENDBRANCH  11  13
ENDBRANCH   9  11
ENDBRANCH   8   9
ENDBRANCH   1   8
BRANCH   4  19
HETATM   19  N   UNL     1     -41.457 -45.718  10.578  1.00  0.00    -0.363 N 
HETATM   20  C   UNL     1     -40.168 -45.100  10.257  1.00  0.00     0.150 C 
HETATM   21  C   UNL     1     -39.977 -43.836  11.109  1.00  0.00     0.188 C 
HETATM   22  O   UNL     1     -41.055 -42.910  10.914  1.00  0.00    -0.383 OA
HETATM   23  C   UNL     1     -42.314 -43.512  11.287  1.00  0.00     0.135 C 
HETATM   24  C   UNL     1     -43.395 -42.464  11.057  1.00  0.00     0.041 C 
HETATM   25  C   UNL     1     -42.596 -44.791  10.463  1.00  0.00     0.155 C 
ENDBRANCH   4  19
TORSDOF 7
ENDMDL
