MODEL 1
REMARK VINA RESULT:      -6.3      0.000      0.000
REMARK  5 active torsions:
REMARK  status: ('A' for Active; 'I' for Inactive)
REMARK    1  A    between atoms: N_2  and  C_4 
REMARK    2  A    between atoms: C_4  and  C_5 
REMARK    3  A    between atoms: C_4  and  C_16 
REMARK    4  A    between atoms: C_5  and  N_6 
REMARK       I    between atoms: N_6  and  C_7 
REMARK    5  A    between atoms: C_7  and  C_9 
ROOT
HETATM    1  C   UNL     1     -41.349 -48.799  10.984  1.00  0.00     0.163 C 
ENDROOT
BRANCH   1   2
HETATM    2  C   UNL     1     -41.901 -47.418  10.507  1.00  0.00     0.275 C 
BRANCH   2   3
HETATM    3  N   UNL     1     -42.100 -46.366  11.545  1.00  0.00     0.090 N 
HETATM    4  C   UNL     1     -41.333 -46.512  12.779  1.00  0.00     0.310 C 
HETATM    5  C   UNL     1     -41.913 -45.021  11.002  1.00  0.00     0.310 C 
ENDBRANCH   2   3
BRANCH   2   6
HETATM    6  C   UNL     1     -43.162 -47.540   9.669  1.00  0.00     0.011 A 
HETATM    7  C   UNL     1     -43.292 -47.769   8.274  1.00  0.00     0.118 A 
HETATM    8  N   UNL     1     -44.560 -47.880   7.876  1.00  0.00    -0.310 N 
HETATM    9  N   UNL     1     -45.261 -47.687   9.003  1.00  0.00    -0.308 N 
ATOM     10  HN  UNL     1     -44.912 -48.068   6.937  1.00  0.00     0.186 HD
HETATM   11  C   UNL     1     -46.699 -47.791   8.982  1.00  0.00     0.177 C 
HETATM   12  C   UNL     1     -44.478 -47.440  10.092  1.00  0.00     0.120 A 
ENDBRANCH   2   6
ENDBRANCH   1   2
BRANCH   1  13
HETATM   13  N   UNL     1     -42.366 -49.664  11.560  1.00  0.00    -0.355 N 
HETATM   14  C   UNL     1     -42.202 -50.348  12.732  1.00  0.00     0.247 C 
HETATM   15  O   UNL     1     -41.195 -50.223  13.420  1.00  0.00    -0.268 OA
HETATM   16  H   UNL     1     -43.196 -49.803  11.009  1.00  0.00     0.162 HD
BRANCH  14  17
HETATM   17  C   UNL     1     -43.357 -51.233  13.140  1.00  0.00     0.006 C 
HETATM   18  C   UNL     1     -44.592 -50.735  13.381  1.00  0.00    -0.014 C 
HETATM   19  C   UNL     1     -45.837 -51.452  13.830  1.00  0.00     0.028 C 
HETATM   20  C   UNL     1     -45.673 -52.851  14.408  1.00  0.00     0.004 C 
HETATM   21  C   UNL     1     -45.296 -53.906  13.375  1.00  0.00     0.001 C 
HETATM   22  C   UNL     1     -44.114 -53.561  12.473  1.00  0.00     0.005 C 
HETATM   23  C   UNL     1     -43.031 -52.713  13.143  1.00  0.00     0.044 C 
ENDBRANCH  14  17
ENDBRANCH   1  13
TORSDOF 5
ENDMDL
MODEL 2
REMARK VINA RESULT:      -5.8      4.543      6.855
REMARK  5 active torsions:
REMARK  status: ('A' for Active; 'I' for Inactive)
REMARK    1  A    between atoms: N_2  and  C_4 
REMARK    2  A    between atoms: C_4  and  C_5 
REMARK    3  A    between atoms: C_4  and  C_16 
REMARK    4  A    between atoms: C_5  and  N_6 
REMARK       I    between atoms: N_6  and  C_7 
REMARK    5  A    between atoms: C_7  and  C_9 
ROOT
HETATM    1  C   UNL     1     -41.373 -54.825  16.222  1.00  0.00     0.163 C 
ENDROOT
BRANCH   1   2
HETATM    2  C   UNL     1     -40.110 -54.815  15.303  1.00  0.00     0.275 C 
BRANCH   2   3
HETATM    3  N   UNL     1     -38.802 -54.497  15.944  1.00  0.00     0.090 N 
HETATM    4  C   UNL     1     -38.849 -53.699  17.166  1.00  0.00     0.310 C 
HETATM    5  C   UNL     1     -37.997 -55.698  16.168  1.00  0.00     0.310 C 
ENDBRANCH   2   3
BRANCH   2   6
HETATM    6  C   UNL     1     -40.284 -53.953  14.065  1.00  0.00     0.011 A 
HETATM    7  C   UNL     1     -40.821 -54.304  12.798  1.00  0.00     0.118 A 
HETATM    8  N   UNL     1     -40.880 -53.277  11.950  1.00  0.00    -0.310 N 
HETATM    9  N   UNL     1     -40.348 -52.263  12.649  1.00  0.00    -0.308 N 
ATOM     10  HN  UNL     1     -41.243 -53.266  10.997  1.00  0.00     0.186 HD
HETATM   11  C   UNL     1     -40.292 -50.943  12.070  1.00  0.00     0.177 C 
HETATM   12  C   UNL     1     -39.940 -52.621  13.900  1.00  0.00     0.120 A 
ENDBRANCH   2   6
ENDBRANCH   1   2
BRANCH   1  13
HETATM   13  N   UNL     1     -42.455 -53.987  15.733  1.00  0.00    -0.355 N 
HETATM   14  C   UNL     1     -43.573 -54.477  15.118  1.00  0.00     0.247 C 
HETATM   15  O   UNL     1     -43.770 -55.681  14.995  1.00  0.00    -0.268 OA
HETATM   16  H   UNL     1     -42.313 -52.993  15.801  1.00  0.00     0.162 HD
BRANCH  14  17
HETATM   17  C   UNL     1     -44.562 -53.440  14.637  1.00  0.00     0.006 C 
HETATM   18  C   UNL     1     -44.650 -52.215  15.204  1.00  0.00    -0.014 C 
HETATM   19  C   UNL     1     -45.591 -51.083  14.887  1.00  0.00     0.028 C 
HETATM   20  C   UNL     1     -46.826 -51.408  14.058  1.00  0.00     0.004 C 
HETATM   21  C   UNL     1     -46.525 -51.723  12.597  1.00  0.00     0.001 C 
HETATM   22  C   UNL     1     -45.432 -52.760  12.353  1.00  0.00     0.005 C 
HETATM   23  C   UNL     1     -45.353 -53.860  13.413  1.00  0.00     0.044 C 
ENDBRANCH  14  17
ENDBRANCH   1  13
TORSDOF 5
ENDMDL
MODEL 3
REMARK VINA RESULT:      -5.7      1.703      2.347
REMARK  5 active torsions:
REMARK  status: ('A' for Active; 'I' for Inactive)
REMARK    1  A    between atoms: N_2  and  C_4 
REMARK    2  A    between atoms: C_4  and  C_5 
REMARK    3  A    between atoms: C_4  and  C_16 
REMARK    4  A    between atoms: C_5  and  N_6 
REMARK       I    between atoms: N_6  and  C_7 
REMARK    5  A    between atoms: C_7  and  C_9 
ROOT
HETATM    1  C   UNL     1     -41.142 -50.538  11.591  1.00  0.00     0.163 C 
ENDROOT
BRANCH   1   2
HETATM    2  C   UNL     1     -40.847 -49.005  11.638  1.00  0.00     0.275 C 
BRANCH   2   3
HETATM    3  N   UNL     1     -40.356 -48.443  12.928  1.00  0.00     0.090 N 
HETATM    4  C   UNL     1     -39.698 -49.376  13.839  1.00  0.00     0.310 C 
HETATM    5  C   UNL     1     -39.508 -47.268  12.726  1.00  0.00     0.310 C 
ENDBRANCH   2   3
BRANCH   2   6
HETATM    6  C   UNL     1     -42.004 -48.162  11.132  1.00  0.00     0.011 A 
HETATM    7  C   UNL     1     -42.993 -47.463  11.873  1.00  0.00     0.118 A 
HETATM    8  N   UNL     1     -43.832 -46.768  11.104  1.00  0.00    -0.310 N 
HETATM    9  N   UNL     1     -43.414 -47.041   9.858  1.00  0.00    -0.308 N 
ATOM     10  HN  UNL     1     -44.606 -46.170  11.394  1.00  0.00     0.186 HD
HETATM   11  C   UNL     1     -44.055 -46.410   8.731  1.00  0.00     0.177 C 
HETATM   12  C   UNL     1     -42.354 -47.897   9.818  1.00  0.00     0.120 A 
ENDBRANCH   2   6
ENDBRANCH   1   2
BRANCH   1  13
HETATM   13  N   UNL     1     -42.413 -50.904  12.195  1.00  0.00    -0.355 N 
HETATM   14  C   UNL     1     -42.546 -51.879  13.144  1.00  0.00     0.247 C 
HETATM   15  O   UNL     1     -41.577 -52.472  13.604  1.00  0.00    -0.268 OA
HETATM   16  H   UNL     1     -43.229 -50.449  11.824  1.00  0.00     0.162 HD
BRANCH  14  17
HETATM   17  C   UNL     1     -43.958 -52.144  13.614  1.00  0.00     0.006 C 
HETATM   18  C   UNL     1     -44.993 -51.346  13.264  1.00  0.00    -0.014 C 
HETATM   19  C   UNL     1     -46.441 -51.434  13.666  1.00  0.00     0.028 C 
HETATM   20  C   UNL     1     -46.788 -52.310  14.862  1.00  0.00     0.004 C 
HETATM   21  C   UNL     1     -46.650 -53.804  14.593  1.00  0.00     0.001 C 
HETATM   22  C   UNL     1     -45.329 -54.249  13.972  1.00  0.00     0.005 C 
HETATM   23  C   UNL     1     -44.114 -53.427  14.407  1.00  0.00     0.044 C 
ENDBRANCH  14  17
ENDBRANCH   1  13
TORSDOF 5
ENDMDL
MODEL 4
REMARK VINA RESULT:      -5.7      1.707      2.565
REMARK  5 active torsions:
REMARK  status: ('A' for Active; 'I' for Inactive)
REMARK    1  A    between atoms: N_2  and  C_4 
REMARK    2  A    between atoms: C_4  and  C_5 
REMARK    3  A    between atoms: C_4  and  C_16 
REMARK    4  A    between atoms: C_5  and  N_6 
REMARK       I    between atoms: N_6  and  C_7 
REMARK    5  A    between atoms: C_7  and  C_9 
ROOT
HETATM    1  C   UNL     1     -42.387 -47.662  12.141  1.00  0.00     0.163 C 
ENDROOT
BRANCH   1   2
HETATM    2  C   UNL     1     -42.096 -47.310  10.647  1.00  0.00     0.275 C 
BRANCH   2   3
HETATM    3  N   UNL     1     -41.464 -45.989  10.366  1.00  0.00     0.090 N 
HETATM    4  C   UNL     1     -42.127 -44.815  10.927  1.00  0.00     0.310 C 
HETATM    5  C   UNL     1     -40.046 -45.975  10.724  1.00  0.00     0.310 C 
ENDBRANCH   2   3
BRANCH   2   6
HETATM    6  C   UNL     1     -43.308 -47.487   9.749  1.00  0.00     0.011 A 
HETATM    7  C   UNL     1     -43.361 -47.660   8.341  1.00  0.00     0.118 A 
HETATM    8  N   UNL     1     -44.599 -47.847   7.881  1.00  0.00    -0.310 N 
HETATM    9  N   UNL     1     -45.359 -47.759   8.983  1.00  0.00    -0.308 N 
ATOM     10  HN  UNL     1     -44.896 -48.016   6.919  1.00  0.00     0.186 HD
HETATM   11  C   UNL     1     -46.783 -47.970   8.892  1.00  0.00     0.177 C 
HETATM   12  C   UNL     1     -44.644 -47.506  10.116  1.00  0.00     0.120 A 
ENDBRANCH   2   6
ENDBRANCH   1   2
BRANCH   1  13
HETATM   13  N   UNL     1     -42.161 -49.061  12.463  1.00  0.00    -0.355 N 
HETATM   14  C   UNL     1     -40.931 -49.582  12.755  1.00  0.00     0.247 C 
HETATM   15  O   UNL     1     -39.931 -48.878  12.830  1.00  0.00    -0.268 OA
HETATM   16  H   UNL     1     -42.960 -49.669  12.390  1.00  0.00     0.162 HD
BRANCH  14  17
HETATM   17  C   UNL     1     -40.897 -51.070  13.017  1.00  0.00     0.006 C 
HETATM   18  C   UNL     1     -40.068 -51.618  13.936  1.00  0.00    -0.014 C 
HETATM   19  C   UNL     1     -39.872 -53.066  14.299  1.00  0.00     0.028 C 
HETATM   20  C   UNL     1     -40.405 -54.112  13.330  1.00  0.00     0.004 C 
HETATM   21  C   UNL     1     -41.926 -54.204  13.295  1.00  0.00     0.001 C 
HETATM   22  C   UNL     1     -42.669 -52.883  13.115  1.00  0.00     0.005 C 
HETATM   23  C   UNL     1     -41.937 -51.858  12.246  1.00  0.00     0.044 C 
ENDBRANCH  14  17
ENDBRANCH   1  13
TORSDOF 5
ENDMDL
MODEL 5
REMARK VINA RESULT:      -5.6      2.009      3.047
REMARK  5 active torsions:
REMARK  status: ('A' for Active; 'I' for Inactive)
REMARK    1  A    between atoms: N_2  and  C_4 
REMARK    2  A    between atoms: C_4  and  C_5 
REMARK    3  A    between atoms: C_4  and  C_16 
REMARK    4  A    between atoms: C_5  and  N_6 
REMARK       I    between atoms: N_6  and  C_7 
REMARK    5  A    between atoms: C_7  and  C_9 
ROOT
HETATM    1  C   UNL     1     -40.604 -49.555  13.617  1.00  0.00     0.163 C 
ENDROOT
BRANCH   1   2
HETATM    2  C   UNL     1     -39.943 -49.303  12.225  1.00  0.00     0.275 C 
BRANCH   2   3
HETATM    3  N   UNL     1     -38.488 -48.978  12.209  1.00  0.00     0.090 N 
HETATM    4  C   UNL     1     -37.844 -48.798  13.508  1.00  0.00     0.310 C 
HETATM    5  C   UNL     1     -37.724 -49.933  11.406  1.00  0.00     0.310 C 
ENDBRANCH   2   3
BRANCH   2   6
HETATM    6  C   UNL     1     -40.693 -48.282  11.387  1.00  0.00     0.011 A 
HETATM    7  C   UNL     1     -40.342 -46.940  11.086  1.00  0.00     0.118 A 
HETATM    8  N   UNL     1     -41.207 -46.343  10.266  1.00  0.00    -0.310 N 
HETATM    9  N   UNL     1     -42.142 -47.282  10.059  1.00  0.00    -0.308 N 
ATOM     10  HN  UNL     1     -41.166 -45.397   9.885  1.00  0.00     0.186 HD
HETATM   11  C   UNL     1     -43.237 -47.020   9.157  1.00  0.00     0.177 C 
HETATM   12  C   UNL     1     -41.905 -48.442  10.735  1.00  0.00     0.120 A 
ENDBRANCH   2   6
ENDBRANCH   1   2
BRANCH   1  13
HETATM   13  N   UNL     1     -41.670 -50.545  13.584  1.00  0.00    -0.355 N 
HETATM   14  C   UNL     1     -42.985 -50.248  13.806  1.00  0.00     0.247 C 
HETATM   15  O   UNL     1     -43.369 -49.098  13.985  1.00  0.00    -0.268 OA
HETATM   16  H   UNL     1     -41.384 -51.501  13.459  1.00  0.00     0.162 HD
BRANCH  14  17
HETATM   17  C   UNL     1     -43.934 -51.424  13.775  1.00  0.00     0.006 C 
HETATM   18  C   UNL     1     -45.249 -51.277  13.491  1.00  0.00    -0.014 C 
HETATM   19  C   UNL     1     -46.338 -52.317  13.455  1.00  0.00     0.028 C 
HETATM   20  C   UNL     1     -46.053 -53.656  14.120  1.00  0.00     0.004 C 
HETATM   21  C   UNL     1     -45.043 -54.517  13.370  1.00  0.00     0.001 C 
HETATM   22  C   UNL     1     -43.738 -53.827  12.984  1.00  0.00     0.005 C 
HETATM   23  C   UNL     1     -43.262 -52.767  13.979  1.00  0.00     0.044 C 
ENDBRANCH  14  17
ENDBRANCH   1  13
TORSDOF 5
ENDMDL
MODEL 6
REMARK VINA RESULT:      -5.4      2.445      3.878
REMARK  5 active torsions:
REMARK  status: ('A' for Active; 'I' for Inactive)
REMARK    1  A    between atoms: N_2  and  C_4 
REMARK    2  A    between atoms: C_4  and  C_5 
REMARK    3  A    between atoms: C_4  and  C_16 
REMARK    4  A    between atoms: C_5  and  N_6 
REMARK       I    between atoms: N_6  and  C_7 
REMARK    5  A    between atoms: C_7  and  C_9 
ROOT
HETATM    1  C   UNL     1     -39.585 -51.247  14.016  1.00  0.00     0.163 C 
ENDROOT
BRANCH   1   2
HETATM    2  C   UNL     1     -39.101 -49.861  13.483  1.00  0.00     0.275 C 
BRANCH   2   3
HETATM    3  N   UNL     1     -38.861 -48.788  14.490  1.00  0.00     0.090 N 
HETATM    4  C   UNL     1     -39.017 -49.162  15.893  1.00  0.00     0.310 C 
HETATM    5  C   UNL     1     -37.567 -48.134  14.293  1.00  0.00     0.310 C 
ENDBRANCH   2   3
BRANCH   2   6
HETATM    6  C   UNL     1     -39.976 -49.315  12.368  1.00  0.00     0.011 A 
HETATM    7  C   UNL     1     -40.161 -49.810  11.050  1.00  0.00     0.118 A 
HETATM    8  N   UNL     1     -41.055 -49.113  10.348  1.00  0.00    -0.310 N 
HETATM    9  N   UNL     1     -41.428 -48.140  11.193  1.00  0.00    -0.308 N 
ATOM     10  HN  UNL     1     -41.378 -49.281   9.395  1.00  0.00     0.186 HD
HETATM   11  C   UNL     1     -42.449 -47.200  10.801  1.00  0.00     0.177 C 
HETATM   12  C   UNL     1     -40.786 -48.190  12.395  1.00  0.00     0.120 A 
ENDBRANCH   2   6
ENDBRANCH   1   2
BRANCH   1  13
HETATM   13  N   UNL     1     -41.026 -51.431  13.934  1.00  0.00    -0.355 N 
HETATM   14  C   UNL     1     -41.624 -52.380  13.155  1.00  0.00     0.247 C 
HETATM   15  O   UNL     1     -40.973 -53.197  12.513  1.00  0.00    -0.268 OA
HETATM   16  H   UNL     1     -41.588 -50.763  14.434  1.00  0.00     0.162 HD
BRANCH  14  17
HETATM   17  C   UNL     1     -43.136 -52.380  13.170  1.00  0.00     0.006 C 
HETATM   18  C   UNL     1     -43.854 -53.527  13.123  1.00  0.00    -0.014 C 
HETATM   19  C   UNL     1     -45.347 -53.714  13.089  1.00  0.00     0.028 C 
HETATM   20  C   UNL     1     -46.200 -52.503  12.740  1.00  0.00     0.004 C 
HETATM   21  C   UNL     1     -46.240 -51.440  13.832  1.00  0.00     0.001 C 
HETATM   22  C   UNL     1     -44.886 -50.997  14.379  1.00  0.00     0.005 C 
HETATM   23  C   UNL     1     -43.753 -51.008  13.351  1.00  0.00     0.044 C 
ENDBRANCH  14  17
ENDBRANCH   1  13
TORSDOF 5
ENDMDL
MODEL 7
REMARK VINA RESULT:      -5.4      2.708      6.966
REMARK  5 active torsions:
REMARK  status: ('A' for Active; 'I' for Inactive)
REMARK    1  A    between atoms: N_2  and  C_4 
REMARK    2  A    between atoms: C_4  and  C_5 
REMARK    3  A    between atoms: C_4  and  C_16 
REMARK    4  A    between atoms: C_5  and  N_6 
REMARK       I    between atoms: N_6  and  C_7 
REMARK    5  A    between atoms: C_7  and  C_9 
ROOT
HETATM    1  C   UNL     1     -41.321 -52.000  12.032  1.00  0.00     0.163 C 
ENDROOT
BRANCH   1   2
HETATM    2  C   UNL     1     -41.323 -52.263  13.572  1.00  0.00     0.275 C 
BRANCH   2   3
HETATM    3  N   UNL     1     -40.095 -52.867  14.163  1.00  0.00     0.090 N 
HETATM    4  C   UNL     1     -39.764 -54.225  13.738  1.00  0.00     0.310 C 
HETATM    5  C   UNL     1     -38.927 -52.000  14.002  1.00  0.00     0.310 C 
ENDBRANCH   2   3
BRANCH   2   6
HETATM    6  C   UNL     1     -42.539 -53.042  14.040  1.00  0.00     0.011 A 
HETATM    7  C   UNL     1     -43.126 -53.093  15.332  1.00  0.00     0.118 A 
HETATM    8  N   UNL     1     -44.232 -53.837  15.377  1.00  0.00    -0.310 N 
HETATM    9  N   UNL     1     -44.348 -54.303  14.124  1.00  0.00    -0.308 N 
ATOM     10  HN  UNL     1     -44.844 -54.011  16.175  1.00  0.00     0.186 HD
HETATM   11  C   UNL     1     -45.481 -55.118  13.762  1.00  0.00     0.177 C 
HETATM   12  C   UNL     1     -43.344 -53.891  13.298  1.00  0.00     0.120 A 
ENDBRANCH   2   6
ENDBRANCH   1   2
BRANCH   1  13
HETATM   13  N   UNL     1     -41.627 -50.623  11.677  1.00  0.00    -0.355 N 
HETATM   14  C   UNL     1     -40.674 -49.684  11.397  1.00  0.00     0.247 C 
HETATM   15  O   UNL     1     -39.481 -49.963  11.361  1.00  0.00    -0.268 OA
HETATM   16  H   UNL     1     -42.597 -50.359  11.718  1.00  0.00     0.162 HD
BRANCH  14  17
HETATM   17  C   UNL     1     -41.193 -48.297  11.096  1.00  0.00     0.006 C 
HETATM   18  C   UNL     1     -40.372 -47.223  11.029  1.00  0.00    -0.014 C 
HETATM   19  C   UNL     1     -40.712 -45.777  10.783  1.00  0.00     0.028 C 
HETATM   20  C   UNL     1     -42.169 -45.362  10.940  1.00  0.00     0.004 C 
HETATM   21  C   UNL     1     -43.083 -45.887   9.839  1.00  0.00     0.001 C 
HETATM   22  C   UNL     1     -42.984 -47.382   9.550  1.00  0.00     0.005 C 
HETATM   23  C   UNL     1     -42.673 -48.246  10.774  1.00  0.00     0.044 C 
ENDBRANCH  14  17
ENDBRANCH   1  13
TORSDOF 5
ENDMDL
MODEL 8
REMARK VINA RESULT:      -5.3      2.935      6.805
REMARK  5 active torsions:
REMARK  status: ('A' for Active; 'I' for Inactive)
REMARK    1  A    between atoms: N_2  and  C_4 
REMARK    2  A    between atoms: C_4  and  C_5 
REMARK    3  A    between atoms: C_4  and  C_16 
REMARK    4  A    between atoms: C_5  and  N_6 
REMARK       I    between atoms: N_6  and  C_7 
REMARK    5  A    between atoms: C_7  and  C_9 
ROOT
HETATM    1  C   UNL     1     -41.554 -52.531  11.837  1.00  0.00     0.163 C 
ENDROOT
BRANCH   1   2
HETATM    2  C   UNL     1     -42.078 -52.908  13.258  1.00  0.00     0.275 C 
BRANCH   2   3
HETATM    3  N   UNL     1     -41.578 -54.180  13.856  1.00  0.00     0.090 N 
HETATM    4  C   UNL     1     -40.167 -54.491  13.643  1.00  0.00     0.310 C 
HETATM    5  C   UNL     1     -41.897 -54.276  15.280  1.00  0.00     0.310 C 
ENDBRANCH   2   3
BRANCH   2   6
HETATM    6  C   UNL     1     -43.593 -52.868  13.362  1.00  0.00     0.011 A 
HETATM    7  C   UNL     1     -44.547 -53.817  12.909  1.00  0.00     0.118 A 
HETATM    8  N   UNL     1     -45.802 -53.490  13.221  1.00  0.00    -0.310 N 
HETATM    9  N   UNL     1     -45.672 -52.310  13.847  1.00  0.00    -0.308 N 
ATOM     10  HN  UNL     1     -46.656 -54.014  13.030  1.00  0.00     0.186 HD
HETATM   11  C   UNL     1     -46.835 -51.656  14.394  1.00  0.00     0.177 C 
HETATM   12  C   UNL     1     -44.382 -51.876  13.922  1.00  0.00     0.120 A 
ENDBRANCH   2   6
ENDBRANCH   1   2
BRANCH   1  13
HETATM   13  N   UNL     1     -41.364 -51.101  11.648  1.00  0.00    -0.355 N 
HETATM   14  C   UNL     1     -40.182 -50.457  11.882  1.00  0.00     0.247 C 
HETATM   15  O   UNL     1     -39.168 -51.063  12.210  1.00  0.00    -0.268 OA
HETATM   16  H   UNL     1     -42.184 -50.574  11.398  1.00  0.00     0.162 HD
BRANCH  14  17
HETATM   17  C   UNL     1     -40.200 -48.961  11.672  1.00  0.00     0.006 C 
HETATM   18  C   UNL     1     -41.182 -48.346  10.973  1.00  0.00    -0.014 C 
HETATM   19  C   UNL     1     -41.340 -46.888  10.633  1.00  0.00     0.028 C 
HETATM   20  C   UNL     1     -40.119 -45.993  10.791  1.00  0.00     0.004 C 
HETATM   21  C   UNL     1     -39.725 -45.734  12.241  1.00  0.00     0.001 C 
HETATM   22  C   UNL     1     -39.597 -46.970  13.126  1.00  0.00     0.005 C 
HETATM   23  C   UNL     1     -39.096 -48.220  12.400  1.00  0.00     0.044 C 
ENDBRANCH  14  17
ENDBRANCH   1  13
TORSDOF 5
ENDMDL
MODEL 9
REMARK VINA RESULT:      -5.3      3.527      5.569
REMARK  5 active torsions:
REMARK  status: ('A' for Active; 'I' for Inactive)
REMARK    1  A    between atoms: N_2  and  C_4 
REMARK    2  A    between atoms: C_4  and  C_5 
REMARK    3  A    between atoms: C_4  and  C_16 
REMARK    4  A    between atoms: C_5  and  N_6 
REMARK       I    between atoms: N_6  and  C_7 
REMARK    5  A    between atoms: C_7  and  C_9 
ROOT
HETATM    1  C   UNL     1     -41.168 -49.825  13.986  1.00  0.00     0.163 C 
ENDROOT
BRANCH   1   2
HETATM    2  C   UNL     1     -39.949 -50.511  13.291  1.00  0.00     0.275 C 
BRANCH   2   3
HETATM    3  N   UNL     1     -39.741 -50.229  11.842  1.00  0.00     0.090 N 
HETATM    4  C   UNL     1     -40.646 -49.261  11.228  1.00  0.00     0.310 C 
HETATM    5  C   UNL     1     -38.354 -49.864  11.551  1.00  0.00     0.310 C 
ENDBRANCH   2   3
BRANCH   2   6
HETATM    6  C   UNL     1     -39.902 -52.012  13.521  1.00  0.00     0.011 A 
HETATM    7  C   UNL     1     -40.470 -53.055  12.743  1.00  0.00     0.118 A 
HETATM    8  N   UNL     1     -40.181 -54.272  13.205  1.00  0.00    -0.310 N 
HETATM    9  N   UNL     1     -39.455 -54.025  14.306  1.00  0.00    -0.308 N 
ATOM     10  HN  UNL     1     -40.449 -55.176  12.814  1.00  0.00     0.186 HD
HETATM   11  C   UNL     1     -38.901 -55.121  15.063  1.00  0.00     0.177 C 
HETATM   12  C   UNL     1     -39.293 -52.695  14.562  1.00  0.00     0.120 A 
ENDBRANCH   2   6
ENDBRANCH   1   2
BRANCH   1  13
HETATM   13  N   UNL     1     -42.271 -50.734  14.257  1.00  0.00    -0.355 N 
HETATM   14  C   UNL     1     -43.493 -50.641  13.654  1.00  0.00     0.247 C 
HETATM   15  O   UNL     1     -43.724 -49.811  12.781  1.00  0.00    -0.268 OA
HETATM   16  H   UNL     1     -42.118 -51.413  14.983  1.00  0.00     0.162 HD
BRANCH  14  17
HETATM   17  C   UNL     1     -44.523 -51.651  14.105  1.00  0.00     0.006 C 
HETATM   18  C   UNL     1     -45.804 -51.301  14.366  1.00  0.00    -0.014 C 
HETATM   19  C   UNL     1     -46.943 -52.155  14.858  1.00  0.00     0.028 C 
HETATM   20  C   UNL     1     -46.598 -53.511  15.458  1.00  0.00     0.004 C 
HETATM   21  C   UNL     1     -46.116 -54.534  14.435  1.00  0.00     0.001 C 
HETATM   22  C   UNL     1     -45.005 -54.067  13.500  1.00  0.00     0.005 C 
HETATM   23  C   UNL     1     -44.019 -53.080  14.128  1.00  0.00     0.044 C 
ENDBRANCH  14  17
ENDBRANCH   1  13
TORSDOF 5
ENDMDL
