MODEL 1
REMARK VINA RESULT:      -6.0      0.000      0.000
REMARK  5 active torsions:
REMARK  status: ('A' for Active; 'I' for Inactive)
REMARK    1  A    between atoms: N_5  and  C_6 
REMARK    2  A    between atoms: C_6  and  C_7 
REMARK       I    between atoms: C_7  and  N_9 
REMARK    3  A    between atoms: N_9  and  C_10 
REMARK    4  A    between atoms: C_10  and  C_11 
REMARK    5  A    between atoms: C_11  and  C_12 
ROOT
HETATM    1  C   UNL     1     -43.082 -53.487  12.817  1.00  0.00     0.235 C 
HETATM    2  O   UNL     1     -42.331 -53.872  13.714  1.00  0.00    -0.272 OA
HETATM    3  N   UNL     1     -42.646 -52.671  11.780  1.00  0.00    -0.359 N 
HETATM    4  H   UNL     1     -43.347 -52.104  11.315  1.00  0.00     0.162 HD
ENDROOT
BRANCH   1   5
HETATM    5  C   UNL     1     -44.556 -53.901  12.765  1.00  0.00     0.234 C 
BRANCH   5   6
HETATM    6  N   UNL     1     -45.348 -53.207  13.778  1.00  0.00    -0.316 N 
HETATM    7  C   UNL     1     -45.925 -51.981  13.490  1.00  0.00     0.095 A 
HETATM    8  C   UNL     1     -46.682 -51.340  14.389  1.00  0.00     0.024 A 
HETATM    9  C   UNL     1     -46.934 -51.927  15.687  1.00  0.00    -0.055 A 
HETATM   10  C   UNL     1     -47.846 -51.208  16.638  1.00  0.00     0.048 C 
HETATM   11  C   UNL     1     -46.381 -53.112  15.991  1.00  0.00     0.081 A 
HETATM   12  C   UNL     1     -45.536 -53.838  15.000  1.00  0.00     0.248 A 
HETATM   13  O   UNL     1     -45.056 -54.930  15.298  1.00  0.00    -0.268 OA
ENDBRANCH   5   6
ENDBRANCH   1   5
BRANCH   3  14
HETATM   14  C   UNL     1     -41.267 -52.208  11.804  1.00  0.00     0.127 C 
BRANCH  14  15
HETATM   15  C   UNL     1     -41.094 -50.699  12.015  1.00  0.00     0.053 C 
BRANCH  15  16
HETATM   16  C   UNL     1     -39.836 -50.406  12.818  1.00  0.00    -0.082 A 
HETATM   17  C   UNL     1     -39.070 -49.338  12.551  1.00  0.00    -0.024 A 
HETATM   18  C   UNL     1     -37.856 -48.941  13.321  1.00  0.00     0.027 A 
HETATM   19  C   UNL     1     -37.456 -49.824  14.499  1.00  0.00     0.004 A 
HETATM   20  C   UNL     1     -38.310 -51.049  14.815  1.00  0.00     0.005 A 
HETATM   21  C   UNL     1     -39.517 -51.362  13.930  1.00  0.00     0.034 A 
ENDBRANCH  15  16
ENDBRANCH  14  15
ENDBRANCH   3  14
TORSDOF 5
ENDMDL
MODEL 2
REMARK VINA RESULT:      -6.0      1.579      6.610
REMARK  5 active torsions:
REMARK  status: ('A' for Active; 'I' for Inactive)
REMARK    1  A    between atoms: N_5  and  C_6 
REMARK    2  A    between atoms: C_6  and  C_7 
REMARK       I    between atoms: C_7  and  N_9 
REMARK    3  A    between atoms: N_9  and  C_10 
REMARK    4  A    between atoms: C_10  and  C_11 
REMARK    5  A    between atoms: C_11  and  C_12 
ROOT
HETATM    1  C   UNL     1     -42.346 -53.044  12.787  1.00  0.00     0.235 C 
HETATM    2  O   UNL     1     -42.369 -53.303  13.990  1.00  0.00    -0.272 OA
HETATM    3  N   UNL     1     -43.504 -52.907  12.032  1.00  0.00    -0.359 N 
HETATM    4  H   UNL     1     -43.425 -53.067  11.034  1.00  0.00     0.162 HD
ENDROOT
BRANCH   1   5
HETATM    5  C   UNL     1     -41.029 -52.826  12.033  1.00  0.00     0.234 C 
BRANCH   5   6
HETATM    6  N   UNL     1     -40.406 -51.554  12.391  1.00  0.00    -0.316 N 
HETATM    7  C   UNL     1     -40.989 -50.360  11.998  1.00  0.00     0.095 A 
HETATM    8  C   UNL     1     -40.456 -49.180  12.341  1.00  0.00     0.024 A 
HETATM    9  C   UNL     1     -39.262 -49.123  13.154  1.00  0.00    -0.055 A 
HETATM   10  C   UNL     1     -38.740 -47.781  13.576  1.00  0.00     0.048 C 
HETATM   11  C   UNL     1     -38.676 -50.268  13.543  1.00  0.00     0.081 A 
HETATM   12  C   UNL     1     -39.258 -51.589  13.169  1.00  0.00     0.248 A 
HETATM   13  O   UNL     1     -38.712 -52.622  13.553  1.00  0.00    -0.268 OA
ENDBRANCH   5   6
ENDBRANCH   1   5
BRANCH   3  14
HETATM   14  C   UNL     1     -44.782 -53.148  12.686  1.00  0.00     0.127 C 
BRANCH  14  15
HETATM   15  C   UNL     1     -45.706 -51.928  12.770  1.00  0.00     0.053 C 
BRANCH  15  16
HETATM   16  C   UNL     1     -45.856 -51.462  14.211  1.00  0.00    -0.082 A 
HETATM   17  C   UNL     1     -46.993 -51.658  14.893  1.00  0.00    -0.024 A 
HETATM   18  C   UNL     1     -47.208 -51.289  16.323  1.00  0.00     0.027 A 
HETATM   19  C   UNL     1     -46.043 -50.635  17.058  1.00  0.00     0.004 A 
HETATM   20  C   UNL     1     -44.742 -50.396  16.297  1.00  0.00     0.005 A 
HETATM   21  C   UNL     1     -44.659 -50.797  14.823  1.00  0.00     0.034 A 
ENDBRANCH  15  16
ENDBRANCH  14  15
ENDBRANCH   3  14
TORSDOF 5
ENDMDL
MODEL 3
REMARK VINA RESULT:      -6.0      1.689      2.696
REMARK  5 active torsions:
REMARK  status: ('A' for Active; 'I' for Inactive)
REMARK    1  A    between atoms: N_5  and  C_6 
REMARK    2  A    between atoms: C_6  and  C_7 
REMARK       I    between atoms: C_7  and  N_9 
REMARK    3  A    between atoms: N_9  and  C_10 
REMARK    4  A    between atoms: C_10  and  C_11 
REMARK    5  A    between atoms: C_11  and  C_12 
ROOT
HETATM    1  C   UNL     1     -43.100 -53.607  12.780  1.00  0.00     0.235 C 
HETATM    2  O   UNL     1     -42.292 -54.093  13.572  1.00  0.00    -0.272 OA
HETATM    3  N   UNL     1     -42.734 -52.663  11.828  1.00  0.00    -0.359 N 
HETATM    4  H   UNL     1     -43.463 -52.049  11.483  1.00  0.00     0.162 HD
ENDROOT
BRANCH   1   5
HETATM    5  C   UNL     1     -44.574 -54.026  12.769  1.00  0.00     0.234 C 
BRANCH   5   6
HETATM    6  N   UNL     1     -45.353 -53.284  13.759  1.00  0.00    -0.316 N 
HETATM    7  C   UNL     1     -45.904 -52.056  13.430  1.00  0.00     0.095 A 
HETATM    8  C   UNL     1     -46.649 -51.371  14.307  1.00  0.00     0.024 A 
HETATM    9  C   UNL     1     -46.916 -51.912  15.622  1.00  0.00    -0.055 A 
HETATM   10  C   UNL     1     -47.815 -51.145  16.547  1.00  0.00     0.048 C 
HETATM   11  C   UNL     1     -46.388 -53.098  15.964  1.00  0.00     0.081 A 
HETATM   12  C   UNL     1     -45.557 -53.872  14.998  1.00  0.00     0.248 A 
HETATM   13  O   UNL     1     -45.100 -54.965  15.332  1.00  0.00    -0.268 OA
ENDBRANCH   5   6
ENDBRANCH   1   5
BRANCH   3  14
HETATM   14  C   UNL     1     -41.356 -52.192  11.823  1.00  0.00     0.127 C 
BRANCH  14  15
HETATM   15  C   UNL     1     -41.081 -50.988  12.730  1.00  0.00     0.053 C 
BRANCH  15  16
HETATM   16  C   UNL     1     -41.648 -49.713  12.124  1.00  0.00    -0.082 A 
HETATM   17  C   UNL     1     -41.019 -49.073  11.128  1.00  0.00    -0.024 A 
HETATM   18  C   UNL     1     -41.529 -47.855  10.436  1.00  0.00     0.027 A 
HETATM   19  C   UNL     1     -42.869 -47.295  10.903  1.00  0.00     0.004 A 
HETATM   20  C   UNL     1     -43.598 -48.004  12.041  1.00  0.00     0.005 A 
HETATM   21  C   UNL     1     -42.953 -49.232  12.687  1.00  0.00     0.034 A 
ENDBRANCH  15  16
ENDBRANCH  14  15
ENDBRANCH   3  14
TORSDOF 5
ENDMDL
MODEL 4
REMARK VINA RESULT:      -5.9      1.611      6.602
REMARK  5 active torsions:
REMARK  status: ('A' for Active; 'I' for Inactive)
REMARK    1  A    between atoms: N_5  and  C_6 
REMARK    2  A    between atoms: C_6  and  C_7 
REMARK       I    between atoms: C_7  and  N_9 
REMARK    3  A    between atoms: N_9  and  C_10 
REMARK    4  A    between atoms: C_10  and  C_11 
REMARK    5  A    between atoms: C_11  and  C_12 
ROOT
HETATM    1  C   UNL     1     -42.749 -53.947  13.425  1.00  0.00     0.235 C 
HETATM    2  O   UNL     1     -43.064 -54.032  14.612  1.00  0.00    -0.272 OA
HETATM    3  N   UNL     1     -43.663 -53.611  12.434  1.00  0.00    -0.359 N 
HETATM    4  H   UNL     1     -43.452 -53.915  11.490  1.00  0.00     0.162 HD
ENDROOT
BRANCH   1   5
HETATM    5  C   UNL     1     -41.310 -54.181  12.952  1.00  0.00     0.234 C 
BRANCH   5   6
HETATM    6  N   UNL     1     -40.434 -53.069  13.317  1.00  0.00    -0.316 N 
HETATM    7  C   UNL     1     -39.598 -53.176  14.417  1.00  0.00     0.095 A 
HETATM    8  C   UNL     1     -38.763 -52.185  14.754  1.00  0.00     0.024 A 
HETATM    9  C   UNL     1     -38.698 -50.979  13.959  1.00  0.00    -0.055 A 
HETATM   10  C   UNL     1     -37.696 -49.924  14.331  1.00  0.00     0.048 C 
HETATM   11  C   UNL     1     -39.502 -50.851  12.891  1.00  0.00     0.081 A 
HETATM   12  C   UNL     1     -40.437 -51.946  12.503  1.00  0.00     0.248 A 
HETATM   13  O   UNL     1     -41.150 -51.810  11.510  1.00  0.00    -0.268 OA
ENDBRANCH   5   6
ENDBRANCH   1   5
BRANCH   3  14
HETATM   14  C   UNL     1     -45.054 -53.423  12.820  1.00  0.00     0.127 C 
BRANCH  14  15
HETATM   15  C   UNL     1     -45.533 -51.967  12.825  1.00  0.00     0.053 C 
BRANCH  15  16
HETATM   16  C   UNL     1     -45.775 -51.482  14.246  1.00  0.00    -0.082 A 
HETATM   17  C   UNL     1     -46.965 -51.636  14.844  1.00  0.00    -0.024 A 
HETATM   18  C   UNL     1     -47.273 -51.246  16.250  1.00  0.00     0.027 A 
HETATM   19  C   UNL     1     -46.146 -50.621  17.065  1.00  0.00     0.004 A 
HETATM   20  C   UNL     1     -44.785 -50.429  16.401  1.00  0.00     0.005 A 
HETATM   21  C   UNL     1     -44.606 -50.847  14.940  1.00  0.00     0.034 A 
ENDBRANCH  15  16
ENDBRANCH  14  15
ENDBRANCH   3  14
TORSDOF 5
ENDMDL
MODEL 5
REMARK VINA RESULT:      -5.8      3.157      6.221
REMARK  5 active torsions:
REMARK  status: ('A' for Active; 'I' for Inactive)
REMARK    1  A    between atoms: N_5  and  C_6 
REMARK    2  A    between atoms: C_6  and  C_7 
REMARK       I    between atoms: C_7  and  N_9 
REMARK    3  A    between atoms: N_9  and  C_10 
REMARK    4  A    between atoms: C_10  and  C_11 
REMARK    5  A    between atoms: C_11  and  C_12 
ROOT
HETATM    1  C   UNL     1     -44.813 -53.356  18.026  1.00  0.00     0.235 C 
HETATM    2  O   UNL     1     -44.356 -52.514  18.798  1.00  0.00    -0.272 OA
HETATM    3  N   UNL     1     -46.083 -53.247  17.472  1.00  0.00    -0.359 N 
HETATM    4  H   UNL     1     -46.530 -54.106  17.170  1.00  0.00     0.162 HD
ENDROOT
BRANCH   1   5
HETATM    5  C   UNL     1     -44.002 -54.584  17.594  1.00  0.00     0.234 C 
BRANCH   5   6
HETATM    6  N   UNL     1     -43.264 -54.334  16.357  1.00  0.00    -0.316 N 
HETATM    7  C   UNL     1     -41.933 -53.954  16.407  1.00  0.00     0.095 A 
HETATM    8  C   UNL     1     -41.226 -53.751  15.288  1.00  0.00     0.024 A 
HETATM    9  C   UNL     1     -41.834 -53.947  13.990  1.00  0.00    -0.055 A 
HETATM   10  C   UNL     1     -40.985 -53.780  12.764  1.00  0.00     0.048 C 
HETATM   11  C   UNL     1     -43.124 -54.311  13.918  1.00  0.00     0.081 A 
HETATM   12  C   UNL     1     -43.925 -54.541  15.155  1.00  0.00     0.248 A 
HETATM   13  O   UNL     1     -45.100 -54.891  15.060  1.00  0.00    -0.268 OA
ENDBRANCH   5   6
ENDBRANCH   1   5
BRANCH   3  14
HETATM   14  C   UNL     1     -46.916 -52.127  17.882  1.00  0.00     0.127 C 
BRANCH  14  15
HETATM   15  C   UNL     1     -47.443 -51.257  16.735  1.00  0.00     0.053 C 
BRANCH  15  16
HETATM   16  C   UNL     1     -46.447 -51.217  15.586  1.00  0.00    -0.082 A 
HETATM   17  C   UNL     1     -46.770 -51.669  14.365  1.00  0.00    -0.024 A 
HETATM   18  C   UNL     1     -45.881 -51.614  13.169  1.00  0.00     0.027 A 
HETATM   19  C   UNL     1     -44.497 -51.001  13.354  1.00  0.00     0.004 A 
HETATM   20  C   UNL     1     -44.106 -50.488  14.738  1.00  0.00     0.005 A 
HETATM   21  C   UNL     1     -45.102 -50.627  15.891  1.00  0.00     0.034 A 
ENDBRANCH  15  16
ENDBRANCH  14  15
ENDBRANCH   3  14
TORSDOF 5
ENDMDL
MODEL 6
REMARK VINA RESULT:      -5.8      2.559      5.639
REMARK  5 active torsions:
REMARK  status: ('A' for Active; 'I' for Inactive)
REMARK    1  A    between atoms: N_5  and  C_6 
REMARK    2  A    between atoms: C_6  and  C_7 
REMARK       I    between atoms: C_7  and  N_9 
REMARK    3  A    between atoms: N_9  and  C_10 
REMARK    4  A    between atoms: C_10  and  C_11 
REMARK    5  A    between atoms: C_11  and  C_12 
ROOT
HETATM    1  C   UNL     1     -45.477 -53.813  16.478  1.00  0.00     0.235 C 
HETATM    2  O   UNL     1     -46.123 -54.747  16.003  1.00  0.00    -0.272 OA
HETATM    3  N   UNL     1     -45.857 -52.486  16.316  1.00  0.00    -0.359 N 
HETATM    4  H   UNL     1     -45.127 -51.785  16.390  1.00  0.00     0.162 HD
ENDROOT
BRANCH   1   5
HETATM    5  C   UNL     1     -44.210 -54.046  17.309  1.00  0.00     0.234 C 
BRANCH   5   6
HETATM    6  N   UNL     1     -43.000 -53.814  16.523  1.00  0.00    -0.316 N 
HETATM    7  C   UNL     1     -42.338 -52.600  16.608  1.00  0.00     0.095 A 
HETATM    8  C   UNL     1     -41.210 -52.374  15.924  1.00  0.00     0.024 A 
HETATM    9  C   UNL     1     -40.638 -53.408  15.090  1.00  0.00    -0.055 A 
HETATM   10  C   UNL     1     -39.334 -53.137  14.398  1.00  0.00     0.048 C 
HETATM   11  C   UNL     1     -41.264 -54.591  14.989  1.00  0.00     0.081 A 
HETATM   12  C   UNL     1     -42.522 -54.858  15.744  1.00  0.00     0.248 A 
HETATM   13  O   UNL     1     -43.065 -55.957  15.647  1.00  0.00    -0.268 OA
ENDBRANCH   5   6
ENDBRANCH   1   5
BRANCH   3  14
HETATM   14  C   UNL     1     -47.026 -52.202  15.496  1.00  0.00     0.127 C 
BRANCH  14  15
HETATM   15  C   UNL     1     -46.760 -51.311  14.277  1.00  0.00     0.053 C 
BRANCH  15  16
HETATM   16  C   UNL     1     -45.446 -51.686  13.609  1.00  0.00    -0.082 A 
HETATM   17  C   UNL     1     -44.393 -50.856  13.625  1.00  0.00    -0.024 A 
HETATM   18  C   UNL     1     -43.052 -51.164  13.050  1.00  0.00     0.027 A 
HETATM   19  C   UNL     1     -42.871 -52.526  12.390  1.00  0.00     0.004 A 
HETATM   20  C   UNL     1     -44.059 -53.484  12.354  1.00  0.00     0.005 A 
HETATM   21  C   UNL     1     -45.392 -53.036  12.958  1.00  0.00     0.034 A 
ENDBRANCH  15  16
ENDBRANCH  14  15
ENDBRANCH   3  14
TORSDOF 5
ENDMDL
MODEL 7
REMARK VINA RESULT:      -5.7      3.083      3.906
REMARK  5 active torsions:
REMARK  status: ('A' for Active; 'I' for Inactive)
REMARK    1  A    between atoms: N_5  and  C_6 
REMARK    2  A    between atoms: C_6  and  C_7 
REMARK       I    between atoms: C_7  and  N_9 
REMARK    3  A    between atoms: N_9  and  C_10 
REMARK    4  A    between atoms: C_10  and  C_11 
REMARK    5  A    between atoms: C_11  and  C_12 
ROOT
HETATM    1  C   UNL     1     -42.942 -53.371  12.707  1.00  0.00     0.235 C 
HETATM    2  O   UNL     1     -42.455 -52.329  12.267  1.00  0.00    -0.272 OA
HETATM    3  N   UNL     1     -42.192 -54.306  13.408  1.00  0.00    -0.359 N 
HETATM    4  H   UNL     1     -42.530 -55.262  13.409  1.00  0.00     0.162 HD
ENDROOT
BRANCH   1   5
HETATM    5  C   UNL     1     -44.428 -53.704  12.533  1.00  0.00     0.234 C 
BRANCH   5   6
HETATM    6  N   UNL     1     -45.243 -53.097  13.584  1.00  0.00    -0.316 N 
HETATM    7  C   UNL     1     -45.859 -51.876  13.367  1.00  0.00     0.095 A 
HETATM    8  C   UNL     1     -46.638 -51.314  14.300  1.00  0.00     0.024 A 
HETATM    9  C   UNL     1     -46.873 -51.985  15.560  1.00  0.00    -0.055 A 
HETATM   10  C   UNL     1     -47.809 -51.354  16.549  1.00  0.00     0.048 C 
HETATM   11  C   UNL     1     -46.282 -53.168  15.794  1.00  0.00     0.081 A 
HETATM   12  C   UNL     1     -45.412 -53.806  14.764  1.00  0.00     0.248 A 
HETATM   13  O   UNL     1     -44.898 -54.898  14.998  1.00  0.00    -0.268 OA
ENDBRANCH   5   6
ENDBRANCH   1   5
BRANCH   3  14
HETATM   14  C   UNL     1     -40.765 -54.065  13.563  1.00  0.00     0.127 C 
BRANCH  14  15
HETATM   15  C   UNL     1     -40.333 -53.610  14.962  1.00  0.00     0.053 C 
BRANCH  15  16
HETATM   16  C   UNL     1     -39.847 -54.791  15.788  1.00  0.00    -0.082 A 
HETATM   17  C   UNL     1     -38.540 -55.030  15.964  1.00  0.00    -0.024 A 
HETATM   18  C   UNL     1     -37.975 -56.125  16.804  1.00  0.00     0.027 A 
HETATM   19  C   UNL     1     -38.965 -57.044  17.512  1.00  0.00     0.004 A 
HETATM   20  C   UNL     1     -40.458 -56.794  17.320  1.00  0.00     0.005 A 
HETATM   21  C   UNL     1     -40.909 -55.651  16.409  1.00  0.00     0.034 A 
ENDBRANCH  15  16
ENDBRANCH  14  15
ENDBRANCH   3  14
TORSDOF 5
ENDMDL
MODEL 8
REMARK VINA RESULT:      -5.6      1.100      1.896
REMARK  5 active torsions:
REMARK  status: ('A' for Active; 'I' for Inactive)
REMARK    1  A    between atoms: N_5  and  C_6 
REMARK    2  A    between atoms: C_6  and  C_7 
REMARK       I    between atoms: C_7  and  N_9 
REMARK    3  A    between atoms: N_9  and  C_10 
REMARK    4  A    between atoms: C_10  and  C_11 
REMARK    5  A    between atoms: C_11  and  C_12 
ROOT
HETATM    1  C   UNL     1     -43.238 -54.148  13.416  1.00  0.00     0.235 C 
HETATM    2  O   UNL     1     -42.490 -54.508  14.324  1.00  0.00    -0.272 OA
HETATM    3  N   UNL     1     -42.794 -53.386  12.342  1.00  0.00    -0.359 N 
HETATM    4  H   UNL     1     -43.486 -52.826  11.856  1.00  0.00     0.162 HD
ENDROOT
BRANCH   1   5
HETATM    5  C   UNL     1     -44.721 -54.536  13.388  1.00  0.00     0.234 C 
BRANCH   5   6
HETATM    6  N   UNL     1     -45.525 -53.653  14.231  1.00  0.00    -0.316 N 
HETATM    7  C   UNL     1     -45.731 -53.963  15.565  1.00  0.00     0.095 A 
HETATM    8  C   UNL     1     -46.436 -53.154  16.366  1.00  0.00     0.024 A 
HETATM    9  C   UNL     1     -46.987 -51.917  15.858  1.00  0.00    -0.055 A 
HETATM   10  C   UNL     1     -47.708 -51.006  16.808  1.00  0.00     0.048 C 
HETATM   11  C   UNL     1     -46.805 -51.598  14.567  1.00  0.00     0.081 A 
HETATM   12  C   UNL     1     -46.021 -52.489  13.662  1.00  0.00     0.248 A 
HETATM   13  O   UNL     1     -45.855 -52.164  12.488  1.00  0.00    -0.268 OA
ENDBRANCH   5   6
ENDBRANCH   1   5
BRANCH   3  14
HETATM   14  C   UNL     1     -41.406 -52.949  12.339  1.00  0.00     0.127 C 
BRANCH  14  15
HETATM   15  C   UNL     1     -41.194 -51.470  11.993  1.00  0.00     0.053 C 
BRANCH  15  16
HETATM   16  C   UNL     1     -39.991 -50.908  12.735  1.00  0.00    -0.082 A 
HETATM   17  C   UNL     1     -39.679 -51.318  13.973  1.00  0.00    -0.024 A 
HETATM   18  C   UNL     1     -38.489 -50.867  14.750  1.00  0.00     0.027 A 
HETATM   19  C   UNL     1     -37.559 -49.859  14.082  1.00  0.00     0.004 A 
HETATM   20  C   UNL     1     -37.899 -49.374  12.675  1.00  0.00     0.005 A 
HETATM   21  C   UNL     1     -39.167 -49.895  11.996  1.00  0.00     0.034 A 
ENDBRANCH  15  16
ENDBRANCH  14  15
ENDBRANCH   3  14
TORSDOF 5
ENDMDL
MODEL 9
REMARK VINA RESULT:      -5.5      2.513      7.375
REMARK  5 active torsions:
REMARK  status: ('A' for Active; 'I' for Inactive)
REMARK    1  A    between atoms: N_5  and  C_6 
REMARK    2  A    between atoms: C_6  and  C_7 
REMARK       I    between atoms: C_7  and  N_9 
REMARK    3  A    between atoms: N_9  and  C_10 
REMARK    4  A    between atoms: C_10  and  C_11 
REMARK    5  A    between atoms: C_11  and  C_12 
ROOT
HETATM    1  C   UNL     1     -41.060 -50.477  11.723  1.00  0.00     0.235 C 
HETATM    2  O   UNL     1     -41.994 -49.734  12.027  1.00  0.00    -0.272 OA
HETATM    3  N   UNL     1     -41.180 -51.861  11.722  1.00  0.00    -0.359 N 
HETATM    4  H   UNL     1     -40.326 -52.398  11.834  1.00  0.00     0.162 HD
ENDROOT
BRANCH   1   5
HETATM    5  C   UNL     1     -39.694 -49.926  11.299  1.00  0.00     0.234 C 
BRANCH   5   6
HETATM    6  N   UNL     1     -38.886 -49.541  12.454  1.00  0.00    -0.316 N 
HETATM    7  C   UNL     1     -38.909 -48.234  12.914  1.00  0.00     0.095 A 
HETATM    8  C   UNL     1     -38.203 -47.863  13.990  1.00  0.00     0.024 A 
HETATM    9  C   UNL     1     -37.409 -48.830  14.715  1.00  0.00    -0.055 A 
HETATM   10  C   UNL     1     -36.691 -48.387  15.956  1.00  0.00     0.048 C 
HETATM   11  C   UNL     1     -37.367 -50.101  14.285  1.00  0.00     0.081 A 
HETATM   12  C   UNL     1     -38.148 -50.530  13.089  1.00  0.00     0.248 A 
HETATM   13  O   UNL     1     -38.106 -51.704  12.726  1.00  0.00    -0.268 OA
ENDBRANCH   5   6
ENDBRANCH   1   5
BRANCH   3  14
HETATM   14  C   UNL     1     -42.440 -52.442  12.162  1.00  0.00     0.127 C 
BRANCH  14  15
HETATM   15  C   UNL     1     -42.627 -52.506  13.682  1.00  0.00     0.053 C 
BRANCH  15  16
HETATM   16  C   UNL     1     -44.056 -52.155  14.066  1.00  0.00    -0.082 A 
HETATM   17  C   UNL     1     -44.404 -51.940  15.343  1.00  0.00    -0.024 A 
HETATM   18  C   UNL     1     -45.763 -51.534  15.804  1.00  0.00     0.027 A 
HETATM   19  C   UNL     1     -46.838 -51.356  14.737  1.00  0.00     0.004 A 
HETATM   20  C   UNL     1     -46.466 -51.603  13.277  1.00  0.00     0.005 A 
HETATM   21  C   UNL     1     -45.040 -52.042  12.939  1.00  0.00     0.034 A 
ENDBRANCH  15  16
ENDBRANCH  14  15
ENDBRANCH   3  14
TORSDOF 5
ENDMDL
