MODEL 1
REMARK VINA RESULT:      -5.9      0.000      0.000
REMARK  4 active torsions:
REMARK  status: ('A' for Active; 'I' for Inactive)
REMARK    1  A    between atoms: C_2  and  C_4 
REMARK    2  A    between atoms: C_4  and  N_5 
REMARK       I    between atoms: N_5  and  C_6 
REMARK       I    between atoms: C_6  and  N_8 
REMARK    3  A    between atoms: N_8  and  C_9 
REMARK    4  A    between atoms: C_12  and  N_16 
ROOT
HETATM    1  C   UNL     1     -40.251 -50.557  11.663  1.00  0.00     0.051 A 
HETATM    2  C   UNL     1     -39.103 -50.260  12.382  1.00  0.00     0.034 A 
HETATM    3  C   UNL     1     -38.677 -51.135  13.383  1.00  0.00     0.044 A 
HETATM    4  C   UNL     1     -39.392 -52.302  13.657  1.00  0.00     0.082 A 
HETATM    5  N   UNL     1     -40.529 -52.581  12.976  1.00  0.00    -0.354 N 
ATOM      6  HN  UNL     1     -41.078 -53.413  13.193  1.00  0.00     0.166 HD
HETATM    7  C   UNL     1     -40.919 -51.725  11.999  1.00  0.00     0.119 A 
ENDROOT
BRANCH   1   8
HETATM    8  N   UNL     1     -40.726 -49.734  10.621  1.00  0.00    -0.308 N 
HETATM    9  C   UNL     1     -41.600 -48.694  10.843  1.00  0.00     0.320 C 
HETATM   10  N   UNL     1     -41.893 -48.024   9.673  1.00  0.00    -0.343 N 
HETATM   11  O   UNL     1     -42.109 -48.406  11.919  1.00  0.00    -0.247 OA
HETATM   12  H   UNL     1     -41.074 -47.835   9.112  1.00  0.00     0.164 HD
HETATM   13  H   UNL     1     -40.830 -50.156   9.707  1.00  0.00     0.170 HD
BRANCH  10  14
HETATM   14  C   UNL     1     -42.922 -47.000   9.722  1.00  0.00     0.128 C 
BRANCH  14  15
HETATM   15  C   UNL     1     -43.974 -47.093   8.610  1.00  0.00    -0.005 C 
HETATM   16  C   UNL     1     -43.529 -48.038   7.492  1.00  0.00     0.011 C 
HETATM   17  C   UNL     1     -45.352 -47.481   9.140  1.00  0.00     0.011 C 
ENDBRANCH  14  15
ENDBRANCH  10  14
ENDBRANCH   1   8
BRANCH   4  18
HETATM   18  N   UNL     1     -38.932 -53.180  14.636  1.00  0.00    -0.269 NA
HETATM   19  C   UNL     1     -39.181 -52.823  16.039  1.00  0.00     0.097 C 
HETATM   20  C   UNL     1     -39.424 -54.157  16.743  1.00  0.00     0.016 C 
HETATM   21  C   UNL     1     -40.019 -55.024  15.648  1.00  0.00     0.016 C 
HETATM   22  C   UNL     1     -39.238 -54.598  14.412  1.00  0.00     0.097 C 
ENDBRANCH   4  18
TORSDOF 4
ENDMDL
MODEL 2
REMARK VINA RESULT:      -5.8      3.223      6.999
REMARK  4 active torsions:
REMARK  status: ('A' for Active; 'I' for Inactive)
REMARK    1  A    between atoms: C_2  and  C_4 
REMARK    2  A    between atoms: C_4  and  N_5 
REMARK       I    between atoms: N_5  and  C_6 
REMARK       I    between atoms: C_6  and  N_8 
REMARK    3  A    between atoms: N_8  and  C_9 
REMARK    4  A    between atoms: C_12  and  N_16 
ROOT
HETATM    1  C   UNL     1     -40.695 -49.779  11.382  1.00  0.00     0.051 A 
HETATM    2  C   UNL     1     -39.623 -49.369  12.160  1.00  0.00     0.034 A 
HETATM    3  C   UNL     1     -39.254 -48.023  12.162  1.00  0.00     0.044 A 
HETATM    4  C   UNL     1     -39.958 -47.093  11.394  1.00  0.00     0.082 A 
HETATM    5  N   UNL     1     -40.987 -47.495  10.611  1.00  0.00    -0.354 N 
ATOM      6  HN  UNL     1     -41.485 -46.830  10.019  1.00  0.00     0.166 HD
HETATM    7  C   UNL     1     -41.339 -48.805  10.635  1.00  0.00     0.119 A 
ENDROOT
BRANCH   1   8
HETATM    8  N   UNL     1     -41.141 -51.117  11.352  1.00  0.00    -0.308 N 
HETATM    9  C   UNL     1     -41.941 -51.650  12.337  1.00  0.00     0.320 C 
HETATM   10  N   UNL     1     -42.263 -52.964  12.067  1.00  0.00    -0.343 N 
HETATM   11  O   UNL     1     -42.296 -51.075  13.358  1.00  0.00    -0.247 OA
HETATM   12  H   UNL     1     -42.542 -53.112  11.108  1.00  0.00     0.164 HD
HETATM   13  H   UNL     1     -40.532 -51.799  10.917  1.00  0.00     0.170 HD
BRANCH  10  14
HETATM   14  C   UNL     1     -42.973 -53.709  13.093  1.00  0.00     0.128 C 
BRANCH  14  15
HETATM   15  C   UNL     1     -44.425 -54.055  12.746  1.00  0.00    -0.005 C 
HETATM   16  C   UNL     1     -45.038 -55.009  13.775  1.00  0.00     0.011 C 
HETATM   17  C   UNL     1     -45.296 -52.814  12.564  1.00  0.00     0.011 C 
ENDBRANCH  14  15
ENDBRANCH  10  14
ENDBRANCH   1   8
BRANCH   4  18
HETATM   18  N   UNL     1     -39.596 -45.748  11.435  1.00  0.00    -0.269 NA
HETATM   19  C   UNL     1     -40.078 -44.883  10.350  1.00  0.00     0.097 C 
HETATM   20  C   UNL     1     -40.339 -43.532  11.016  1.00  0.00     0.016 C 
HETATM   21  C   UNL     1     -40.703 -43.912  12.440  1.00  0.00     0.016 C 
HETATM   22  C   UNL     1     -39.773 -45.082  12.731  1.00  0.00     0.097 C 
ENDBRANCH   4  18
TORSDOF 4
ENDMDL
MODEL 3
REMARK VINA RESULT:      -5.7      2.799      7.630
REMARK  4 active torsions:
REMARK  status: ('A' for Active; 'I' for Inactive)
REMARK    1  A    between atoms: C_2  and  C_4 
REMARK    2  A    between atoms: C_4  and  N_5 
REMARK       I    between atoms: N_5  and  C_6 
REMARK       I    between atoms: C_6  and  N_8 
REMARK    3  A    between atoms: N_8  and  C_9 
REMARK    4  A    between atoms: C_12  and  N_16 
ROOT
HETATM    1  C   UNL     1     -40.832 -48.817  10.826  1.00  0.00     0.051 A 
HETATM    2  C   UNL     1     -39.881 -47.979  11.388  1.00  0.00     0.034 A 
HETATM    3  C   UNL     1     -40.032 -46.596  11.269  1.00  0.00     0.044 A 
HETATM    4  C   UNL     1     -41.130 -46.057  10.596  1.00  0.00     0.082 A 
HETATM    5  N   UNL     1     -42.045 -46.874  10.021  1.00  0.00    -0.354 N 
ATOM      6  HN  UNL     1     -42.832 -46.491   9.497  1.00  0.00     0.166 HD
HETATM    7  C   UNL     1     -41.888 -48.214  10.161  1.00  0.00     0.119 A 
ENDROOT
BRANCH   1   8
HETATM    8  N   UNL     1     -40.759 -50.222  10.931  1.00  0.00    -0.308 N 
HETATM    9  C   UNL     1     -41.074 -50.892  12.091  1.00  0.00     0.320 C 
HETATM   10  N   UNL     1     -40.950 -52.257  11.932  1.00  0.00    -0.343 N 
HETATM   11  O   UNL     1     -41.379 -50.372  13.156  1.00  0.00    -0.247 OA
HETATM   12  H   UNL     1     -41.361 -52.593  11.072  1.00  0.00     0.164 HD
HETATM   13  H   UNL     1     -40.056 -50.692  10.374  1.00  0.00     0.170 HD
BRANCH  10  14
HETATM   14  C   UNL     1     -41.099 -53.089  13.114  1.00  0.00     0.128 C 
BRANCH  14  15
HETATM   15  C   UNL     1     -42.330 -54.003  13.105  1.00  0.00    -0.005 C 
HETATM   16  C   UNL     1     -42.580 -54.623  14.482  1.00  0.00     0.011 C 
HETATM   17  C   UNL     1     -43.580 -53.296  12.588  1.00  0.00     0.011 C 
ENDBRANCH  14  15
ENDBRANCH  10  14
ENDBRANCH   1   8
BRANCH   4  18
HETATM   18  N   UNL     1     -41.282 -44.674  10.516  1.00  0.00    -0.269 NA
HETATM   19  C   UNL     1     -42.444 -44.080  11.188  1.00  0.00     0.097 C 
HETATM   20  C   UNL     1     -41.947 -42.730  11.705  1.00  0.00     0.016 C 
HETATM   21  C   UNL     1     -40.470 -42.977  11.953  1.00  0.00     0.016 C 
HETATM   22  C   UNL     1     -40.076 -43.887  10.796  1.00  0.00     0.097 C 
ENDBRANCH   4  18
TORSDOF 4
ENDMDL
MODEL 4
REMARK VINA RESULT:      -5.5      3.210      7.426
REMARK  4 active torsions:
REMARK  status: ('A' for Active; 'I' for Inactive)
REMARK    1  A    between atoms: C_2  and  C_4 
REMARK    2  A    between atoms: C_4  and  N_5 
REMARK       I    between atoms: N_5  and  C_6 
REMARK       I    between atoms: C_6  and  N_8 
REMARK    3  A    between atoms: N_8  and  C_9 
REMARK    4  A    between atoms: C_12  and  N_16 
ROOT
HETATM    1  C   UNL     1     -40.801 -48.932  11.306  1.00  0.00     0.051 A 
HETATM    2  C   UNL     1     -41.519 -47.960  10.625  1.00  0.00     0.034 A 
HETATM    3  C   UNL     1     -41.130 -46.623  10.729  1.00  0.00     0.044 A 
HETATM    4  C   UNL     1     -40.026 -46.264  11.505  1.00  0.00     0.082 A 
HETATM    5  N   UNL     1     -39.340 -47.207  12.194  1.00  0.00    -0.354 N 
ATOM      6  HN  UNL     1     -38.554 -46.951  12.791  1.00  0.00     0.166 HD
HETATM    7  C   UNL     1     -39.725 -48.501  12.068  1.00  0.00     0.119 A 
ENDROOT
BRANCH   1   8
HETATM    8  N   UNL     1     -41.119 -50.303  11.226  1.00  0.00    -0.308 N 
HETATM    9  C   UNL     1     -41.974 -50.915  12.114  1.00  0.00     0.320 C 
HETATM   10  N   UNL     1     -42.146 -52.249  11.810  1.00  0.00    -0.343 N 
HETATM   11  O   UNL     1     -42.491 -50.384  13.088  1.00  0.00    -0.247 OA
HETATM   12  H   UNL     1     -42.301 -52.412  10.825  1.00  0.00     0.164 HD
HETATM   13  H   UNL     1     -40.408 -50.924  10.862  1.00  0.00     0.170 HD
BRANCH  10  14
HETATM   14  C   UNL     1     -42.898 -53.064  12.750  1.00  0.00     0.128 C 
BRANCH  14  15
HETATM   15  C   UNL     1     -42.143 -54.286  13.286  1.00  0.00    -0.005 C 
HETATM   16  C   UNL     1     -40.628 -54.097  13.195  1.00  0.00     0.011 C 
HETATM   17  C   UNL     1     -42.565 -54.657  14.706  1.00  0.00     0.011 C 
ENDBRANCH  14  15
ENDBRANCH  10  14
ENDBRANCH   1   8
BRANCH   4  18
HETATM   18  N   UNL     1     -39.632 -44.928  11.570  1.00  0.00    -0.269 NA
HETATM   19  C   UNL     1     -40.553 -43.923  11.024  1.00  0.00     0.097 C 
HETATM   20  C   UNL     1     -40.384 -42.706  11.933  1.00  0.00     0.016 C 
HETATM   21  C   UNL     1     -40.004 -43.321  13.268  1.00  0.00     0.016 C 
HETATM   22  C   UNL     1     -39.106 -44.484  12.866  1.00  0.00     0.097 C 
ENDBRANCH   4  18
TORSDOF 4
ENDMDL
MODEL 5
REMARK VINA RESULT:      -5.4      2.872      3.581
REMARK  4 active torsions:
REMARK  status: ('A' for Active; 'I' for Inactive)
REMARK    1  A    between atoms: C_2  and  C_4 
REMARK    2  A    between atoms: C_4  and  N_5 
REMARK       I    between atoms: N_5  and  C_6 
REMARK       I    between atoms: C_6  and  N_8 
REMARK    3  A    between atoms: N_8  and  C_9 
REMARK    4  A    between atoms: C_12  and  N_16 
ROOT
HETATM    1  C   UNL     1     -39.710 -48.898  11.594  1.00  0.00     0.051 A 
HETATM    2  C   UNL     1     -38.866 -49.295  12.620  1.00  0.00     0.034 A 
HETATM    3  C   UNL     1     -38.928 -50.610  13.087  1.00  0.00     0.044 A 
HETATM    4  C   UNL     1     -39.825 -51.521  12.526  1.00  0.00     0.082 A 
HETATM    5  N   UNL     1     -40.671 -51.129  11.543  1.00  0.00    -0.354 N 
ATOM      6  HN  UNL     1     -41.354 -51.776  11.151  1.00  0.00     0.166 HD
HETATM    7  C   UNL     1     -40.585 -49.851  11.094  1.00  0.00     0.119 A 
ENDROOT
BRANCH   1   8
HETATM    8  N   UNL     1     -39.685 -47.595  11.054  1.00  0.00    -0.308 N 
HETATM    9  C   UNL     1     -40.481 -46.582  11.536  1.00  0.00     0.320 C 
HETATM   10  N   UNL     1     -40.253 -45.400  10.863  1.00  0.00    -0.343 N 
HETATM   11  O   UNL     1     -41.328 -46.694  12.413  1.00  0.00    -0.247 OA
HETATM   12  H   UNL     1     -39.271 -45.202  10.736  1.00  0.00     0.164 HD
HETATM   13  H   UNL     1     -39.476 -47.507  10.068  1.00  0.00     0.170 HD
BRANCH  10  14
HETATM   14  C   UNL     1     -41.130 -44.278  11.154  1.00  0.00     0.128 C 
BRANCH  14  15
HETATM   15  C   UNL     1     -40.408 -42.989  11.565  1.00  0.00    -0.005 C 
HETATM   16  C   UNL     1     -41.363 -41.793  11.589  1.00  0.00     0.011 C 
HETATM   17  C   UNL     1     -39.671 -43.129  12.894  1.00  0.00     0.011 C 
ENDBRANCH  14  15
ENDBRANCH  10  14
ENDBRANCH   1   8
BRANCH   4  18
HETATM   18  N   UNL     1     -39.849 -52.837  12.982  1.00  0.00    -0.269 NA
HETATM   19  C   UNL     1     -39.482 -53.076  14.384  1.00  0.00     0.097 C 
HETATM   20  C   UNL     1     -40.374 -54.235  14.828  1.00  0.00     0.016 C 
HETATM   21  C   UNL     1     -41.615 -54.065  13.971  1.00  0.00     0.016 C 
HETATM   22  C   UNL     1     -41.048 -53.608  12.633  1.00  0.00     0.097 C 
ENDBRANCH   4  18
TORSDOF 4
ENDMDL
MODEL 6
REMARK VINA RESULT:      -5.4      4.250      9.286
REMARK  4 active torsions:
REMARK  status: ('A' for Active; 'I' for Inactive)
REMARK    1  A    between atoms: C_2  and  C_4 
REMARK    2  A    between atoms: C_4  and  N_5 
REMARK       I    between atoms: N_5  and  C_6 
REMARK       I    between atoms: C_6  and  N_8 
REMARK    3  A    between atoms: N_8  and  C_9 
REMARK    4  A    between atoms: C_12  and  N_16 
ROOT
HETATM    1  C   UNL     1     -40.956 -45.523  10.835  1.00  0.00     0.051 A 
HETATM    2  C   UNL     1     -40.041 -44.486  10.942  1.00  0.00     0.034 A 
HETATM    3  C   UNL     1     -40.489 -43.210  11.287  1.00  0.00     0.044 A 
HETATM    4  C   UNL     1     -41.844 -42.975  11.528  1.00  0.00     0.082 A 
HETATM    5  N   UNL     1     -42.744 -43.979  11.397  1.00  0.00    -0.354 N 
ATOM      6  HN  UNL     1     -43.740 -43.810  11.537  1.00  0.00     0.166 HD
HETATM    7  C   UNL     1     -42.286 -45.214  11.075  1.00  0.00     0.119 A 
ENDROOT
BRANCH   1   8
HETATM    8  N   UNL     1     -40.571 -46.842  10.517  1.00  0.00    -0.308 N 
HETATM    9  C   UNL     1     -40.219 -47.760  11.481  1.00  0.00     0.320 C 
HETATM   10  N   UNL     1     -39.911 -48.983  10.922  1.00  0.00    -0.343 N 
HETATM   11  O   UNL     1     -40.131 -47.537  12.682  1.00  0.00    -0.247 OA
HETATM   12  H   UNL     1     -40.578 -49.274  10.221  1.00  0.00     0.164 HD
HETATM   13  H   UNL     1     -40.100 -46.988   9.634  1.00  0.00     0.170 HD
BRANCH  10  14
HETATM   14  C   UNL     1     -39.371 -50.008  11.799  1.00  0.00     0.128 C 
BRANCH  14  15
HETATM   15  C   UNL     1     -37.851 -49.948  11.996  1.00  0.00    -0.005 C 
HETATM   16  C   UNL     1     -37.370 -51.015  12.982  1.00  0.00     0.011 C 
HETATM   17  C   UNL     1     -37.087 -50.034  10.678  1.00  0.00     0.011 C 
ENDBRANCH  14  15
ENDBRANCH  10  14
ENDBRANCH   1   8
BRANCH   4  18
HETATM   18  N   UNL     1     -42.269 -41.702  11.904  1.00  0.00    -0.269 NA
HETATM   19  C   UNL     1     -42.110 -40.618  10.926  1.00  0.00     0.097 C 
HETATM   20  C   UNL     1     -43.321 -39.713  11.149  1.00  0.00     0.016 C 
HETATM   21  C   UNL     1     -44.386 -40.675  11.646  1.00  0.00     0.016 C 
HETATM   22  C   UNL     1     -43.596 -41.634  12.527  1.00  0.00     0.097 C 
ENDBRANCH   4  18
TORSDOF 4
ENDMDL
MODEL 7
REMARK VINA RESULT:      -5.4      1.529      2.310
REMARK  4 active torsions:
REMARK  status: ('A' for Active; 'I' for Inactive)
REMARK    1  A    between atoms: C_2  and  C_4 
REMARK    2  A    between atoms: C_4  and  N_5 
REMARK       I    between atoms: N_5  and  C_6 
REMARK       I    between atoms: C_6  and  N_8 
REMARK    3  A    between atoms: N_8  and  C_9 
REMARK    4  A    between atoms: C_12  and  N_16 
ROOT
HETATM    1  C   UNL     1     -40.520 -51.235  11.902  1.00  0.00     0.051 A 
HETATM    2  C   UNL     1     -39.676 -51.218  13.001  1.00  0.00     0.034 A 
HETATM    3  C   UNL     1     -39.626 -52.330  13.844  1.00  0.00     0.044 A 
HETATM    4  C   UNL     1     -40.414 -53.453  13.583  1.00  0.00     0.082 A 
HETATM    5  N   UNL     1     -41.261 -53.462  12.526  1.00  0.00    -0.354 N 
ATOM      6  HN  UNL     1     -41.866 -54.264  12.347  1.00  0.00     0.166 HD
HETATM    7  C   UNL     1     -41.283 -52.378  11.712  1.00  0.00     0.119 A 
ENDROOT
BRANCH   1   8
HETATM    8  N   UNL     1     -40.601 -50.160  10.993  1.00  0.00    -0.308 N 
HETATM    9  C   UNL     1     -41.478 -49.112  11.167  1.00  0.00     0.320 C 
HETATM   10  N   UNL     1     -41.348 -48.176  10.162  1.00  0.00    -0.343 N 
HETATM   11  O   UNL     1     -42.311 -49.019  12.058  1.00  0.00    -0.247 OA
HETATM   12  H   UNL     1     -40.385 -47.950   9.956  1.00  0.00     0.164 HD
HETATM   13  H   UNL     1     -40.402 -50.358  10.021  1.00  0.00     0.170 HD
BRANCH  10  14
HETATM   14  C   UNL     1     -42.313 -47.090  10.124  1.00  0.00     0.128 C 
BRANCH  14  15
HETATM   15  C   UNL     1     -41.786 -45.744  10.635  1.00  0.00    -0.005 C 
HETATM   16  C   UNL     1     -42.291 -45.443  12.048  1.00  0.00     0.011 C 
HETATM   17  C   UNL     1     -40.264 -45.647  10.565  1.00  0.00     0.011 C 
ENDBRANCH  14  15
ENDBRANCH  10  14
ENDBRANCH   1   8
BRANCH   4  18
HETATM   18  N   UNL     1     -40.326 -54.567  14.416  1.00  0.00    -0.269 NA
HETATM   19  C   UNL     1     -38.990 -54.969  14.873  1.00  0.00     0.097 C 
HETATM   20  C   UNL     1     -39.205 -55.496  16.291  1.00  0.00     0.016 C 
HETATM   21  C   UNL     1     -40.401 -54.700  16.779  1.00  0.00     0.016 C 
HETATM   22  C   UNL     1     -41.275 -54.599  15.535  1.00  0.00     0.097 C 
ENDBRANCH   4  18
TORSDOF 4
ENDMDL
MODEL 8
REMARK VINA RESULT:      -5.2      3.068      8.158
REMARK  4 active torsions:
REMARK  status: ('A' for Active; 'I' for Inactive)
REMARK    1  A    between atoms: C_2  and  C_4 
REMARK    2  A    between atoms: C_4  and  N_5 
REMARK       I    between atoms: N_5  and  C_6 
REMARK       I    between atoms: C_6  and  N_8 
REMARK    3  A    between atoms: N_8  and  C_9 
REMARK    4  A    between atoms: C_12  and  N_16 
ROOT
HETATM    1  C   UNL     1     -42.526 -48.057  11.437  1.00  0.00     0.051 A 
HETATM    2  C   UNL     1     -42.726 -47.111  12.430  1.00  0.00     0.034 A 
HETATM    3  C   UNL     1     -42.427 -45.772  12.170  1.00  0.00     0.044 A 
HETATM    4  C   UNL     1     -41.935 -45.384  10.922  1.00  0.00     0.082 A 
HETATM    5  N   UNL     1     -41.711 -46.310   9.960  1.00  0.00    -0.354 N 
ATOM      6  HN  UNL     1     -41.318 -46.042   9.057  1.00  0.00     0.166 HD
HETATM    7  C   UNL     1     -42.021 -47.603  10.227  1.00  0.00     0.119 A 
ENDROOT
BRANCH   1   8
HETATM    8  N   UNL     1     -42.831 -49.422  11.619  1.00  0.00    -0.308 N 
HETATM    9  C   UNL     1     -41.943 -50.307  12.187  1.00  0.00     0.320 C 
HETATM   10  N   UNL     1     -42.484 -51.572  12.280  1.00  0.00    -0.343 N 
HETATM   11  O   UNL     1     -40.797 -50.048  12.529  1.00  0.00    -0.247 OA
HETATM   12  H   UNL     1     -43.431 -51.571  12.631  1.00  0.00     0.164 HD
HETATM   13  H   UNL     1     -43.449 -49.852  10.943  1.00  0.00     0.170 HD
BRANCH  10  14
HETATM   14  C   UNL     1     -41.611 -52.649  12.715  1.00  0.00     0.128 C 
BRANCH  14  15
HETATM   15  C   UNL     1     -41.741 -53.023  14.196  1.00  0.00    -0.005 C 
HETATM   16  C   UNL     1     -42.166 -54.482  14.373  1.00  0.00     0.011 C 
HETATM   17  C   UNL     1     -40.473 -52.722  14.990  1.00  0.00     0.011 C 
ENDBRANCH  14  15
ENDBRANCH  10  14
ENDBRANCH   1   8
BRANCH   4  18
HETATM   18  N   UNL     1     -41.673 -44.038  10.670  1.00  0.00    -0.269 NA
HETATM   19  C   UNL     1     -42.646 -43.055  11.163  1.00  0.00     0.097 C 
HETATM   20  C   UNL     1     -41.806 -41.843  11.563  1.00  0.00     0.016 C 
HETATM   21  C   UNL     1     -40.480 -42.459  11.969  1.00  0.00     0.016 C 
HETATM   22  C   UNL     1     -40.307 -43.591  10.965  1.00  0.00     0.097 C 
ENDBRANCH   4  18
TORSDOF 4
ENDMDL
MODEL 9
REMARK VINA RESULT:      -5.2      2.396      3.068
REMARK  4 active torsions:
REMARK  status: ('A' for Active; 'I' for Inactive)
REMARK    1  A    between atoms: C_2  and  C_4 
REMARK    2  A    between atoms: C_4  and  N_5 
REMARK       I    between atoms: N_5  and  C_6 
REMARK       I    between atoms: C_6  and  N_8 
REMARK    3  A    between atoms: N_8  and  C_9 
REMARK    4  A    between atoms: C_12  and  N_16 
ROOT
HETATM    1  C   UNL     1     -39.045 -49.378  12.418  1.00  0.00     0.051 A 
HETATM    2  C   UNL     1     -38.365 -48.393  13.117  1.00  0.00     0.034 A 
HETATM    3  C   UNL     1     -37.609 -48.747  14.236  1.00  0.00     0.044 A 
HETATM    4  C   UNL     1     -37.530 -50.079  14.647  1.00  0.00     0.082 A 
HETATM    5  N   UNL     1     -38.216 -51.039  13.983  1.00  0.00    -0.354 N 
ATOM      6  HN  UNL     1     -38.194 -52.009  14.296  1.00  0.00     0.166 HD
HETATM    7  C   UNL     1     -38.934 -50.677  12.891  1.00  0.00     0.119 A 
ENDROOT
BRANCH   1   8
HETATM    8  N   UNL     1     -39.807 -49.098  11.263  1.00  0.00    -0.308 N 
HETATM    9  C   UNL     1     -41.049 -48.508  11.324  1.00  0.00     0.320 C 
HETATM   10  N   UNL     1     -41.576 -48.314  10.065  1.00  0.00    -0.343 N 
HETATM   11  O   UNL     1     -41.655 -48.225  12.349  1.00  0.00    -0.247 OA
HETATM   12  H   UNL     1     -40.907 -47.930   9.412  1.00  0.00     0.164 HD
HETATM   13  H   UNL     1     -39.697 -49.721  10.474  1.00  0.00     0.170 HD
BRANCH  10  14
HETATM   14  C   UNL     1     -42.948 -47.844   9.973  1.00  0.00     0.128 C 
BRANCH  14  15
HETATM   15  C   UNL     1     -43.277 -47.072   8.690  1.00  0.00    -0.005 C 
HETATM   16  C   UNL     1     -43.452 -48.013   7.496  1.00  0.00     0.011 C 
HETATM   17  C   UNL     1     -44.490 -46.159   8.851  1.00  0.00     0.011 C 
ENDBRANCH  14  15
ENDBRANCH  10  14
ENDBRANCH   1   8
BRANCH   4  18
HETATM   18  N   UNL     1     -36.743 -50.417  15.746  1.00  0.00    -0.269 NA
HETATM   19  C   UNL     1     -35.780 -49.416  16.225  1.00  0.00     0.097 C 
HETATM   20  C   UNL     1     -35.753 -49.597  17.742  1.00  0.00     0.016 C 
HETATM   21  C   UNL     1     -37.151 -50.100  18.056  1.00  0.00     0.016 C 
HETATM   22  C   UNL     1     -37.458 -51.016  16.879  1.00  0.00     0.097 C 
ENDBRANCH   4  18
TORSDOF 4
ENDMDL
