MODEL 1
REMARK VINA RESULT:      -5.0      0.000      0.000
REMARK  2 active torsions:
REMARK  status: ('A' for Active; 'I' for Inactive)
REMARK    1  A    between atoms: C_1  and  C_2 
REMARK    2  A    between atoms: C_1  and  N_8 
ROOT
HETATM    1  C   UNL     1     -42.670 -47.457  10.049  1.00  0.00     0.185 C 
ENDROOT
BRANCH   1   2
HETATM    2  C   UNL     1     -41.867 -46.195  10.392  1.00  0.00     0.240 C 
HETATM    3  C   UNL     1     -42.177 -45.672  11.800  1.00  0.00     0.037 C 
HETATM    4  C   UNL     1     -41.529 -44.298  11.977  1.00  0.00     0.004 C 
HETATM    5  C   UNL     1     -40.040 -44.320  11.624  1.00  0.00     0.030 C 
HETATM    6  C   UNL     1     -39.737 -45.089  10.336  1.00  0.00     0.270 C 
HETATM    7  N   UNL     1     -40.401 -46.396  10.301  1.00  0.00     0.089 N 
HETATM    8  H   UNL     1     -40.075 -46.954  11.091  1.00  0.00     0.316 HD
ENDBRANCH   1   2
BRANCH   1   9
HETATM    9  N   UNL     1     -44.001 -47.133   9.576  1.00  0.00    -0.285 N 
HETATM   10  C   UNL     1     -44.403 -46.007   8.932  1.00  0.00     0.201 A 
HETATM   11  N   UNL     1     -45.695 -46.062   8.714  1.00  0.00    -0.346 N 
HETATM   12  C   UNL     1     -46.047 -47.260   9.269  1.00  0.00     0.198 A 
ATOM     13  HN  UNL     1     -46.291 -45.378   8.247  1.00  0.00     0.167 HD
HETATM   14  N   UNL     1     -45.038 -47.972   9.781  1.00  0.00    -0.293 N 
ATOM     15  HN  UNL     1     -45.049 -48.897  10.211  1.00  0.00     0.188 HD
ENDBRANCH   1   9
TORSDOF 2
ENDMDL
MODEL 2
REMARK VINA RESULT:      -4.7      7.086      8.929
REMARK  2 active torsions:
REMARK  status: ('A' for Active; 'I' for Inactive)
REMARK    1  A    between atoms: C_1  and  C_2 
REMARK    2  A    between atoms: C_1  and  N_8 
ROOT
HETATM    1  C   UNL     1     -44.335 -53.782  12.561  1.00  0.00     0.185 C 
ENDROOT
BRANCH   1   2
HETATM    2  C   UNL     1     -45.086 -53.073  13.696  1.00  0.00     0.240 C 
HETATM    3  C   UNL     1     -46.201 -52.158  13.174  1.00  0.00     0.037 C 
HETATM    4  C   UNL     1     -46.737 -51.315  14.332  1.00  0.00     0.004 C 
HETATM    5  C   UNL     1     -47.138 -52.180  15.529  1.00  0.00     0.030 C 
HETATM    6  C   UNL     1     -46.112 -53.267  15.857  1.00  0.00     0.270 C 
HETATM    7  N   UNL     1     -45.695 -54.014  14.666  1.00  0.00     0.089 N 
HETATM    8  H   UNL     1     -46.514 -54.461  14.252  1.00  0.00     0.316 HD
ENDBRANCH   1   2
BRANCH   1   9
HETATM    9  N   UNL     1     -42.924 -53.454  12.565  1.00  0.00    -0.285 N 
HETATM   10  C   UNL     1     -41.960 -53.941  13.389  1.00  0.00     0.201 A 
HETATM   11  N   UNL     1     -40.814 -53.363  13.117  1.00  0.00    -0.346 N 
HETATM   12  C   UNL     1     -41.140 -52.501  12.107  1.00  0.00     0.198 A 
ATOM     13  HN  UNL     1     -39.904 -53.518  13.551  1.00  0.00     0.167 HD
HETATM   14  N   UNL     1     -42.416 -52.543  11.709  1.00  0.00    -0.293 N 
ATOM     15  HN  UNL     1     -42.879 -52.026  10.962  1.00  0.00     0.188 HD
ENDBRANCH   1   9
TORSDOF 2
ENDMDL
MODEL 3
REMARK VINA RESULT:      -4.6      5.843      7.801
REMARK  2 active torsions:
REMARK  status: ('A' for Active; 'I' for Inactive)
REMARK    1  A    between atoms: C_1  and  C_2 
REMARK    2  A    between atoms: C_1  and  N_8 
ROOT
HETATM    1  C   UNL     1     -42.988 -52.974  12.724  1.00  0.00     0.185 C 
ENDROOT
BRANCH   1   2
HETATM    2  C   UNL     1     -44.200 -52.174  13.219  1.00  0.00     0.240 C 
HETATM    3  C   UNL     1     -45.511 -52.646  12.579  1.00  0.00     0.037 C 
HETATM    4  C   UNL     1     -46.625 -51.659  12.933  1.00  0.00     0.004 C 
HETATM    5  C   UNL     1     -46.710 -51.416  14.442  1.00  0.00     0.030 C 
HETATM    6  C   UNL     1     -45.343 -51.211  15.098  1.00  0.00     0.270 C 
HETATM    7  N   UNL     1     -44.373 -52.232  14.690  1.00  0.00     0.089 N 
HETATM    8  H   UNL     1     -44.725 -53.151  14.964  1.00  0.00     0.316 HD
ENDBRANCH   1   2
BRANCH   1   9
HETATM    9  N   UNL     1     -41.903 -52.104  12.316  1.00  0.00    -0.285 N 
HETATM   10  C   UNL     1     -40.573 -52.383  12.306  1.00  0.00     0.201 A 
HETATM   11  N   UNL     1     -39.904 -51.322  11.921  1.00  0.00    -0.346 N 
HETATM   12  C   UNL     1     -40.889 -50.397  11.719  1.00  0.00     0.198 A 
ATOM     13  HN  UNL     1     -38.897 -51.214  11.803  1.00  0.00     0.167 HD
HETATM   14  N   UNL     1     -42.136 -50.837  11.915  1.00  0.00    -0.293 N 
ATOM     15  HN  UNL     1     -43.024 -50.348  11.795  1.00  0.00     0.188 HD
ENDBRANCH   1   9
TORSDOF 2
ENDMDL
MODEL 4
REMARK VINA RESULT:      -4.5      6.387      8.042
REMARK  2 active torsions:
REMARK  status: ('A' for Active; 'I' for Inactive)
REMARK    1  A    between atoms: C_1  and  C_2 
REMARK    2  A    between atoms: C_1  and  N_8 
ROOT
HETATM    1  C   UNL     1     -42.504 -51.132  13.868  1.00  0.00     0.185 C 
ENDROOT
BRANCH   1   2
HETATM    2  C   UNL     1     -43.983 -51.491  14.065  1.00  0.00     0.240 C 
HETATM    3  C   UNL     1     -44.607 -50.757  15.258  1.00  0.00     0.037 C 
HETATM    4  C   UNL     1     -45.994 -51.340  15.534  1.00  0.00     0.004 C 
HETATM    5  C   UNL     1     -46.865 -51.357  14.275  1.00  0.00     0.030 C 
HETATM    6  C   UNL     1     -46.120 -51.850  13.033  1.00  0.00     0.270 C 
HETATM    7  N   UNL     1     -44.816 -51.201  12.874  1.00  0.00     0.089 N 
HETATM    8  H   UNL     1     -44.956 -50.194  12.784  1.00  0.00     0.316 HD
ENDBRANCH   1   2
BRANCH   1   9
HETATM    9  N   UNL     1     -41.780 -52.192  13.195  1.00  0.00    -0.285 N 
HETATM   10  C   UNL     1     -41.387 -52.235  11.896  1.00  0.00     0.201 A 
HETATM   11  N   UNL     1     -40.803 -53.384  11.650  1.00  0.00    -0.346 N 
HETATM   12  C   UNL     1     -40.879 -54.027  12.853  1.00  0.00     0.198 A 
ATOM     13  HN  UNL     1     -40.394 -53.715  10.777  1.00  0.00     0.167 HD
HETATM   14  N   UNL     1     -41.440 -53.326  13.843  1.00  0.00    -0.293 N 
ATOM     15  HN  UNL     1     -41.575 -53.579  14.822  1.00  0.00     0.188 HD
ENDBRANCH   1   9
TORSDOF 2
ENDMDL
MODEL 5
REMARK VINA RESULT:      -4.3      2.214      2.867
REMARK  2 active torsions:
REMARK  status: ('A' for Active; 'I' for Inactive)
REMARK    1  A    between atoms: C_1  and  C_2 
REMARK    2  A    between atoms: C_1  and  N_8 
ROOT
HETATM    1  C   UNL     1     -42.807 -46.506   9.975  1.00  0.00     0.185 C 
ENDROOT
BRANCH   1   2
HETATM    2  C   UNL     1     -42.259 -47.355  11.130  1.00  0.00     0.240 C 
HETATM    3  C   UNL     1     -42.969 -47.061  12.457  1.00  0.00     0.037 C 
HETATM    4  C   UNL     1     -42.217 -47.760  13.591  1.00  0.00     0.004 C 
HETATM    5  C   UNL     1     -42.006 -49.248  13.302  1.00  0.00     0.030 C 
HETATM    6  C   UNL     1     -41.548 -49.526  11.869  1.00  0.00     0.270 C 
HETATM    7  N   UNL     1     -42.361 -48.812  10.879  1.00  0.00     0.089 N 
HETATM    8  H   UNL     1     -43.332 -49.114  10.969  1.00  0.00     0.316 HD
ENDBRANCH   1   2
BRANCH   1   9
HETATM    9  N   UNL     1     -43.910 -47.163   9.304  1.00  0.00    -0.285 N 
HETATM   10  C   UNL     1     -43.891 -47.810   8.110  1.00  0.00     0.201 A 
HETATM   11  N   UNL     1     -45.099 -48.226   7.814  1.00  0.00    -0.346 N 
HETATM   12  C   UNL     1     -45.840 -47.786   8.874  1.00  0.00     0.198 A 
ATOM     13  HN  UNL     1     -45.408 -48.748   6.994  1.00  0.00     0.167 HD
HETATM   14  N   UNL     1     -45.152 -47.157   9.832  1.00  0.00    -0.293 N 
ATOM     15  HN  UNL     1     -45.478 -46.776  10.721  1.00  0.00     0.188 HD
ENDBRANCH   1   9
TORSDOF 2
ENDMDL
MODEL 6
REMARK VINA RESULT:      -4.3      4.102      5.218
REMARK  2 active torsions:
REMARK  status: ('A' for Active; 'I' for Inactive)
REMARK    1  A    between atoms: C_1  and  C_2 
REMARK    2  A    between atoms: C_1  and  N_8 
ROOT
HETATM    1  C   UNL     1     -40.808 -50.159  11.758  1.00  0.00     0.185 C 
ENDROOT
BRANCH   1   2
HETATM    2  C   UNL     1     -41.797 -49.049  11.377  1.00  0.00     0.240 C 
HETATM    3  C   UNL     1     -41.759 -47.872  12.359  1.00  0.00     0.037 C 
HETATM    4  C   UNL     1     -42.924 -46.929  12.054  1.00  0.00     0.004 C 
HETATM    5  C   UNL     1     -42.956 -46.522  10.580  1.00  0.00     0.030 C 
HETATM    6  C   UNL     1     -42.722 -47.694   9.625  1.00  0.00     0.270 C 
HETATM    7  N   UNL     1     -41.567 -48.507  10.017  1.00  0.00     0.089 N 
HETATM    8  H   UNL     1     -40.732 -47.920  10.013  1.00  0.00     0.316 HD
ENDBRANCH   1   2
BRANCH   1   9
HETATM    9  N   UNL     1     -41.490 -51.397  12.079  1.00  0.00    -0.285 N 
HETATM   10  C   UNL     1     -40.970 -52.652  12.098  1.00  0.00     0.201 A 
HETATM   11  N   UNL     1     -41.914 -53.516  12.384  1.00  0.00    -0.346 N 
HETATM   12  C   UNL     1     -43.019 -52.725  12.520  1.00  0.00     0.198 A 
ATOM     13  HN  UNL     1     -41.841 -54.529  12.481  1.00  0.00     0.167 HD
HETATM   14  N   UNL     1     -42.806 -51.413  12.375  1.00  0.00    -0.293 N 
ATOM     15  HN  UNL     1     -43.461 -50.636  12.464  1.00  0.00     0.188 HD
ENDBRANCH   1   9
TORSDOF 2
ENDMDL
MODEL 7
REMARK VINA RESULT:      -4.2      1.511      2.272
REMARK  2 active torsions:
REMARK  status: ('A' for Active; 'I' for Inactive)
REMARK    1  A    between atoms: C_1  and  C_2 
REMARK    2  A    between atoms: C_1  and  N_8 
ROOT
HETATM    1  C   UNL     1     -41.627 -47.037  10.899  1.00  0.00     0.185 C 
ENDROOT
BRANCH   1   2
HETATM    2  C   UNL     1     -41.511 -45.561  11.303  1.00  0.00     0.240 C 
HETATM    3  C   UNL     1     -40.343 -44.856  10.602  1.00  0.00     0.037 C 
HETATM    4  C   UNL     1     -40.146 -43.474  11.228  1.00  0.00     0.004 C 
HETATM    5  C   UNL     1     -41.447 -42.670  11.252  1.00  0.00     0.030 C 
HETATM    6  C   UNL     1     -42.656 -43.491  11.708  1.00  0.00     0.270 C 
HETATM    7  N   UNL     1     -42.740 -44.783  11.020  1.00  0.00     0.089 N 
HETATM    8  H   UNL     1     -42.825 -44.618  10.016  1.00  0.00     0.316 HD
ENDBRANCH   1   2
BRANCH   1   9
HETATM    9  N   UNL     1     -42.792 -47.275  10.069  1.00  0.00    -0.285 N 
HETATM   10  C   UNL     1     -44.036 -47.647  10.469  1.00  0.00     0.201 A 
HETATM   11  N   UNL     1     -44.804 -47.815   9.420  1.00  0.00    -0.346 N 
HETATM   12  C   UNL     1     -43.962 -47.543   8.379  1.00  0.00     0.198 A 
ATOM     13  HN  UNL     1     -45.788 -48.082   9.388  1.00  0.00     0.167 HD
HETATM   14  N   UNL     1     -42.724 -47.174   8.725  1.00  0.00    -0.293 N 
ATOM     15  HN  UNL     1     -41.941 -46.893   8.134  1.00  0.00     0.188 HD
ENDBRANCH   1   9
TORSDOF 2
ENDMDL
MODEL 8
REMARK VINA RESULT:      -4.2      5.957      7.977
REMARK  2 active torsions:
REMARK  status: ('A' for Active; 'I' for Inactive)
REMARK    1  A    between atoms: C_1  and  C_2 
REMARK    2  A    between atoms: C_1  and  N_8 
ROOT
HETATM    1  C   UNL     1     -40.847 -50.623  11.795  1.00  0.00     0.185 C 
ENDROOT
BRANCH   1   2
HETATM    2  C   UNL     1     -41.373 -51.786  12.647  1.00  0.00     0.240 C 
HETATM    3  C   UNL     1     -42.862 -51.633  12.985  1.00  0.00     0.037 C 
HETATM    4  C   UNL     1     -43.250 -52.689  14.022  1.00  0.00     0.004 C 
HETATM    5  C   UNL     1     -42.843 -54.096  13.580  1.00  0.00     0.030 C 
HETATM    6  C   UNL     1     -41.430 -54.160  12.995  1.00  0.00     0.270 C 
HETATM    7  N   UNL     1     -41.193 -53.108  12.002  1.00  0.00     0.089 N 
HETATM    8  H   UNL     1     -41.861 -53.217  11.238  1.00  0.00     0.316 HD
ENDBRANCH   1   2
BRANCH   1   9
HETATM    9  N   UNL     1     -39.402 -50.525  11.857  1.00  0.00    -0.285 N 
HETATM   10  C   UNL     1     -38.585 -50.912  12.871  1.00  0.00     0.201 A 
HETATM   11  N   UNL     1     -37.343 -50.610  12.576  1.00  0.00    -0.346 N 
HETATM   12  C   UNL     1     -37.458 -50.014  11.352  1.00  0.00     0.198 A 
ATOM     13  HN  UNL     1     -36.500 -50.779  13.125  1.00  0.00     0.167 HD
HETATM   14  N   UNL     1     -38.696 -49.966  10.852  1.00  0.00    -0.293 N 
ATOM     15  HN  UNL     1     -39.020 -49.606   9.954  1.00  0.00     0.188 HD
ENDBRANCH   1   9
TORSDOF 2
ENDMDL
MODEL 9
REMARK VINA RESULT:      -4.2      4.224      4.868
REMARK  2 active torsions:
REMARK  status: ('A' for Active; 'I' for Inactive)
REMARK    1  A    between atoms: C_1  and  C_2 
REMARK    2  A    between atoms: C_1  and  N_8 
ROOT
HETATM    1  C   UNL     1     -41.774 -50.175  12.015  1.00  0.00     0.185 C 
ENDROOT
BRANCH   1   2
HETATM    2  C   UNL     1     -40.262 -50.124  12.274  1.00  0.00     0.240 C 
HETATM    3  C   UNL     1     -39.761 -51.352  13.044  1.00  0.00     0.037 C 
HETATM    4  C   UNL     1     -38.311 -51.118  13.469  1.00  0.00     0.004 C 
HETATM    5  C   UNL     1     -37.429 -50.710  12.287  1.00  0.00     0.030 C 
HETATM    6  C   UNL     1     -38.082 -49.664  11.380  1.00  0.00     0.270 C 
HETATM    7  N   UNL     1     -39.462 -50.016  11.031  1.00  0.00     0.089 N 
HETATM    8  H   UNL     1     -39.461 -50.910  10.539  1.00  0.00     0.316 HD
ENDBRANCH   1   2
BRANCH   1   9
HETATM    9  N   UNL     1     -42.305 -48.867  11.684  1.00  0.00    -0.285 N 
HETATM   10  C   UNL     1     -42.773 -47.920  12.537  1.00  0.00     0.201 A 
HETATM   11  N   UNL     1     -43.217 -46.892  11.853  1.00  0.00    -0.346 N 
HETATM   12  C   UNL     1     -43.008 -47.275  10.558  1.00  0.00     0.198 A 
ATOM     13  HN  UNL     1     -43.620 -46.022  12.202  1.00  0.00     0.167 HD
HETATM   14  N   UNL     1     -42.420 -48.465  10.401  1.00  0.00    -0.293 N 
ATOM     15  HN  UNL     1     -42.136 -48.940   9.544  1.00  0.00     0.188 HD
ENDBRANCH   1   9
TORSDOF 2
ENDMDL
