MODEL 1
REMARK VINA RESULT:      -6.3      0.000      0.000
REMARK  4 active torsions:
REMARK  status: ('A' for Active; 'I' for Inactive)
REMARK    1  A    between atoms: C_2  and  C_3 
REMARK    2  A    between atoms: C_7  and  C_8 
REMARK    3  A    between atoms: C_8  and  C_9 
REMARK    4  A    between atoms: C_9  and  N_10 
REMARK       I    between atoms: N_10  and  C_11 
REMARK       I    between atoms: C_11  and  N_13 
ROOT
HETATM    1  N   UNL     1     -41.888 -50.410  12.314  1.00  0.00    -0.343 N 
HETATM    2  C   UNL     1     -41.960 -51.777  12.424  1.00  0.00     0.318 C 
HETATM    3  O   UNL     1     -41.209 -52.510  11.785  1.00  0.00    -0.247 OA
HETATM    4  N   UNL     1     -42.946 -52.264  13.272  1.00  0.00    -0.334 N 
HETATM    5  C   UNL     1     -43.912 -51.450  14.016  1.00  0.00     0.127 C 
HETATM    6  C   UNL     1     -45.224 -51.313  13.254  1.00  0.00     0.020 C 
HETATM    7  C   UNL     1     -46.227 -52.421  13.573  1.00  0.00     0.002 C 
HETATM    8  C   UNL     1     -45.659 -53.832  13.732  1.00  0.00     0.002 C 
HETATM    9  C   UNL     1     -44.510 -54.175  12.786  1.00  0.00     0.020 C 
HETATM   10  C   UNL     1     -43.145 -53.715  13.314  1.00  0.00     0.127 C 
HETATM   11  H   UNL     1     -42.083 -49.909  13.162  1.00  0.00     0.164 HD
ENDROOT
BRANCH   1  12
HETATM   12  C   UNL     1     -40.871 -49.773  11.486  1.00  0.00     0.131 C 
BRANCH  12  13
HETATM   13  C   UNL     1     -41.083 -48.274  11.275  1.00  0.00     0.084 C 
BRANCH  13  14
HETATM   14  C   UNL     1     -42.219 -48.021  10.332  1.00  0.00     0.052 A 
HETATM   15  N   UNL     1     -42.131 -48.111   9.021  1.00  0.00    -0.363 N 
HETATM   16  C   UNL     1     -43.334 -47.742   8.450  1.00  0.00     0.103 A 
ATOM     17  HN  UNL     1     -41.302 -48.406   8.507  1.00  0.00     0.165 HD
HETATM   18  C   UNL     1     -44.332 -47.380   9.332  1.00  0.00    -0.001 A 
HETATM   19  S   UNL     1     -43.758 -47.547  10.937  1.00  0.00    -0.080 SA
BRANCH  18  20
HETATM   20  C   UNL     1     -45.711 -46.880   9.050  1.00  0.00     0.043 C 
HETATM   21  C   UNL     1     -46.734 -48.002   9.010  1.00  0.00     0.010 C 
ENDBRANCH  18  20
ENDBRANCH  13  14
ENDBRANCH  12  13
ENDBRANCH   1  12
TORSDOF 4
ENDMDL
MODEL 2
REMARK VINA RESULT:      -5.9      1.749      2.373
REMARK  4 active torsions:
REMARK  status: ('A' for Active; 'I' for Inactive)
REMARK    1  A    between atoms: C_2  and  C_3 
REMARK    2  A    between atoms: C_7  and  C_8 
REMARK    3  A    between atoms: C_8  and  C_9 
REMARK    4  A    between atoms: C_9  and  N_10 
REMARK       I    between atoms: N_10  and  C_11 
REMARK       I    between atoms: C_11  and  N_13 
ROOT
HETATM    1  N   UNL     1     -41.009 -50.551  12.072  1.00  0.00    -0.343 N 
HETATM    2  C   UNL     1     -40.114 -51.294  12.802  1.00  0.00     0.318 C 
HETATM    3  O   UNL     1     -38.920 -51.319  12.514  1.00  0.00    -0.247 OA
HETATM    4  N   UNL     1     -40.651 -52.027  13.853  1.00  0.00    -0.334 N 
HETATM    5  C   UNL     1     -42.070 -52.090  14.213  1.00  0.00     0.127 C 
HETATM    6  C   UNL     1     -42.750 -53.296  13.577  1.00  0.00     0.020 C 
HETATM    7  C   UNL     1     -42.689 -54.553  14.445  1.00  0.00     0.002 C 
HETATM    8  C   UNL     1     -41.376 -54.806  15.188  1.00  0.00     0.002 C 
HETATM    9  C   UNL     1     -40.114 -54.420  14.419  1.00  0.00     0.020 C 
HETATM   10  C   UNL     1     -39.753 -52.937  14.570  1.00  0.00     0.127 C 
HETATM   11  H   UNL     1     -41.755 -50.146  12.609  1.00  0.00     0.164 HD
ENDROOT
BRANCH   1  12
HETATM   12  C   UNL     1     -40.566 -49.708  10.969  1.00  0.00     0.131 C 
BRANCH  12  13
HETATM   13  C   UNL     1     -41.031 -48.255  11.065  1.00  0.00     0.084 C 
BRANCH  13  14
HETATM   14  C   UNL     1     -42.236 -48.020  10.207  1.00  0.00     0.052 A 
HETATM   15  N   UNL     1     -42.237 -48.092   8.892  1.00  0.00    -0.363 N 
HETATM   16  C   UNL     1     -43.486 -47.748   8.411  1.00  0.00     0.103 A 
ATOM     17  HN  UNL     1     -41.439 -48.359   8.317  1.00  0.00     0.165 HD
HETATM   18  C   UNL     1     -44.429 -47.422   9.364  1.00  0.00    -0.001 A 
HETATM   19  S   UNL     1     -43.740 -47.594  10.924  1.00  0.00    -0.080 SA
BRANCH  18  20
HETATM   20  C   UNL     1     -45.836 -46.955   9.186  1.00  0.00     0.043 C 
HETATM   21  C   UNL     1     -46.794 -48.102   8.913  1.00  0.00     0.010 C 
ENDBRANCH  18  20
ENDBRANCH  13  14
ENDBRANCH  12  13
ENDBRANCH   1  12
TORSDOF 4
ENDMDL
MODEL 3
REMARK VINA RESULT:      -5.8      2.502      5.872
REMARK  4 active torsions:
REMARK  status: ('A' for Active; 'I' for Inactive)
REMARK    1  A    between atoms: C_2  and  C_3 
REMARK    2  A    between atoms: C_7  and  C_8 
REMARK    3  A    between atoms: C_8  and  C_9 
REMARK    4  A    between atoms: C_9  and  N_10 
REMARK       I    between atoms: N_10  and  C_11 
REMARK       I    between atoms: C_11  and  N_13 
ROOT
HETATM    1  N   UNL     1     -41.084 -51.187  11.436  1.00  0.00    -0.343 N 
HETATM    2  C   UNL     1     -40.161 -50.230  11.783  1.00  0.00     0.318 C 
HETATM    3  O   UNL     1     -39.156 -50.516  12.430  1.00  0.00    -0.247 OA
HETATM    4  N   UNL     1     -40.457 -48.933  11.383  1.00  0.00    -0.334 N 
HETATM    5  C   UNL     1     -41.663 -48.514  10.665  1.00  0.00     0.127 C 
HETATM    6  C   UNL     1     -42.735 -48.014  11.625  1.00  0.00     0.020 C 
HETATM    7  C   UNL     1     -42.639 -46.516  11.913  1.00  0.00     0.002 C 
HETATM    8  C   UNL     1     -41.231 -45.942  12.081  1.00  0.00     0.002 C 
HETATM    9  C   UNL     1     -40.241 -46.860  12.795  1.00  0.00     0.020 C 
HETATM   10  C   UNL     1     -39.569 -47.864  11.849  1.00  0.00     0.127 C 
HETATM   11  H   UNL     1     -41.519 -51.046  10.543  1.00  0.00     0.164 HD
ENDROOT
BRANCH   1  12
HETATM   12  C   UNL     1     -40.871 -52.591  11.763  1.00  0.00     0.131 C 
BRANCH  12  13
HETATM   13  C   UNL     1     -41.491 -53.026  13.091  1.00  0.00     0.084 C 
BRANCH  13  14
HETATM   14  C   UNL     1     -42.984 -52.915  13.048  1.00  0.00     0.052 A 
HETATM   15  N   UNL     1     -43.767 -53.699  12.336  1.00  0.00    -0.363 N 
HETATM   16  C   UNL     1     -45.078 -53.282  12.463  1.00  0.00     0.103 A 
ATOM     17  HN  UNL     1     -43.453 -54.491  11.776  1.00  0.00     0.165 HD
HETATM   18  C   UNL     1     -45.285 -52.186  13.276  1.00  0.00    -0.001 A 
HETATM   19  S   UNL     1     -43.787 -51.685  13.941  1.00  0.00    -0.080 SA
BRANCH  18  20
HETATM   20  C   UNL     1     -46.550 -51.454  13.577  1.00  0.00     0.043 C 
HETATM   21  C   UNL     1     -46.861 -51.428  15.064  1.00  0.00     0.010 C 
ENDBRANCH  18  20
ENDBRANCH  13  14
ENDBRANCH  12  13
ENDBRANCH   1  12
TORSDOF 4
ENDMDL
MODEL 4
REMARK VINA RESULT:      -5.6      2.220      3.314
REMARK  4 active torsions:
REMARK  status: ('A' for Active; 'I' for Inactive)
REMARK    1  A    between atoms: C_2  and  C_3 
REMARK    2  A    between atoms: C_7  and  C_8 
REMARK    3  A    between atoms: C_8  and  C_9 
REMARK    4  A    between atoms: C_9  and  N_10 
REMARK       I    between atoms: N_10  and  C_11 
REMARK       I    between atoms: C_11  and  N_13 
ROOT
HETATM    1  N   UNL     1     -42.208 -51.578  13.053  1.00  0.00    -0.343 N 
HETATM    2  C   UNL     1     -43.448 -51.011  13.223  1.00  0.00     0.318 C 
HETATM    3  O   UNL     1     -43.575 -49.811  13.455  1.00  0.00    -0.247 OA
HETATM    4  N   UNL     1     -44.527 -51.882  13.146  1.00  0.00    -0.334 N 
HETATM    5  C   UNL     1     -44.443 -53.330  12.933  1.00  0.00     0.127 C 
HETATM    6  C   UNL     1     -44.464 -54.087  14.254  1.00  0.00     0.020 C 
HETATM    7  C   UNL     1     -45.874 -54.448  14.722  1.00  0.00     0.002 C 
HETATM    8  C   UNL     1     -46.956 -53.389  14.508  1.00  0.00     0.002 C 
HETATM    9  C   UNL     1     -46.497 -51.947  14.711  1.00  0.00     0.020 C 
HETATM   10  C   UNL     1     -45.853 -51.344  13.455  1.00  0.00     0.127 C 
HETATM   11  H   UNL     1     -42.176 -52.325  12.382  1.00  0.00     0.164 HD
ENDROOT
BRANCH   1  12
HETATM   12  C   UNL     1     -40.999 -50.764  13.073  1.00  0.00     0.131 C 
BRANCH  12  13
HETATM   13  C   UNL     1     -40.478 -50.384  11.687  1.00  0.00     0.084 C 
BRANCH  13  14
HETATM   14  C   UNL     1     -40.981 -49.035  11.275  1.00  0.00     0.052 A 
HETATM   15  N   UNL     1     -42.143 -48.822  10.694  1.00  0.00    -0.363 N 
HETATM   16  C   UNL     1     -42.265 -47.481  10.381  1.00  0.00     0.103 A 
ATOM     17  HN  UNL     1     -42.845 -49.536  10.503  1.00  0.00     0.165 HD
HETATM   18  C   UNL     1     -41.196 -46.682  10.734  1.00  0.00    -0.001 A 
HETATM   19  S   UNL     1     -40.012 -47.636  11.523  1.00  0.00    -0.080 SA
BRANCH  18  20
HETATM   20  C   UNL     1     -40.981 -45.225  10.491  1.00  0.00     0.043 C 
HETATM   21  C   UNL     1     -39.530 -44.900  10.180  1.00  0.00     0.010 C 
ENDBRANCH  18  20
ENDBRANCH  13  14
ENDBRANCH  12  13
ENDBRANCH   1  12
TORSDOF 4
ENDMDL
MODEL 5
REMARK VINA RESULT:      -5.6      3.309      4.563
REMARK  4 active torsions:
REMARK  status: ('A' for Active; 'I' for Inactive)
REMARK    1  A    between atoms: C_2  and  C_3 
REMARK    2  A    between atoms: C_7  and  C_8 
REMARK    3  A    between atoms: C_8  and  C_9 
REMARK    4  A    between atoms: C_9  and  N_10 
REMARK       I    between atoms: N_10  and  C_11 
REMARK       I    between atoms: C_11  and  N_13 
ROOT
HETATM    1  N   UNL     1     -42.612 -54.068  13.742  1.00  0.00    -0.343 N 
HETATM    2  C   UNL     1     -43.676 -53.469  13.111  1.00  0.00     0.318 C 
HETATM    3  O   UNL     1     -43.561 -52.982  11.989  1.00  0.00    -0.247 OA
HETATM    4  N   UNL     1     -44.862 -53.429  13.833  1.00  0.00    -0.334 N 
HETATM    5  C   UNL     1     -45.052 -53.936  15.195  1.00  0.00     0.127 C 
HETATM    6  C   UNL     1     -44.876 -52.830  16.227  1.00  0.00     0.020 C 
HETATM    7  C   UNL     1     -46.173 -52.089  16.547  1.00  0.00     0.002 C 
HETATM    8  C   UNL     1     -47.102 -51.798  15.367  1.00  0.00     0.002 C 
HETATM    9  C   UNL     1     -46.393 -51.445  14.060  1.00  0.00     0.020 C 
HETATM   10  C   UNL     1     -45.981 -52.682  13.252  1.00  0.00     0.127 C 
HETATM   11  H   UNL     1     -42.854 -54.856  14.316  1.00  0.00     0.164 HD
ENDROOT
BRANCH   1  12
HETATM   12  C   UNL     1     -41.324 -54.208  13.076  1.00  0.00     0.131 C 
BRANCH  12  13
HETATM   13  C   UNL     1     -40.220 -53.323  13.655  1.00  0.00     0.084 C 
BRANCH  13  14
HETATM   14  C   UNL     1     -40.202 -51.982  12.988  1.00  0.00     0.052 A 
HETATM   15  N   UNL     1     -40.717 -51.736  11.801  1.00  0.00    -0.363 N 
HETATM   16  C   UNL     1     -40.465 -50.423  11.451  1.00  0.00     0.103 A 
ATOM     17  HN  UNL     1     -41.224 -52.410  11.229  1.00  0.00     0.165 HD
HETATM   18  C   UNL     1     -39.764 -49.677  12.377  1.00  0.00    -0.001 A 
HETATM   19  S   UNL     1     -39.446 -50.642  13.756  1.00  0.00    -0.080 SA
BRANCH  18  20
HETATM   20  C   UNL     1     -39.282 -48.267  12.289  1.00  0.00     0.043 C 
HETATM   21  C   UNL     1     -40.226 -47.383  11.492  1.00  0.00     0.010 C 
ENDBRANCH  18  20
ENDBRANCH  13  14
ENDBRANCH  12  13
ENDBRANCH   1  12
TORSDOF 4
ENDMDL
MODEL 6
REMARK VINA RESULT:      -5.6      3.959      6.527
REMARK  4 active torsions:
REMARK  status: ('A' for Active; 'I' for Inactive)
REMARK    1  A    between atoms: C_2  and  C_3 
REMARK    2  A    between atoms: C_7  and  C_8 
REMARK    3  A    between atoms: C_8  and  C_9 
REMARK    4  A    between atoms: C_9  and  N_10 
REMARK       I    between atoms: N_10  and  C_11 
REMARK       I    between atoms: C_11  and  N_13 
ROOT
HETATM    1  N   UNL     1     -40.254 -52.951  14.568  1.00  0.00    -0.343 N 
HETATM    2  C   UNL     1     -40.081 -52.104  13.500  1.00  0.00     0.318 C 
HETATM    3  O   UNL     1     -40.218 -52.498  12.344  1.00  0.00    -0.247 OA
HETATM    4  N   UNL     1     -39.717 -50.801  13.814  1.00  0.00    -0.334 N 
HETATM    5  C   UNL     1     -39.479 -50.282  15.164  1.00  0.00     0.127 C 
HETATM    6  C   UNL     1     -38.000 -50.337  15.525  1.00  0.00     0.020 C 
HETATM    7  C   UNL     1     -37.233 -49.075  15.131  1.00  0.00     0.002 C 
HETATM    8  C   UNL     1     -37.598 -48.448  13.784  1.00  0.00     0.002 C 
HETATM    9  C   UNL     1     -37.927 -49.446  12.676  1.00  0.00     0.020 C 
HETATM   10  C   UNL     1     -39.391 -49.904  12.702  1.00  0.00     0.127 C 
HETATM   11  H   UNL     1     -40.655 -52.522  15.383  1.00  0.00     0.164 HD
ENDROOT
BRANCH   1  12
HETATM   12  C   UNL     1     -40.674 -54.333  14.373  1.00  0.00     0.131 C 
BRANCH  12  13
HETATM   13  C   UNL     1     -42.058 -54.651  14.938  1.00  0.00     0.084 C 
BRANCH  13  14
HETATM   14  C   UNL     1     -43.136 -54.053  14.087  1.00  0.00     0.052 A 
HETATM   15  N   UNL     1     -43.079 -53.956  12.775  1.00  0.00    -0.363 N 
HETATM   16  C   UNL     1     -44.198 -53.291  12.312  1.00  0.00     0.103 A 
ATOM     17  HN  UNL     1     -42.325 -54.316  12.191  1.00  0.00     0.165 HD
HETATM   18  C   UNL     1     -45.103 -52.891  13.275  1.00  0.00    -0.001 A 
HETATM   19  S   UNL     1     -44.553 -53.405  14.814  1.00  0.00    -0.080 SA
BRANCH  18  20
HETATM   20  C   UNL     1     -46.366 -52.110  13.123  1.00  0.00     0.043 C 
HETATM   21  C   UNL     1     -46.746 -51.377  14.399  1.00  0.00     0.010 C 
ENDBRANCH  18  20
ENDBRANCH  13  14
ENDBRANCH  12  13
ENDBRANCH   1  12
TORSDOF 4
ENDMDL
MODEL 7
REMARK VINA RESULT:      -5.5      2.369      3.327
REMARK  4 active torsions:
REMARK  status: ('A' for Active; 'I' for Inactive)
REMARK    1  A    between atoms: C_2  and  C_3 
REMARK    2  A    between atoms: C_7  and  C_8 
REMARK    3  A    between atoms: C_8  and  C_9 
REMARK    4  A    between atoms: C_9  and  N_10 
REMARK       I    between atoms: N_10  and  C_11 
REMARK       I    between atoms: C_11  and  N_13 
ROOT
HETATM    1  N   UNL     1     -42.264 -49.900  12.072  1.00  0.00    -0.343 N 
HETATM    2  C   UNL     1     -42.126 -51.244  12.318  1.00  0.00     0.318 C 
HETATM    3  O   UNL     1     -41.225 -51.899  11.799  1.00  0.00    -0.247 OA
HETATM    4  N   UNL     1     -43.079 -51.807  13.157  1.00  0.00    -0.334 N 
HETATM    5  C   UNL     1     -44.211 -51.098  13.760  1.00  0.00     0.127 C 
HETATM    6  C   UNL     1     -45.472 -51.250  12.918  1.00  0.00     0.020 C 
HETATM    7  C   UNL     1     -46.307 -52.474  13.294  1.00  0.00     0.002 C 
HETATM    8  C   UNL     1     -45.534 -53.751  13.628  1.00  0.00     0.002 C 
HETATM    9  C   UNL     1     -44.282 -53.986  12.785  1.00  0.00     0.020 C 
HETATM   10  C   UNL     1     -43.047 -53.260  13.336  1.00  0.00     0.127 C 
HETATM   11  H   UNL     1     -42.595 -49.362  12.853  1.00  0.00     0.164 HD
ENDROOT
BRANCH   1  12
HETATM   12  C   UNL     1     -41.306 -49.184  11.239  1.00  0.00     0.131 C 
BRANCH  12  13
HETATM   13  C   UNL     1     -41.927 -48.094  10.366  1.00  0.00     0.084 C 
BRANCH  13  14
HETATM   14  C   UNL     1     -41.352 -46.750  10.694  1.00  0.00     0.052 A 
HETATM   15  N   UNL     1     -40.148 -46.351  10.341  1.00  0.00    -0.363 N 
HETATM   16  C   UNL     1     -39.904 -45.096  10.864  1.00  0.00     0.103 A 
ATOM     17  HN  UNL     1     -39.495 -46.887   9.769  1.00  0.00     0.165 HD
HETATM   18  C   UNL     1     -40.928 -44.545  11.608  1.00  0.00    -0.001 A 
HETATM   19  S   UNL     1     -42.262 -45.621  11.617  1.00  0.00    -0.080 SA
BRANCH  18  20
HETATM   20  C   UNL     1     -40.970 -43.252  12.352  1.00  0.00     0.043 C 
HETATM   21  C   UNL     1     -39.627 -42.897  12.967  1.00  0.00     0.010 C 
ENDBRANCH  18  20
ENDBRANCH  13  14
ENDBRANCH  12  13
ENDBRANCH   1  12
TORSDOF 4
ENDMDL
MODEL 8
REMARK VINA RESULT:      -5.3      3.074      5.130
REMARK  4 active torsions:
REMARK  status: ('A' for Active; 'I' for Inactive)
REMARK    1  A    between atoms: C_2  and  C_3 
REMARK    2  A    between atoms: C_7  and  C_8 
REMARK    3  A    between atoms: C_8  and  C_9 
REMARK    4  A    between atoms: C_9  and  N_10 
REMARK       I    between atoms: N_10  and  C_11 
REMARK       I    between atoms: C_11  and  N_13 
ROOT
HETATM    1  N   UNL     1     -43.834 -50.184  12.661  1.00  0.00    -0.343 N 
HETATM    2  C   UNL     1     -44.262 -50.489  13.931  1.00  0.00     0.318 C 
HETATM    3  O   UNL     1     -43.868 -49.856  14.907  1.00  0.00    -0.247 OA
HETATM    4  N   UNL     1     -45.134 -51.565  14.032  1.00  0.00    -0.334 N 
HETATM    5  C   UNL     1     -45.596 -52.399  12.919  1.00  0.00     0.127 C 
HETATM    6  C   UNL     1     -44.737 -53.648  12.769  1.00  0.00     0.020 C 
HETATM    7  C   UNL     1     -45.242 -54.833  13.592  1.00  0.00     0.002 C 
HETATM    8  C   UNL     1     -45.771 -54.516  14.991  1.00  0.00     0.002 C 
HETATM    9  C   UNL     1     -45.013 -53.416  15.733  1.00  0.00     0.020 C 
HETATM   10  C   UNL     1     -45.506 -52.008  15.378  1.00  0.00     0.127 C 
HETATM   11  H   UNL     1     -44.524 -50.314  11.943  1.00  0.00     0.164 HD
ENDROOT
BRANCH   1  12
HETATM   12  C   UNL     1     -42.948 -49.052  12.417  1.00  0.00     0.131 C 
BRANCH  12  13
HETATM   13  C   UNL     1     -41.684 -49.405  11.634  1.00  0.00     0.084 C 
BRANCH  13  14
HETATM   14  C   UNL     1     -41.095 -50.694  12.118  1.00  0.00     0.052 A 
HETATM   15  N   UNL     1     -41.199 -51.843  11.482  1.00  0.00    -0.363 N 
HETATM   16  C   UNL     1     -40.609 -52.842  12.234  1.00  0.00     0.103 A 
ATOM     17  HN  UNL     1     -41.645 -51.976  10.576  1.00  0.00     0.165 HD
HETATM   18  C   UNL     1     -40.055 -52.444  13.434  1.00  0.00    -0.001 A 
HETATM   19  S   UNL     1     -40.241 -50.750  13.609  1.00  0.00    -0.080 SA
BRANCH  18  20
HETATM   20  C   UNL     1     -39.405 -53.267  14.497  1.00  0.00     0.043 C 
HETATM   21  C   UNL     1     -39.287 -54.729  14.102  1.00  0.00     0.010 C 
ENDBRANCH  18  20
ENDBRANCH  13  14
ENDBRANCH  12  13
ENDBRANCH   1  12
TORSDOF 4
ENDMDL
MODEL 9
REMARK VINA RESULT:      -5.3      2.364      2.897
REMARK  4 active torsions:
REMARK  status: ('A' for Active; 'I' for Inactive)
REMARK    1  A    between atoms: C_2  and  C_3 
REMARK    2  A    between atoms: C_7  and  C_8 
REMARK    3  A    between atoms: C_8  and  C_9 
REMARK    4  A    between atoms: C_9  and  N_10 
REMARK       I    between atoms: N_10  and  C_11 
REMARK       I    between atoms: C_11  and  N_13 
ROOT
HETATM    1  N   UNL     1     -40.226 -50.933  13.521  1.00  0.00    -0.343 N 
HETATM    2  C   UNL     1     -40.773 -52.168  13.267  1.00  0.00     0.318 C 
HETATM    3  O   UNL     1     -40.148 -53.028  12.651  1.00  0.00    -0.247 OA
HETATM    4  N   UNL     1     -42.071 -52.360  13.722  1.00  0.00    -0.334 N 
HETATM    5  C   UNL     1     -42.893 -51.359  14.409  1.00  0.00     0.127 C 
HETATM    6  C   UNL     1     -43.793 -50.616  13.430  1.00  0.00     0.020 C 
HETATM    7  C   UNL     1     -45.151 -51.287  13.227  1.00  0.00     0.002 C 
HETATM    8  C   UNL     1     -45.153 -52.815  13.152  1.00  0.00     0.002 C 
HETATM    9  C   UNL     1     -43.951 -53.427  12.434  1.00  0.00     0.020 C 
HETATM   10  C   UNL     1     -42.737 -53.611  13.353  1.00  0.00     0.127 C 
HETATM   11  H   UNL     1     -40.493 -50.530  14.402  1.00  0.00     0.164 HD
ENDROOT
BRANCH   1  12
HETATM   12  C   UNL     1     -38.858 -50.620  13.130  1.00  0.00     0.131 C 
BRANCH  12  13
HETATM   13  C   UNL     1     -38.722 -50.086  11.704  1.00  0.00     0.084 C 
BRANCH  13  14
HETATM   14  C   UNL     1     -39.821 -49.121  11.385  1.00  0.00     0.052 A 
HETATM   15  N   UNL     1     -40.842 -49.390  10.597  1.00  0.00    -0.363 N 
HETATM   16  C   UNL     1     -41.629 -48.263  10.457  1.00  0.00     0.103 A 
ATOM     17  HN  UNL     1     -41.023 -50.292  10.157  1.00  0.00     0.165 HD
HETATM   18  C   UNL     1     -41.205 -47.144  11.145  1.00  0.00    -0.001 A 
HETATM   19  S   UNL     1     -39.792 -47.529  12.035  1.00  0.00    -0.080 SA
BRANCH  18  20
HETATM   20  C   UNL     1     -41.781 -45.767  11.164  1.00  0.00     0.043 C 
HETATM   21  C   UNL     1     -40.709 -44.692  11.104  1.00  0.00     0.010 C 
ENDBRANCH  18  20
ENDBRANCH  13  14
ENDBRANCH  12  13
ENDBRANCH   1  12
TORSDOF 4
ENDMDL
