MODEL 1
REMARK VINA RESULT:      -6.3      0.000      0.000
REMARK  4 active torsions:
REMARK  status: ('A' for Active; 'I' for Inactive)
REMARK    1  A    between atoms: C_5  and  O_6 
REMARK    2  A    between atoms: C_5  and  C_7 
REMARK    3  A    between atoms: C_7  and  N_8 
REMARK    4  A    between atoms: C_12  and  C_16 
ROOT
HETATM    1  N   UNL     1     -42.249 -50.803  12.582  1.00  0.00    -0.308 N 
HETATM    2  C   UNL     1     -43.507 -50.391  12.951  1.00  0.00     0.186 A 
HETATM    3  N   UNL     1     -44.539 -51.161  13.056  1.00  0.00    -0.355 N 
ATOM      4  HN  UNL     1     -45.455 -50.793  13.315  1.00  0.00     0.166 HD
HETATM    5  C   UNL     1     -44.347 -52.493  12.803  1.00  0.00     0.019 A 
HETATM    6  C   UNL     1     -43.189 -53.015  12.385  1.00  0.00     0.100 A 
HETATM    7  C   UNL     1     -42.031 -52.123  12.252  1.00  0.00     0.250 A 
HETATM    8  O   UNL     1     -40.955 -52.601  11.910  1.00  0.00    -0.268 OA
ENDROOT
BRANCH   1   9
HETATM    9  C   UNL     1     -41.111 -49.892  12.708  1.00  0.00     0.170 C 
BRANCH   9  10
HETATM   10  C   UNL     1     -40.693 -49.171  11.399  1.00  0.00     0.074 C 
HETATM   11  C   UNL     1     -39.477 -48.243  11.550  1.00  0.00     0.040 C 
HETATM   12  C   UNL     1     -39.774 -47.001  12.391  1.00  0.00     0.007 C 
HETATM   13  C   UNL     1     -40.977 -46.198  11.882  1.00  0.00    -0.019 C 
HETATM   14  C   UNL     1     -40.622 -45.408  10.621  1.00  0.00     0.010 C 
HETATM   15  C   UNL     1     -42.197 -47.105  11.663  1.00  0.00     0.007 C 
HETATM   16  C   UNL     1     -41.880 -48.356  10.839  1.00  0.00     0.040 C 
BRANCH  10  17
HETATM   17  O   UNL     1     -40.392 -50.172  10.413  1.00  0.00    -0.388 OA
HETATM   18  H   UNL     1     -40.922 -49.980   9.620  1.00  0.00     0.210 HD
ENDBRANCH  10  17
ENDBRANCH   9  10
ENDBRANCH   1   9
BRANCH   5  19
HETATM   19  C   UNL     1     -45.447 -53.443  13.133  1.00  0.00     0.036 C 
HETATM   20  C   UNL     1     -46.288 -53.136  14.401  1.00  0.00     0.011 C 
HETATM   21  C   UNL     1     -46.396 -54.662  14.599  1.00  0.00     0.001 C 
HETATM   22  C   UNL     1     -45.067 -54.779  13.824  1.00  0.00     0.011 C 
ENDBRANCH   5  19
TORSDOF 4
ENDMDL
MODEL 2
REMARK VINA RESULT:      -6.1      1.846      6.761
REMARK  4 active torsions:
REMARK  status: ('A' for Active; 'I' for Inactive)
REMARK    1  A    between atoms: C_5  and  O_6 
REMARK    2  A    between atoms: C_5  and  C_7 
REMARK    3  A    between atoms: C_7  and  N_8 
REMARK    4  A    between atoms: C_12  and  C_16 
ROOT
HETATM    1  N   UNL     1     -40.014 -50.726  13.219  1.00  0.00    -0.308 N 
HETATM    2  C   UNL     1     -40.904 -49.711  13.477  1.00  0.00     0.186 A 
HETATM    3  N   UNL     1     -40.832 -48.519  12.987  1.00  0.00    -0.355 N 
ATOM      4  HN  UNL     1     -41.513 -47.800  13.231  1.00  0.00     0.166 HD
HETATM    5  C   UNL     1     -39.798 -48.264  12.125  1.00  0.00     0.019 A 
HETATM    6  C   UNL     1     -38.835 -49.145  11.833  1.00  0.00     0.100 A 
HETATM    7  C   UNL     1     -38.921 -50.489  12.413  1.00  0.00     0.250 A 
HETATM    8  O   UNL     1     -38.065 -51.316  12.116  1.00  0.00    -0.268 OA
ENDROOT
BRANCH   1   9
HETATM    9  C   UNL     1     -40.312 -52.093  13.650  1.00  0.00     0.170 C 
BRANCH   9  10
HETATM   10  C   UNL     1     -41.198 -52.914  12.675  1.00  0.00     0.074 C 
HETATM   11  C   UNL     1     -42.558 -52.268  12.363  1.00  0.00     0.040 C 
HETATM   12  C   UNL     1     -43.507 -52.264  13.562  1.00  0.00     0.007 C 
HETATM   13  C   UNL     1     -43.723 -53.656  14.168  1.00  0.00    -0.019 C 
HETATM   14  C   UNL     1     -44.642 -54.506  13.289  1.00  0.00     0.010 C 
HETATM   15  C   UNL     1     -42.383 -54.356  14.440  1.00  0.00     0.007 C 
HETATM   16  C   UNL     1     -41.434 -54.333  13.239  1.00  0.00     0.040 C 
BRANCH  10  17
HETATM   17  O   UNL     1     -40.473 -53.085  11.447  1.00  0.00    -0.388 OA
HETATM   18  H   UNL     1     -40.445 -52.223  10.994  1.00  0.00     0.210 HD
ENDBRANCH  10  17
ENDBRANCH   9  10
ENDBRANCH   1   9
BRANCH   5  19
HETATM   19  C   UNL     1     -39.808 -46.982  11.366  1.00  0.00     0.036 C 
HETATM   20  C   UNL     1     -39.901 -45.672  12.194  1.00  0.00     0.011 C 
HETATM   21  C   UNL     1     -40.735 -45.093  11.032  1.00  0.00     0.001 C 
HETATM   22  C   UNL     1     -41.141 -46.545  10.702  1.00  0.00     0.011 C 
ENDBRANCH   5  19
TORSDOF 4
ENDMDL
MODEL 3
REMARK VINA RESULT:      -6.1      1.636      6.628
REMARK  4 active torsions:
REMARK  status: ('A' for Active; 'I' for Inactive)
REMARK    1  A    between atoms: C_5  and  O_6 
REMARK    2  A    between atoms: C_5  and  C_7 
REMARK    3  A    between atoms: C_7  and  N_8 
REMARK    4  A    between atoms: C_12  and  C_16 
ROOT
HETATM    1  N   UNL     1     -42.217 -50.287  12.671  1.00  0.00    -0.308 N 
HETATM    2  C   UNL     1     -43.294 -49.441  12.556  1.00  0.00     0.186 A 
HETATM    3  N   UNL     1     -43.367 -48.438  11.745  1.00  0.00    -0.355 N 
ATOM      4  HN  UNL     1     -44.186 -47.832  11.718  1.00  0.00     0.166 HD
HETATM    5  C   UNL     1     -42.292 -48.227  10.923  1.00  0.00     0.019 A 
HETATM    6  C   UNL     1     -41.163 -48.941  10.970  1.00  0.00     0.100 A 
HETATM    7  C   UNL     1     -41.089 -50.065  11.911  1.00  0.00     0.250 A 
HETATM    8  O   UNL     1     -40.073 -50.751  11.931  1.00  0.00    -0.268 OA
ENDROOT
BRANCH   1   9
HETATM    9  C   UNL     1     -42.328 -51.515  13.459  1.00  0.00     0.170 C 
BRANCH   9  10
HETATM   10  C   UNL     1     -42.915 -52.736  12.702  1.00  0.00     0.074 C 
HETATM   11  C   UNL     1     -44.442 -52.693  12.524  1.00  0.00     0.040 C 
HETATM   12  C   UNL     1     -45.202 -52.872  13.839  1.00  0.00     0.007 C 
HETATM   13  C   UNL     1     -44.805 -54.144  14.599  1.00  0.00    -0.019 C 
HETATM   14  C   UNL     1     -45.402 -55.390  13.944  1.00  0.00     0.010 C 
HETATM   15  C   UNL     1     -43.279 -54.249  14.746  1.00  0.00     0.007 C 
HETATM   16  C   UNL     1     -42.531 -54.045  13.426  1.00  0.00     0.040 C 
BRANCH  10  17
HETATM   17  O   UNL     1     -42.299 -52.797  11.405  1.00  0.00    -0.388 OA
HETATM   18  H   UNL     1     -42.951 -53.160  10.781  1.00  0.00     0.210 HD
ENDBRANCH  10  17
ENDBRANCH   9  10
ENDBRANCH   1   9
BRANCH   5  19
HETATM   19  C   UNL     1     -42.426 -47.230   9.823  1.00  0.00     0.036 C 
HETATM   20  C   UNL     1     -42.961 -45.824  10.206  1.00  0.00     0.011 C 
HETATM   21  C   UNL     1     -43.652 -45.800   8.827  1.00  0.00     0.001 C 
HETATM   22  C   UNL     1     -43.663 -47.342   8.893  1.00  0.00     0.011 C 
ENDBRANCH   5  19
TORSDOF 4
ENDMDL
MODEL 4
REMARK VINA RESULT:      -6.0      1.612      6.877
REMARK  4 active torsions:
REMARK  status: ('A' for Active; 'I' for Inactive)
REMARK    1  A    between atoms: C_5  and  O_6 
REMARK    2  A    between atoms: C_5  and  C_7 
REMARK    3  A    between atoms: C_7  and  N_8 
REMARK    4  A    between atoms: C_12  and  C_16 
ROOT
HETATM    1  N   UNL     1     -41.956 -51.095  12.813  1.00  0.00    -0.308 N 
HETATM    2  C   UNL     1     -41.074 -50.997  11.763  1.00  0.00     0.186 A 
HETATM    3  N   UNL     1     -40.947 -49.966  10.995  1.00  0.00    -0.355 N 
ATOM      4  HN  UNL     1     -40.287 -49.959  10.217  1.00  0.00     0.166 HD
HETATM    5  C   UNL     1     -41.740 -48.884  11.273  1.00  0.00     0.019 A 
HETATM    6  C   UNL     1     -42.675 -48.869  12.229  1.00  0.00     0.100 A 
HETATM    7  C   UNL     1     -42.820 -50.055  13.080  1.00  0.00     0.250 A 
HETATM    8  O   UNL     1     -43.646 -50.033  13.986  1.00  0.00    -0.268 OA
ENDROOT
BRANCH   1   9
HETATM    9  C   UNL     1     -41.863 -52.216  13.749  1.00  0.00     0.170 C 
BRANCH   9  10
HETATM   10  C   UNL     1     -42.351 -53.582  13.195  1.00  0.00     0.074 C 
HETATM   11  C   UNL     1     -43.615 -53.494  12.324  1.00  0.00     0.040 C 
HETATM   12  C   UNL     1     -44.867 -53.127  13.122  1.00  0.00     0.007 C 
HETATM   13  C   UNL     1     -45.122 -54.062  14.310  1.00  0.00    -0.019 C 
HETATM   14  C   UNL     1     -45.667 -55.414  13.844  1.00  0.00     0.010 C 
HETATM   15  C   UNL     1     -43.861 -54.220  15.173  1.00  0.00     0.007 C 
HETATM   16  C   UNL     1     -42.612 -54.564  14.359  1.00  0.00     0.040 C 
BRANCH  10  17
HETATM   17  O   UNL     1     -41.289 -54.154  12.415  1.00  0.00    -0.388 OA
HETATM   18  H   UNL     1     -41.633 -54.955  11.983  1.00  0.00     0.210 HD
ENDBRANCH  10  17
ENDBRANCH   9  10
ENDBRANCH   1   9
BRANCH   5  19
HETATM   19  C   UNL     1     -41.466 -47.604  10.561  1.00  0.00     0.036 C 
HETATM   20  C   UNL     1     -40.379 -46.677  11.168  1.00  0.00     0.011 C 
HETATM   21  C   UNL     1     -41.235 -45.490  10.680  1.00  0.00     0.001 C 
HETATM   22  C   UNL     1     -42.455 -46.429  10.780  1.00  0.00     0.011 C 
ENDBRANCH   5  19
TORSDOF 4
ENDMDL
MODEL 5
REMARK VINA RESULT:      -5.8      2.819      6.527
REMARK  4 active torsions:
REMARK  status: ('A' for Active; 'I' for Inactive)
REMARK    1  A    between atoms: C_5  and  O_6 
REMARK    2  A    between atoms: C_5  and  C_7 
REMARK    3  A    between atoms: C_7  and  N_8 
REMARK    4  A    between atoms: C_12  and  C_16 
ROOT
HETATM    1  N   UNL     1     -41.060 -52.309  14.320  1.00  0.00    -0.308 N 
HETATM    2  C   UNL     1     -41.053 -51.129  15.024  1.00  0.00     0.186 A 
HETATM    3  N   UNL     1     -40.024 -50.364  15.180  1.00  0.00    -0.355 N 
ATOM      4  HN  UNL     1     -40.074 -49.508  15.732  1.00  0.00     0.166 HD
HETATM    5  C   UNL     1     -38.862 -50.756  14.569  1.00  0.00     0.019 A 
HETATM    6  C   UNL     1     -38.720 -51.905  13.900  1.00  0.00     0.100 A 
HETATM    7  C   UNL     1     -39.894 -52.772  13.749  1.00  0.00     0.250 A 
HETATM    8  O   UNL     1     -39.783 -53.808  13.101  1.00  0.00    -0.268 OA
ENDROOT
BRANCH   1   9
HETATM    9  C   UNL     1     -42.326 -52.980  14.023  1.00  0.00     0.170 C 
BRANCH   9  10
HETATM   10  C   UNL     1     -43.081 -52.448  12.776  1.00  0.00     0.074 C 
HETATM   11  C   UNL     1     -43.703 -51.055  12.962  1.00  0.00     0.040 C 
HETATM   12  C   UNL     1     -44.879 -51.051  13.940  1.00  0.00     0.007 C 
HETATM   13  C   UNL     1     -45.973 -52.061  13.574  1.00  0.00    -0.019 C 
HETATM   14  C   UNL     1     -46.803 -51.573  12.385  1.00  0.00     0.010 C 
HETATM   15  C   UNL     1     -45.380 -53.455  13.324  1.00  0.00     0.007 C 
HETATM   16  C   UNL     1     -44.189 -53.441  12.362  1.00  0.00     0.040 C 
BRANCH  10  17
HETATM   17  O   UNL     1     -42.154 -52.399  11.679  1.00  0.00    -0.388 OA
HETATM   18  H   UNL     1     -42.533 -52.911  10.943  1.00  0.00     0.210 HD
ENDBRANCH  10  17
ENDBRANCH   9  10
ENDBRANCH   1   9
BRANCH   5  19
HETATM   19  C   UNL     1     -37.723 -49.796  14.531  1.00  0.00     0.036 C 
HETATM   20  C   UNL     1     -37.616 -48.781  15.701  1.00  0.00     0.011 C 
HETATM   21  C   UNL     1     -37.064 -47.775  14.670  1.00  0.00     0.001 C 
HETATM   22  C   UNL     1     -37.847 -48.562  13.598  1.00  0.00     0.011 C 
ENDBRANCH   5  19
TORSDOF 4
ENDMDL
MODEL 6
REMARK VINA RESULT:      -5.5      1.927      2.346
REMARK  4 active torsions:
REMARK  status: ('A' for Active; 'I' for Inactive)
REMARK    1  A    between atoms: C_5  and  O_6 
REMARK    2  A    between atoms: C_5  and  C_7 
REMARK    3  A    between atoms: C_7  and  N_8 
REMARK    4  A    between atoms: C_12  and  C_16 
ROOT
HETATM    1  N   UNL     1     -41.020 -50.716  12.923  1.00  0.00    -0.308 N 
HETATM    2  C   UNL     1     -42.276 -51.109  13.320  1.00  0.00     0.186 A 
HETATM    3  N   UNL     1     -42.601 -52.310  13.669  1.00  0.00    -0.355 N 
ATOM      4  HN  UNL     1     -43.556 -52.547  13.936  1.00  0.00     0.166 HD
HETATM    5  C   UNL     1     -41.604 -53.249  13.664  1.00  0.00     0.019 A 
HETATM    6  C   UNL     1     -40.355 -53.010  13.250  1.00  0.00     0.100 A 
HETATM    7  C   UNL     1     -40.007 -51.646  12.837  1.00  0.00     0.250 A 
HETATM    8  O   UNL     1     -38.853 -51.410  12.496  1.00  0.00    -0.268 OA
ENDROOT
BRANCH   1   9
HETATM    9  C   UNL     1     -40.712 -49.294  12.762  1.00  0.00     0.170 C 
BRANCH   9  10
HETATM   10  C   UNL     1     -40.933 -48.727  11.334  1.00  0.00     0.074 C 
HETATM   11  C   UNL     1     -40.228 -47.387  11.072  1.00  0.00     0.040 C 
HETATM   12  C   UNL     1     -40.838 -46.226  11.859  1.00  0.00     0.007 C 
HETATM   13  C   UNL     1     -42.347 -46.069  11.634  1.00  0.00    -0.019 C 
HETATM   14  C   UNL     1     -42.642 -45.455  10.264  1.00  0.00     0.010 C 
HETATM   15  C   UNL     1     -43.079 -47.405  11.832  1.00  0.00     0.007 C 
HETATM   16  C   UNL     1     -42.444 -48.562  11.057  1.00  0.00     0.040 C 
BRANCH  10  17
HETATM   17  O   UNL     1     -40.454 -49.697  10.389  1.00  0.00    -0.388 OA
HETATM   18  H   UNL     1     -39.888 -50.328  10.868  1.00  0.00     0.210 HD
ENDBRANCH  10  17
ENDBRANCH   9  10
ENDBRANCH   1   9
BRANCH   5  19
HETATM   19  C   UNL     1     -41.881 -54.580  14.274  1.00  0.00     0.036 C 
HETATM   20  C   UNL     1     -43.330 -54.842  14.768  1.00  0.00     0.011 C 
HETATM   21  C   UNL     1     -42.704 -55.680  15.902  1.00  0.00     0.001 C 
HETATM   22  C   UNL     1     -41.440 -54.809  15.744  1.00  0.00     0.011 C 
ENDBRANCH   5  19
TORSDOF 4
ENDMDL
MODEL 7
REMARK VINA RESULT:      -5.4      3.983      7.848
REMARK  4 active torsions:
REMARK  status: ('A' for Active; 'I' for Inactive)
REMARK    1  A    between atoms: C_5  and  O_6 
REMARK    2  A    between atoms: C_5  and  C_7 
REMARK    3  A    between atoms: C_7  and  N_8 
REMARK    4  A    between atoms: C_12  and  C_16 
ROOT
HETATM    1  N   UNL     1     -39.067 -51.207  14.017  1.00  0.00    -0.308 N 
HETATM    2  C   UNL     1     -39.503 -50.489  15.105  1.00  0.00     0.186 A 
HETATM    3  N   UNL     1     -38.803 -49.611  15.744  1.00  0.00    -0.355 N 
ATOM      4  HN  UNL     1     -39.174 -49.123  16.559  1.00  0.00     0.166 HD
HETATM    5  C   UNL     1     -37.539 -49.367  15.275  1.00  0.00     0.019 A 
HETATM    6  C   UNL     1     -36.976 -50.032  14.261  1.00  0.00     0.100 A 
HETATM    7  C   UNL     1     -37.778 -51.040  13.559  1.00  0.00     0.250 A 
HETATM    8  O   UNL     1     -37.284 -51.625  12.601  1.00  0.00    -0.268 OA
ENDROOT
BRANCH   1   9
HETATM    9  C   UNL     1     -40.013 -52.010  13.240  1.00  0.00     0.170 C 
BRANCH   9  10
HETATM   10  C   UNL     1     -40.083 -53.510  13.631  1.00  0.00     0.074 C 
HETATM   11  C   UNL     1     -41.162 -54.308  12.881  1.00  0.00     0.040 C 
HETATM   12  C   UNL     1     -42.584 -53.915  13.284  1.00  0.00     0.007 C 
HETATM   13  C   UNL     1     -42.831 -54.006  14.795  1.00  0.00    -0.019 C 
HETATM   14  C   UNL     1     -42.974 -55.460  15.247  1.00  0.00     0.010 C 
HETATM   15  C   UNL     1     -41.738 -53.267  15.581  1.00  0.00     0.007 C 
HETATM   16  C   UNL     1     -40.320 -53.652  15.151  1.00  0.00     0.040 C 
BRANCH  10  17
HETATM   17  O   UNL     1     -38.801 -54.102  13.366  1.00  0.00    -0.388 OA
HETATM   18  H   UNL     1     -38.280 -53.466  12.844  1.00  0.00     0.210 HD
ENDBRANCH  10  17
ENDBRANCH   9  10
ENDBRANCH   1   9
BRANCH   5  19
HETATM   19  C   UNL     1     -36.787 -48.208  15.836  1.00  0.00     0.036 C 
HETATM   20  C   UNL     1     -35.503 -48.527  16.647  1.00  0.00     0.011 C 
HETATM   21  C   UNL     1     -35.859 -47.314  17.532  1.00  0.00     0.001 C 
HETATM   22  C   UNL     1     -37.331 -47.555  17.135  1.00  0.00     0.011 C 
ENDBRANCH   5  19
TORSDOF 4
ENDMDL
MODEL 8
REMARK VINA RESULT:      -5.3      2.376      3.471
REMARK  4 active torsions:
REMARK  status: ('A' for Active; 'I' for Inactive)
REMARK    1  A    between atoms: C_5  and  O_6 
REMARK    2  A    between atoms: C_5  and  C_7 
REMARK    3  A    between atoms: C_7  and  N_8 
REMARK    4  A    between atoms: C_12  and  C_16 
ROOT
HETATM    1  N   UNL     1     -39.797 -49.177  12.349  1.00  0.00    -0.308 N 
HETATM    2  C   UNL     1     -40.265 -49.806  11.221  1.00  0.00     0.186 A 
HETATM    3  N   UNL     1     -40.775 -50.992  11.190  1.00  0.00    -0.355 N 
ATOM      4  HN  UNL     1     -41.088 -51.416  10.317  1.00  0.00     0.166 HD
HETATM    5  C   UNL     1     -40.875 -51.655  12.385  1.00  0.00     0.019 A 
HETATM    6  C   UNL     1     -40.410 -51.179  13.544  1.00  0.00     0.100 A 
HETATM    7  C   UNL     1     -39.816 -49.838  13.558  1.00  0.00     0.250 A 
HETATM    8  O   UNL     1     -39.425 -49.377  14.626  1.00  0.00    -0.268 OA
ENDROOT
BRANCH   1   9
HETATM    9  C   UNL     1     -39.445 -47.757  12.307  1.00  0.00     0.170 C 
BRANCH   9  10
HETATM   10  C   UNL     1     -40.629 -46.776  12.522  1.00  0.00     0.074 C 
HETATM   11  C   UNL     1     -41.285 -46.286  11.221  1.00  0.00     0.040 C 
HETATM   12  C   UNL     1     -40.383 -45.356  10.409  1.00  0.00     0.007 C 
HETATM   13  C   UNL     1     -39.870 -44.156  11.213  1.00  0.00    -0.019 C 
HETATM   14  C   UNL     1     -40.971 -43.112  11.412  1.00  0.00     0.010 C 
HETATM   15  C   UNL     1     -39.258 -44.604  12.548  1.00  0.00     0.007 C 
HETATM   16  C   UNL     1     -40.162 -45.552  13.340  1.00  0.00     0.040 C 
BRANCH  10  17
HETATM   17  O   UNL     1     -41.621 -47.440  13.321  1.00  0.00    -0.388 OA
HETATM   18  H   UNL     1     -42.028 -48.135  12.775  1.00  0.00     0.210 HD
ENDBRANCH  10  17
ENDBRANCH   9  10
ENDBRANCH   1   9
BRANCH   5  19
HETATM   19  C   UNL     1     -41.659 -52.922  12.428  1.00  0.00     0.036 C 
HETATM   20  C   UNL     1     -43.205 -52.793  12.498  1.00  0.00     0.011 C 
HETATM   21  C   UNL     1     -43.189 -54.062  13.376  1.00  0.00     0.001 C 
HETATM   22  C   UNL     1     -41.755 -53.667  13.786  1.00  0.00     0.011 C 
ENDBRANCH   5  19
TORSDOF 4
ENDMDL
MODEL 9
REMARK VINA RESULT:      -5.3      2.153      7.090
REMARK  4 active torsions:
REMARK  status: ('A' for Active; 'I' for Inactive)
REMARK    1  A    between atoms: C_5  and  O_6 
REMARK    2  A    between atoms: C_5  and  C_7 
REMARK    3  A    between atoms: C_7  and  N_8 
REMARK    4  A    between atoms: C_12  and  C_16 
ROOT
HETATM    1  N   UNL     1     -40.853 -49.596  11.875  1.00  0.00    -0.308 N 
HETATM    2  C   UNL     1     -42.027 -48.937  11.599  1.00  0.00     0.186 A 
HETATM    3  N   UNL     1     -42.122 -47.684  11.303  1.00  0.00    -0.355 N 
ATOM      4  HN  UNL     1     -43.025 -47.244  11.127  1.00  0.00     0.166 HD
HETATM    5  C   UNL     1     -40.953 -46.972  11.236  1.00  0.00     0.019 A 
HETATM    6  C   UNL     1     -39.752 -47.479  11.533  1.00  0.00     0.100 A 
HETATM    7  C   UNL     1     -39.664 -48.900  11.887  1.00  0.00     0.250 A 
HETATM    8  O   UNL     1     -38.560 -49.382  12.119  1.00  0.00    -0.268 OA
ENDROOT
BRANCH   1   9
HETATM    9  C   UNL     1     -40.837 -51.056  11.982  1.00  0.00     0.170 C 
BRANCH   9  10
HETATM   10  C   UNL     1     -40.925 -51.614  13.428  1.00  0.00     0.074 C 
HETATM   11  C   UNL     1     -40.269 -52.992  13.613  1.00  0.00     0.040 C 
HETATM   12  C   UNL     1     -41.029 -54.115  12.905  1.00  0.00     0.007 C 
HETATM   13  C   UNL     1     -42.508 -54.189  13.301  1.00  0.00    -0.019 C 
HETATM   14  C   UNL     1     -42.677 -54.789  14.698  1.00  0.00     0.010 C 
HETATM   15  C   UNL     1     -43.183 -52.814  13.184  1.00  0.00     0.007 C 
HETATM   16  C   UNL     1     -42.400 -51.696  13.877  1.00  0.00     0.040 C 
BRANCH  10  17
HETATM   17  O   UNL     1     -40.287 -50.675  14.309  1.00  0.00    -0.388 OA
HETATM   18  H   UNL     1     -39.760 -51.180  14.953  1.00  0.00     0.210 HD
ENDBRANCH  10  17
ENDBRANCH   9  10
ENDBRANCH   1   9
BRANCH   5  19
HETATM   19  C   UNL     1     -40.996 -45.591  10.678  1.00  0.00     0.036 C 
HETATM   20  C   UNL     1     -39.643 -44.842  10.542  1.00  0.00     0.011 C 
HETATM   21  C   UNL     1     -40.418 -43.550  10.874  1.00  0.00     0.001 C 
HETATM   22  C   UNL     1     -41.428 -44.441  11.626  1.00  0.00     0.011 C 
ENDBRANCH   5  19
TORSDOF 4
ENDMDL
