MODEL 1
REMARK VINA RESULT:      -5.6      0.000      0.000
REMARK  3 active torsions:
REMARK  status: ('A' for Active; 'I' for Inactive)
REMARK    1  A    between atoms: C_7  and  C_8 
REMARK    2  A    between atoms: C_8  and  C_9 
REMARK       I    between atoms: C_9  and  N_11 
REMARK    3  A    between atoms: N_11  and  C_12 
ROOT
HETATM    1  C   UNL     1     -47.994 -50.913  17.089  1.00  0.00     0.089 C 
HETATM    2  C   UNL     1     -47.242 -51.707  16.061  1.00  0.00     0.080 A 
HETATM    3  N   UNL     1     -47.238 -51.349  14.822  1.00  0.00    -0.349 N 
ATOM      4  HN  UNL     1     -47.756 -50.526  14.513  1.00  0.00     0.167 HD
HETATM    5  C   UNL     1     -46.517 -52.104  13.928  1.00  0.00     0.018 A 
HETATM    6  C   UNL     1     -46.542 -51.560  12.522  1.00  0.00     0.069 C 
HETATM    7  C   UNL     1     -45.845 -53.226  14.265  1.00  0.00     0.041 A 
HETATM    8  C   UNL     1     -45.905 -53.639  15.687  1.00  0.00     0.255 A 
HETATM    9  O   UNL     1     -45.380 -54.676  16.084  1.00  0.00    -0.268 OA
HETATM   10  N   UNL     1     -46.580 -52.803  16.522  1.00  0.00    -0.313 N 
HETATM   11  H   UNL     1     -46.618 -53.068  17.495  1.00  0.00     0.170 HD
ENDROOT
BRANCH   7  12
HETATM   12  C   UNL     1     -44.997 -54.090  13.379  1.00  0.00     0.149 C 
BRANCH  12  13
HETATM   13  C   UNL     1     -43.562 -53.588  13.333  1.00  0.00     0.222 C 
HETATM   14  O   UNL     1     -43.193 -52.777  12.486  1.00  0.00    -0.273 OA
HETATM   15  N   UNL     1     -42.732 -54.083  14.319  1.00  0.00    -0.356 N 
HETATM   16  H   UNL     1     -43.018 -54.942  14.784  1.00  0.00     0.162 HD
BRANCH  15  17
HETATM   17  C   UNL     1     -41.342 -53.671  14.395  1.00  0.00     0.084 C 
HETATM   18  C   UNL     1     -40.434 -54.392  13.394  1.00  0.00     0.025 C 
HETATM   19  C   UNL     1     -39.052 -54.458  14.053  1.00  0.00     0.002 C 
HETATM   20  C   UNL     1     -39.207 -53.822  15.431  1.00  0.00     0.002 C 
HETATM   21  C   UNL     1     -40.690 -53.957  15.744  1.00  0.00     0.025 C 
ENDBRANCH  15  17
ENDBRANCH  12  13
ENDBRANCH   7  12
TORSDOF 3
ENDMDL
MODEL 2
REMARK VINA RESULT:      -5.3      2.608      6.684
REMARK  3 active torsions:
REMARK  status: ('A' for Active; 'I' for Inactive)
REMARK    1  A    between atoms: C_7  and  C_8 
REMARK    2  A    between atoms: C_8  and  C_9 
REMARK       I    between atoms: C_9  and  N_11 
REMARK    3  A    between atoms: N_11  and  C_12 
ROOT
HETATM    1  C   UNL     1     -37.845 -49.560  14.761  1.00  0.00     0.089 C 
HETATM    2  C   UNL     1     -38.640 -50.746  14.298  1.00  0.00     0.080 A 
HETATM    3  N   UNL     1     -38.552 -51.879  14.908  1.00  0.00    -0.349 N 
ATOM      4  HN  UNL     1     -37.930 -51.996  15.709  1.00  0.00     0.167 HD
HETATM    5  C   UNL     1     -39.316 -52.926  14.452  1.00  0.00     0.018 A 
HETATM    6  C   UNL     1     -39.171 -54.182  15.273  1.00  0.00     0.069 C 
HETATM    7  C   UNL     1     -40.126 -52.849  13.373  1.00  0.00     0.041 A 
HETATM    8  C   UNL     1     -40.172 -51.547  12.665  1.00  0.00     0.255 A 
HETATM    9  O   UNL     1     -40.829 -51.391  11.639  1.00  0.00    -0.268 OA
HETATM   10  N   UNL     1     -39.442 -50.542  13.217  1.00  0.00    -0.313 N 
HETATM   11  H   UNL     1     -39.475 -49.648  12.750  1.00  0.00     0.170 HD
ENDROOT
BRANCH   7  12
HETATM   12  C   UNL     1     -41.030 -53.913  12.825  1.00  0.00     0.149 C 
BRANCH  12  13
HETATM   13  C   UNL     1     -42.398 -53.866  13.487  1.00  0.00     0.222 C 
HETATM   14  O   UNL     1     -42.714 -54.665  14.366  1.00  0.00    -0.273 OA
HETATM   15  N   UNL     1     -43.230 -52.853  13.051  1.00  0.00    -0.356 N 
HETATM   16  H   UNL     1     -43.022 -52.432  12.148  1.00  0.00     0.162 HD
BRANCH  15  17
HETATM   17  C   UNL     1     -44.558 -52.689  13.614  1.00  0.00     0.084 C 
HETATM   18  C   UNL     1     -45.664 -52.597  12.558  1.00  0.00     0.025 C 
HETATM   19  C   UNL     1     -46.759 -51.718  13.172  1.00  0.00     0.002 C 
HETATM   20  C   UNL     1     -46.240 -51.287  14.540  1.00  0.00     0.002 C 
HETATM   21  C   UNL     1     -44.728 -51.410  14.426  1.00  0.00     0.025 C 
ENDBRANCH  15  17
ENDBRANCH  12  13
ENDBRANCH   7  12
TORSDOF 3
ENDMDL
MODEL 3
REMARK VINA RESULT:      -5.3      5.319      6.480
REMARK  3 active torsions:
REMARK  status: ('A' for Active; 'I' for Inactive)
REMARK    1  A    between atoms: C_7  and  C_8 
REMARK    2  A    between atoms: C_8  and  C_9 
REMARK       I    between atoms: C_9  and  N_11 
REMARK    3  A    between atoms: N_11  and  C_12 
ROOT
HETATM    1  C   UNL     1     -44.412 -46.763   8.794  1.00  0.00     0.089 C 
HETATM    2  C   UNL     1     -43.377 -47.086   9.832  1.00  0.00     0.080 A 
HETATM    3  N   UNL     1     -42.222 -46.513   9.815  1.00  0.00    -0.349 N 
ATOM      4  HN  UNL     1     -41.983 -45.838   9.088  1.00  0.00     0.167 HD
HETATM    5  C   UNL     1     -41.320 -46.834  10.801  1.00  0.00     0.018 A 
HETATM    6  C   UNL     1     -40.027 -46.064  10.710  1.00  0.00     0.069 C 
HETATM    7  C   UNL     1     -41.559 -47.748  11.767  1.00  0.00     0.041 A 
HETATM    8  C   UNL     1     -42.878 -48.424  11.735  1.00  0.00     0.255 A 
HETATM    9  O   UNL     1     -43.169 -49.313  12.530  1.00  0.00    -0.268 OA
HETATM   10  N   UNL     1     -43.740 -48.003  10.771  1.00  0.00    -0.313 N 
HETATM   11  H   UNL     1     -44.646 -48.447  10.747  1.00  0.00     0.170 HD
ENDROOT
BRANCH   7  12
HETATM   12  C   UNL     1     -40.664 -48.134  12.907  1.00  0.00     0.149 C 
BRANCH  12  13
HETATM   13  C   UNL     1     -39.975 -49.463  12.638  1.00  0.00     0.222 C 
HETATM   14  O   UNL     1     -39.050 -49.555  11.833  1.00  0.00    -0.273 OA
HETATM   15  N   UNL     1     -40.442 -50.531  13.379  1.00  0.00    -0.356 N 
HETATM   16  H   UNL     1     -41.369 -50.446  13.791  1.00  0.00     0.162 HD
BRANCH  15  17
HETATM   17  C   UNL     1     -39.858 -51.851  13.228  1.00  0.00     0.084 C 
HETATM   18  C   UNL     1     -40.836 -52.894  12.678  1.00  0.00     0.025 C 
HETATM   19  C   UNL     1     -40.393 -54.237  13.267  1.00  0.00     0.002 C 
HETATM   20  C   UNL     1     -39.207 -53.933  14.177  1.00  0.00     0.002 C 
HETATM   21  C   UNL     1     -39.378 -52.464  14.540  1.00  0.00     0.025 C 
ENDBRANCH  15  17
ENDBRANCH  12  13
ENDBRANCH   7  12
TORSDOF 3
ENDMDL
MODEL 4
REMARK VINA RESULT:      -5.2      3.772      6.034
REMARK  3 active torsions:
REMARK  status: ('A' for Active; 'I' for Inactive)
REMARK    1  A    between atoms: C_7  and  C_8 
REMARK    2  A    between atoms: C_8  and  C_9 
REMARK       I    between atoms: C_9  and  N_11 
REMARK    3  A    between atoms: N_11  and  C_12 
ROOT
HETATM    1  C   UNL     1     -42.333 -55.711  16.466  1.00  0.00     0.089 C 
HETATM    2  C   UNL     1     -42.033 -54.920  15.226  1.00  0.00     0.080 A 
HETATM    3  N   UNL     1     -42.985 -54.500  14.464  1.00  0.00    -0.349 N 
ATOM      4  HN  UNL     1     -43.960 -54.709  14.680  1.00  0.00     0.167 HD
HETATM    5  C   UNL     1     -42.652 -53.764  13.352  1.00  0.00     0.018 A 
HETATM    6  C   UNL     1     -43.846 -53.284  12.567  1.00  0.00     0.069 C 
HETATM    7  C   UNL     1     -41.381 -53.490  12.987  1.00  0.00     0.041 A 
HETATM    8  C   UNL     1     -40.306 -54.024  13.858  1.00  0.00     0.255 A 
HETATM    9  O   UNL     1     -39.118 -53.882  13.582  1.00  0.00    -0.268 OA
HETATM   10  N   UNL     1     -40.716 -54.681  14.975  1.00  0.00    -0.313 N 
HETATM   11  H   UNL     1     -39.994 -55.039  15.582  1.00  0.00     0.170 HD
ENDROOT
BRANCH   7  12
HETATM   12  C   UNL     1     -40.917 -52.663  11.825  1.00  0.00     0.149 C 
BRANCH  12  13
HETATM   13  C   UNL     1     -40.852 -51.188  12.191  1.00  0.00     0.222 C 
HETATM   14  O   UNL     1     -40.115 -50.781  13.087  1.00  0.00    -0.273 OA
HETATM   15  N   UNL     1     -41.649 -50.355  11.430  1.00  0.00    -0.356 N 
HETATM   16  H   UNL     1     -42.424 -50.781  10.926  1.00  0.00     0.162 HD
BRANCH  15  17
HETATM   17  C   UNL     1     -41.667 -48.923  11.668  1.00  0.00     0.084 C 
HETATM   18  C   UNL     1     -42.757 -48.479  12.648  1.00  0.00     0.025 C 
HETATM   19  C   UNL     1     -43.144 -47.057  12.229  1.00  0.00     0.002 C 
HETATM   20  C   UNL     1     -42.308 -46.735  10.995  1.00  0.00     0.002 C 
HETATM   21  C   UNL     1     -41.947 -48.096  10.418  1.00  0.00     0.025 C 
ENDBRANCH  15  17
ENDBRANCH  12  13
ENDBRANCH   7  12
TORSDOF 3
ENDMDL
MODEL 5
REMARK VINA RESULT:      -5.2      1.736      2.086
REMARK  3 active torsions:
REMARK  status: ('A' for Active; 'I' for Inactive)
REMARK    1  A    between atoms: C_7  and  C_8 
REMARK    2  A    between atoms: C_8  and  C_9 
REMARK       I    between atoms: C_9  and  N_11 
REMARK    3  A    between atoms: N_11  and  C_12 
ROOT
HETATM    1  C   UNL     1     -47.882 -50.796  17.246  1.00  0.00     0.089 C 
HETATM    2  C   UNL     1     -47.167 -51.652  16.240  1.00  0.00     0.080 A 
HETATM    3  N   UNL     1     -47.137 -51.321  14.994  1.00  0.00    -0.349 N 
ATOM      4  HN  UNL     1     -47.608 -50.478  14.664  1.00  0.00     0.167 HD
HETATM    5  C   UNL     1     -46.452 -52.132  14.121  1.00  0.00     0.018 A 
HETATM    6  C   UNL     1     -46.440 -51.618  12.704  1.00  0.00     0.069 C 
HETATM    7  C   UNL     1     -45.843 -53.281  14.486  1.00  0.00     0.041 A 
HETATM    8  C   UNL     1     -45.934 -53.659  15.917  1.00  0.00     0.255 A 
HETATM    9  O   UNL     1     -45.467 -54.714  16.339  1.00  0.00    -0.268 OA
HETATM   10  N   UNL     1     -46.567 -52.772  16.729  1.00  0.00    -0.313 N 
HETATM   11  H   UNL     1     -46.625 -53.013  17.707  1.00  0.00     0.170 HD
ENDROOT
BRANCH   7  12
HETATM   12  C   UNL     1     -45.038 -54.207  13.624  1.00  0.00     0.149 C 
BRANCH  12  13
HETATM   13  C   UNL     1     -43.548 -53.940  13.774  1.00  0.00     0.222 C 
HETATM   14  O   UNL     1     -42.802 -54.755  14.313  1.00  0.00    -0.273 OA
HETATM   15  N   UNL     1     -43.105 -52.748  13.236  1.00  0.00    -0.356 N 
HETATM   16  H   UNL     1     -43.798 -52.020  13.077  1.00  0.00     0.162 HD
BRANCH  15  17
HETATM   17  C   UNL     1     -41.702 -52.381  13.299  1.00  0.00     0.084 C 
HETATM   18  C   UNL     1     -41.413 -51.229  14.267  1.00  0.00     0.025 C 
HETATM   19  C   UNL     1     -40.193 -50.498  13.696  1.00  0.00     0.002 C 
HETATM   20  C   UNL     1     -39.840 -51.211  12.395  1.00  0.00     0.002 C 
HETATM   21  C   UNL     1     -41.135 -51.888  11.972  1.00  0.00     0.025 C 
ENDBRANCH  15  17
ENDBRANCH  12  13
ENDBRANCH   7  12
TORSDOF 3
ENDMDL
MODEL 6
REMARK VINA RESULT:      -5.2      8.141      9.995
REMARK  3 active torsions:
REMARK  status: ('A' for Active; 'I' for Inactive)
REMARK    1  A    between atoms: C_7  and  C_8 
REMARK    2  A    between atoms: C_8  and  C_9 
REMARK       I    between atoms: C_9  and  N_11 
REMARK    3  A    between atoms: N_11  and  C_12 
ROOT
HETATM    1  C   UNL     1     -42.608 -42.248  14.645  1.00  0.00     0.089 C 
HETATM    2  C   UNL     1     -42.241 -43.136  13.491  1.00  0.00     0.080 A 
HETATM    3  N   UNL     1     -41.297 -44.007  13.601  1.00  0.00    -0.349 N 
ATOM      4  HN  UNL     1     -40.771 -44.102  14.470  1.00  0.00     0.167 HD
HETATM    5  C   UNL     1     -41.017 -44.805  12.518  1.00  0.00     0.018 A 
HETATM    6  C   UNL     1     -39.933 -45.819  12.781  1.00  0.00     0.069 C 
HETATM    7  C   UNL     1     -41.646 -44.701  11.327  1.00  0.00     0.041 A 
HETATM    8  C   UNL     1     -42.696 -43.660  11.216  1.00  0.00     0.255 A 
HETATM    9  O   UNL     1     -43.284 -43.444  10.159  1.00  0.00    -0.268 OA
HETATM   10  N   UNL     1     -42.963 -42.959  12.350  1.00  0.00    -0.313 N 
HETATM   11  H   UNL     1     -43.684 -42.255  12.289  1.00  0.00     0.170 HD
ENDROOT
BRANCH   7  12
HETATM   12  C   UNL     1     -41.447 -45.548  10.106  1.00  0.00     0.149 C 
BRANCH  12  13
HETATM   13  C   UNL     1     -42.436 -46.703  10.071  1.00  0.00     0.222 C 
HETATM   14  O   UNL     1     -42.224 -47.748  10.683  1.00  0.00    -0.273 OA
HETATM   15  N   UNL     1     -43.583 -46.476   9.337  1.00  0.00    -0.356 N 
HETATM   16  H   UNL     1     -43.556 -45.732   8.643  1.00  0.00     0.162 HD
BRANCH  15  17
HETATM   17  C   UNL     1     -44.614 -47.493   9.237  1.00  0.00     0.084 C 
HETATM   18  C   UNL     1     -44.638 -48.210   7.883  1.00  0.00     0.025 C 
HETATM   19  C   UNL     1     -46.096 -48.620   7.651  1.00  0.00     0.002 C 
HETATM   20  C   UNL     1     -46.882 -48.090   8.845  1.00  0.00     0.002 C 
HETATM   21  C   UNL     1     -46.032 -46.948   9.381  1.00  0.00     0.025 C 
ENDBRANCH  15  17
ENDBRANCH  12  13
ENDBRANCH   7  12
TORSDOF 3
ENDMDL
MODEL 7
REMARK VINA RESULT:      -5.2      1.658      6.277
REMARK  3 active torsions:
REMARK  status: ('A' for Active; 'I' for Inactive)
REMARK    1  A    between atoms: C_7  and  C_8 
REMARK    2  A    between atoms: C_8  and  C_9 
REMARK       I    between atoms: C_9  and  N_11 
REMARK    3  A    between atoms: N_11  and  C_12 
ROOT
HETATM    1  C   UNL     1     -40.159 -54.092  13.622  1.00  0.00     0.089 C 
HETATM    2  C   UNL     1     -41.621 -54.147  13.962  1.00  0.00     0.080 A 
HETATM    3  N   UNL     1     -42.010 -54.336  15.177  1.00  0.00    -0.349 N 
ATOM      4  HN  UNL     1     -41.333 -54.467  15.929  1.00  0.00     0.167 HD
HETATM    5  C   UNL     1     -43.360 -54.359  15.432  1.00  0.00     0.018 A 
HETATM    6  C   UNL     1     -43.694 -54.533  16.892  1.00  0.00     0.069 C 
HETATM    7  C   UNL     1     -44.306 -54.234  14.477  1.00  0.00     0.041 A 
HETATM    8  C   UNL     1     -43.829 -54.063  13.083  1.00  0.00     0.255 A 
HETATM    9  O   UNL     1     -44.608 -54.003  12.135  1.00  0.00    -0.268 OA
HETATM   10  N   UNL     1     -42.482 -53.982  12.921  1.00  0.00    -0.313 N 
HETATM   11  H   UNL     1     -42.145 -53.854  11.978  1.00  0.00     0.170 HD
ENDROOT
BRANCH   7  12
HETATM   12  C   UNL     1     -45.795 -54.201  14.657  1.00  0.00     0.149 C 
BRANCH  12  13
HETATM   13  C   UNL     1     -46.283 -52.787  14.932  1.00  0.00     0.222 C 
HETATM   14  O   UNL     1     -46.403 -51.962  14.028  1.00  0.00    -0.273 OA
HETATM   15  N   UNL     1     -46.604 -52.519  16.248  1.00  0.00    -0.356 N 
HETATM   16  H   UNL     1     -46.213 -53.132  16.960  1.00  0.00     0.162 HD
BRANCH  15  17
HETATM   17  C   UNL     1     -47.097 -51.211  16.641  1.00  0.00     0.084 C 
HETATM   18  C   UNL     1     -46.038 -50.336  17.319  1.00  0.00     0.025 C 
HETATM   19  C   UNL     1     -46.802 -49.429  18.290  1.00  0.00     0.002 C 
HETATM   20  C   UNL     1     -48.269 -49.833  18.184  1.00  0.00     0.002 C 
HETATM   21  C   UNL     1     -48.230 -51.262  17.660  1.00  0.00     0.025 C 
ENDBRANCH  15  17
ENDBRANCH  12  13
ENDBRANCH   7  12
TORSDOF 3
ENDMDL
MODEL 8
REMARK VINA RESULT:      -5.2      2.434      6.446
REMARK  3 active torsions:
REMARK  status: ('A' for Active; 'I' for Inactive)
REMARK    1  A    between atoms: C_7  and  C_8 
REMARK    2  A    between atoms: C_8  and  C_9 
REMARK       I    between atoms: C_9  and  N_11 
REMARK    3  A    between atoms: N_11  and  C_12 
ROOT
HETATM    1  C   UNL     1     -38.177 -52.454  17.633  1.00  0.00     0.089 C 
HETATM    2  C   UNL     1     -39.021 -52.959  16.499  1.00  0.00     0.080 A 
HETATM    3  N   UNL     1     -39.932 -53.850  16.697  1.00  0.00    -0.349 N 
ATOM      4  HN  UNL     1     -40.089 -54.240  17.626  1.00  0.00     0.167 HD
HETATM    5  C   UNL     1     -40.686 -54.260  15.624  1.00  0.00     0.018 A 
HETATM    6  C   UNL     1     -41.752 -55.263  15.986  1.00  0.00     0.069 C 
HETATM    7  C   UNL     1     -40.501 -53.815  14.363  1.00  0.00     0.041 A 
HETATM    8  C   UNL     1     -39.417 -52.825  14.157  1.00  0.00     0.255 A 
HETATM    9  O   UNL     1     -39.127 -52.404  13.040  1.00  0.00    -0.268 OA
HETATM   10  N   UNL     1     -38.762 -52.417  15.277  1.00  0.00    -0.313 N 
HETATM   11  H   UNL     1     -38.029 -51.734  15.151  1.00  0.00     0.170 HD
ENDROOT
BRANCH   7  12
HETATM   12  C   UNL     1     -41.295 -54.165  13.139  1.00  0.00     0.149 C 
BRANCH  12  13
HETATM   13  C   UNL     1     -42.332 -53.095  12.833  1.00  0.00     0.222 C 
HETATM   14  O   UNL     1     -42.198 -52.326  11.883  1.00  0.00    -0.273 OA
HETATM   15  N   UNL     1     -43.429 -53.079  13.671  1.00  0.00    -0.356 N 
HETATM   16  H   UNL     1     -43.332 -53.532  14.577  1.00  0.00     0.162 HD
BRANCH  15  17
HETATM   17  C   UNL     1     -44.498 -52.116  13.476  1.00  0.00     0.084 C 
HETATM   18  C   UNL     1     -45.211 -51.722  14.773  1.00  0.00     0.025 C 
HETATM   19  C   UNL     1     -46.651 -51.383  14.374  1.00  0.00     0.002 C 
HETATM   20  C   UNL     1     -46.747 -51.636  12.873  1.00  0.00     0.002 C 
HETATM   21  C   UNL     1     -45.626 -52.624  12.584  1.00  0.00     0.025 C 
ENDBRANCH  15  17
ENDBRANCH  12  13
ENDBRANCH   7  12
TORSDOF 3
ENDMDL
MODEL 9
REMARK VINA RESULT:      -5.1      6.050      7.089
REMARK  3 active torsions:
REMARK  status: ('A' for Active; 'I' for Inactive)
REMARK    1  A    between atoms: C_7  and  C_8 
REMARK    2  A    between atoms: C_8  and  C_9 
REMARK       I    between atoms: C_9  and  N_11 
REMARK    3  A    between atoms: N_11  and  C_12 
ROOT
HETATM    1  C   UNL     1     -44.941 -47.282   8.703  1.00  0.00     0.089 C 
HETATM    2  C   UNL     1     -44.059 -47.122   9.908  1.00  0.00     0.080 A 
HETATM    3  N   UNL     1     -43.457 -46.006  10.143  1.00  0.00    -0.349 N 
ATOM      4  HN  UNL     1     -43.556 -45.214   9.508  1.00  0.00     0.167 HD
HETATM    5  C   UNL     1     -42.677 -45.912  11.271  1.00  0.00     0.018 A 
HETATM    6  C   UNL     1     -42.068 -44.547  11.469  1.00  0.00     0.069 C 
HETATM    7  C   UNL     1     -42.471 -46.935  12.128  1.00  0.00     0.041 A 
HETATM    8  C   UNL     1     -43.140 -48.219  11.807  1.00  0.00     0.255 A 
HETATM    9  O   UNL     1     -42.968 -49.227  12.488  1.00  0.00    -0.268 OA
HETATM   10  N   UNL     1     -43.949 -48.213  10.714  1.00  0.00    -0.313 N 
HETATM   11  H   UNL     1     -44.419 -49.079  10.492  1.00  0.00     0.170 HD
ENDROOT
BRANCH   7  12
HETATM   12  C   UNL     1     -41.680 -46.921  13.402  1.00  0.00     0.149 C 
BRANCH  12  13
HETATM   13  C   UNL     1     -40.238 -47.338  13.157  1.00  0.00     0.222 C 
HETATM   14  O   UNL     1     -39.356 -46.505  12.955  1.00  0.00    -0.273 OA
HETATM   15  N   UNL     1     -39.998 -48.696  13.211  1.00  0.00    -0.356 N 
HETATM   16  H   UNL     1     -40.796 -49.318  13.091  1.00  0.00     0.162 HD
BRANCH  15  17
HETATM   17  C   UNL     1     -38.660 -49.223  13.009  1.00  0.00     0.084 C 
HETATM   18  C   UNL     1     -38.289 -49.405  11.535  1.00  0.00     0.025 C 
HETATM   19  C   UNL     1     -37.305 -50.579  11.492  1.00  0.00     0.002 C 
HETATM   20  C   UNL     1     -37.169 -51.074  12.928  1.00  0.00     0.002 C 
HETATM   21  C   UNL     1     -38.449 -50.609  13.609  1.00  0.00     0.025 C 
ENDBRANCH  15  17
ENDBRANCH  12  13
ENDBRANCH   7  12
TORSDOF 3
ENDMDL
