MODEL 1
REMARK VINA RESULT:      -5.5      0.000      0.000
REMARK  3 active torsions:
REMARK  status: ('A' for Active; 'I' for Inactive)
REMARK    1  A    between atoms: N_6  and  C_7 
REMARK    2  A    between atoms: C_7  and  C_8 
REMARK       I    between atoms: C_8  and  N_10 
REMARK    3  A    between atoms: N_10  and  C_11 
ROOT
HETATM    1  C   UNL     1     -40.948 -48.275  11.069  1.00  0.00     0.237 C 
HETATM    2  O   UNL     1     -41.662 -49.273  11.186  1.00  0.00    -0.272 OA
HETATM    3  N   UNL     1     -39.596 -48.281  11.357  1.00  0.00    -0.355 N 
HETATM    4  H   UNL     1     -39.173 -47.371  11.549  1.00  0.00     0.162 HD
ENDROOT
BRANCH   1   5
HETATM    5  C   UNL     1     -41.504 -46.991  10.508  1.00  0.00     0.250 C 
BRANCH   5   6
HETATM    6  N   UNL     1     -42.718 -47.208   9.750  1.00  0.00    -0.294 N 
HETATM    7  N   UNL     1     -42.654 -47.831   8.549  1.00  0.00    -0.308 N 
HETATM    8  C   UNL     1     -43.938 -47.937   8.182  1.00  0.00     0.127 A 
ATOM      9  HN  UNL     1     -41.825 -48.145   8.044  1.00  0.00     0.186 HD
HETATM   10  C   UNL     1     -44.799 -47.401   9.148  1.00  0.00     0.044 A 
HETATM   11 BR   UNL     1     -46.660 -47.361   9.049  1.00  0.00    -0.048 Br
HETATM   12  C   UNL     1     -43.995 -46.939  10.155  1.00  0.00     0.131 A 
ENDBRANCH   5   6
ENDBRANCH   1   5
BRANCH   3  13
HETATM   13  C   UNL     1     -38.994 -49.469  11.919  1.00  0.00     0.084 C 
HETATM   14  C   UNL     1     -38.657 -49.343  13.404  1.00  0.00     0.025 C 
HETATM   15  C   UNL     1     -37.597 -50.419  13.658  1.00  0.00     0.002 C 
HETATM   16  C   UNL     1     -37.205 -50.956  12.280  1.00  0.00     0.002 C 
HETATM   17  C   UNL     1     -37.659 -49.875  11.307  1.00  0.00     0.025 C 
ENDBRANCH   3  13
TORSDOF 3
ENDMDL
MODEL 2
REMARK VINA RESULT:      -5.2      2.868      3.045
REMARK  3 active torsions:
REMARK  status: ('A' for Active; 'I' for Inactive)
REMARK    1  A    between atoms: N_6  and  C_7 
REMARK    2  A    between atoms: C_7  and  C_8 
REMARK       I    between atoms: C_8  and  N_10 
REMARK    3  A    between atoms: N_10  and  C_11 
ROOT
HETATM    1  C   UNL     1     -41.318 -49.518  11.385  1.00  0.00     0.237 C 
HETATM    2  O   UNL     1     -40.319 -49.903  10.774  1.00  0.00    -0.272 OA
HETATM    3  N   UNL     1     -42.079 -50.352  12.183  1.00  0.00    -0.355 N 
HETATM    4  H   UNL     1     -43.035 -50.047  12.368  1.00  0.00     0.162 HD
ENDROOT
BRANCH   1   5
HETATM    5  C   UNL     1     -41.721 -48.066  11.363  1.00  0.00     0.250 C 
BRANCH   5   6
HETATM    6  N   UNL     1     -42.755 -47.800  10.387  1.00  0.00    -0.294 N 
HETATM    7  N   UNL     1     -42.484 -47.952   9.068  1.00  0.00    -0.308 N 
HETATM    8  C   UNL     1     -43.662 -47.715   8.477  1.00  0.00     0.127 A 
ATOM      9  HN  UNL     1     -41.594 -48.190   8.630  1.00  0.00     0.186 HD
HETATM   10  C   UNL     1     -44.664 -47.433   9.413  1.00  0.00     0.044 A 
HETATM   11 BR   UNL     1     -46.450 -47.067   9.023  1.00  0.00    -0.048 Br
HETATM   12  C   UNL     1     -44.063 -47.497  10.640  1.00  0.00     0.131 A 
ENDBRANCH   5   6
ENDBRANCH   1   5
BRANCH   3  13
HETATM   13  C   UNL     1     -41.767 -51.763  12.238  1.00  0.00     0.084 C 
HETATM   14  C   UNL     1     -42.973 -52.646  12.554  1.00  0.00     0.025 C 
HETATM   15  C   UNL     1     -42.374 -53.952  13.083  1.00  0.00     0.002 C 
HETATM   16  C   UNL     1     -40.879 -53.686  13.263  1.00  0.00     0.002 C 
HETATM   17  C   UNL     1     -40.766 -52.166  13.312  1.00  0.00     0.025 C 
ENDBRANCH   3  13
TORSDOF 3
ENDMDL
MODEL 3
REMARK VINA RESULT:      -5.0      5.338      6.724
REMARK  3 active torsions:
REMARK  status: ('A' for Active; 'I' for Inactive)
REMARK    1  A    between atoms: N_6  and  C_7 
REMARK    2  A    between atoms: C_7  and  C_8 
REMARK       I    between atoms: C_8  and  N_10 
REMARK    3  A    between atoms: N_10  and  C_11 
ROOT
HETATM    1  C   UNL     1     -41.338 -51.993  12.013  1.00  0.00     0.237 C 
HETATM    2  O   UNL     1     -40.495 -52.882  12.148  1.00  0.00    -0.272 OA
HETATM    3  N   UNL     1     -42.659 -52.145  12.393  1.00  0.00    -0.355 N 
HETATM    4  H   UNL     1     -43.329 -51.512  11.953  1.00  0.00     0.162 HD
ENDROOT
BRANCH   1   5
HETATM    5  C   UNL     1     -40.945 -50.632  11.497  1.00  0.00     0.250 C 
BRANCH   5   6
HETATM    6  N   UNL     1     -39.713 -50.159  12.089  1.00  0.00    -0.294 N 
HETATM    7  N   UNL     1     -38.527 -50.533  11.553  1.00  0.00    -0.308 N 
HETATM    8  C   UNL     1     -37.627 -49.857  12.279  1.00  0.00     0.127 A 
ATOM      9  HN  UNL     1     -38.359 -51.178  10.780  1.00  0.00     0.186 HD
HETATM   10  C   UNL     1     -38.240 -49.056  13.249  1.00  0.00     0.044 A 
HETATM   11 BR   UNL     1     -37.363 -47.938  14.456  1.00  0.00    -0.048 Br
HETATM   12  C   UNL     1     -39.586 -49.258  13.109  1.00  0.00     0.131 A 
ENDBRANCH   5   6
ENDBRANCH   1   5
BRANCH   3  13
HETATM   13  C   UNL     1     -43.116 -53.428  12.878  1.00  0.00     0.084 C 
HETATM   14  C   UNL     1     -44.592 -53.700  12.594  1.00  0.00     0.025 C 
HETATM   15  C   UNL     1     -44.992 -54.782  13.602  1.00  0.00     0.002 C 
HETATM   16  C   UNL     1     -43.809 -54.919  14.562  1.00  0.00     0.002 C 
HETATM   17  C   UNL     1     -43.024 -53.624  14.386  1.00  0.00     0.025 C 
ENDBRANCH   3  13
TORSDOF 3
ENDMDL
MODEL 4
REMARK VINA RESULT:      -5.0      5.185      6.843
REMARK  3 active torsions:
REMARK  status: ('A' for Active; 'I' for Inactive)
REMARK    1  A    between atoms: N_6  and  C_7 
REMARK    2  A    between atoms: C_7  and  C_8 
REMARK       I    between atoms: C_8  and  N_10 
REMARK    3  A    between atoms: N_10  and  C_11 
ROOT
HETATM    1  C   UNL     1     -42.343 -52.725  12.839  1.00  0.00     0.237 C 
HETATM    2  O   UNL     1     -42.199 -53.468  13.811  1.00  0.00    -0.272 OA
HETATM    3  N   UNL     1     -43.447 -51.909  12.674  1.00  0.00    -0.355 N 
HETATM    4  H   UNL     1     -43.636 -51.597  11.720  1.00  0.00     0.162 HD
ENDROOT
BRANCH   1   5
HETATM    5  C   UNL     1     -41.258 -52.596  11.800  1.00  0.00     0.250 C 
BRANCH   5   6
HETATM    6  N   UNL     1     -40.512 -51.365  11.940  1.00  0.00    -0.294 N 
HETATM    7  N   UNL     1     -40.673 -50.378  11.026  1.00  0.00    -0.308 N 
HETATM    8  C   UNL     1     -39.918 -49.381  11.505  1.00  0.00     0.127 A 
ATOM      9  HN  UNL     1     -41.237 -50.391  10.176  1.00  0.00     0.186 HD
HETATM   10  C   UNL     1     -39.300 -49.731  12.712  1.00  0.00     0.044 A 
HETATM   11 BR   UNL     1     -38.183 -48.636  13.725  1.00  0.00    -0.048 Br
HETATM   12  C   UNL     1     -39.699 -51.012  12.980  1.00  0.00     0.131 A 
ENDBRANCH   5   6
ENDBRANCH   1   5
BRANCH   3  13
HETATM   13  C   UNL     1     -44.539 -51.990  13.618  1.00  0.00     0.084 C 
HETATM   14  C   UNL     1     -45.916 -51.804  12.982  1.00  0.00     0.025 C 
HETATM   15  C   UNL     1     -46.830 -51.395  14.140  1.00  0.00     0.002 C 
HETATM   16  C   UNL     1     -45.908 -51.143  15.334  1.00  0.00     0.002 C 
HETATM   17  C   UNL     1     -44.531 -50.934  14.714  1.00  0.00     0.025 C 
ENDBRANCH   3  13
TORSDOF 3
ENDMDL
MODEL 5
REMARK VINA RESULT:      -4.9      4.732      5.368
REMARK  3 active torsions:
REMARK  status: ('A' for Active; 'I' for Inactive)
REMARK    1  A    between atoms: N_6  and  C_7 
REMARK    2  A    between atoms: C_7  and  C_8 
REMARK       I    between atoms: C_8  and  N_10 
REMARK    3  A    between atoms: N_10  and  C_11 
ROOT
HETATM    1  C   UNL     1     -41.706 -51.134  12.562  1.00  0.00     0.237 C 
HETATM    2  O   UNL     1     -42.330 -50.380  13.312  1.00  0.00    -0.272 OA
HETATM    3  N   UNL     1     -42.017 -52.473  12.415  1.00  0.00    -0.355 N 
HETATM    4  H   UNL     1     -41.272 -53.070  12.052  1.00  0.00     0.162 HD
ENDROOT
BRANCH   1   5
HETATM    5  C   UNL     1     -40.605 -50.604  11.680  1.00  0.00     0.250 C 
BRANCH   5   6
HETATM    6  N   UNL     1     -40.844 -49.237  11.271  1.00  0.00    -0.294 N 
HETATM    7  N   UNL     1     -42.009 -48.916  10.659  1.00  0.00    -0.308 N 
HETATM    8  C   UNL     1     -41.928 -47.588  10.506  1.00  0.00     0.127 A 
ATOM      9  HN  UNL     1     -42.769 -49.538  10.382  1.00  0.00     0.186 HD
HETATM   10  C   UNL     1     -40.733 -47.078  11.028  1.00  0.00     0.044 A 
HETATM   11 BR   UNL     1     -40.226 -45.285  11.043  1.00  0.00    -0.048 Br
HETATM   12  C   UNL     1     -40.048 -48.155  11.522  1.00  0.00     0.131 A 
ENDBRANCH   5   6
ENDBRANCH   1   5
BRANCH   3  13
HETATM   13  C   UNL     1     -43.048 -53.060  13.242  1.00  0.00     0.084 C 
HETATM   14  C   UNL     1     -42.527 -54.119  14.212  1.00  0.00     0.025 C 
HETATM   15  C   UNL     1     -43.758 -54.956  14.575  1.00  0.00     0.002 C 
HETATM   16  C   UNL     1     -44.872 -54.493  13.635  1.00  0.00     0.002 C 
HETATM   17  C   UNL     1     -44.141 -53.804  12.488  1.00  0.00     0.025 C 
ENDBRANCH   3  13
TORSDOF 3
ENDMDL
MODEL 6
REMARK VINA RESULT:      -4.7      4.369      6.211
REMARK  3 active torsions:
REMARK  status: ('A' for Active; 'I' for Inactive)
REMARK    1  A    between atoms: N_6  and  C_7 
REMARK    2  A    between atoms: C_7  and  C_8 
REMARK       I    between atoms: C_8  and  N_10 
REMARK    3  A    between atoms: N_10  and  C_11 
ROOT
HETATM    1  C   UNL     1     -41.482 -49.932  11.979  1.00  0.00     0.237 C 
HETATM    2  O   UNL     1     -41.675 -49.380  13.065  1.00  0.00    -0.272 OA
HETATM    3  N   UNL     1     -41.662 -49.290  10.768  1.00  0.00    -0.355 N 
HETATM    4  H   UNL     1     -41.803 -49.893   9.956  1.00  0.00     0.162 HD
ENDROOT
BRANCH   1   5
HETATM    5  C   UNL     1     -40.942 -51.337  11.914  1.00  0.00     0.250 C 
BRANCH   5   6
HETATM    6  N   UNL     1     -41.851 -52.299  12.499  1.00  0.00    -0.294 N 
HETATM    7  N   UNL     1     -42.964 -52.666  11.819  1.00  0.00    -0.308 N 
HETATM    8  C   UNL     1     -43.510 -53.610  12.597  1.00  0.00     0.127 A 
ATOM      9  HN  UNL     1     -43.304 -52.309  10.926  1.00  0.00     0.186 HD
HETATM   10  C   UNL     1     -42.743 -53.843  13.745  1.00  0.00     0.044 A 
HETATM   11 BR   UNL     1     -43.127 -55.084  15.081  1.00  0.00    -0.048 Br
HETATM   12  C   UNL     1     -41.674 -52.992  13.663  1.00  0.00     0.131 A 
ENDBRANCH   5   6
ENDBRANCH   1   5
BRANCH   3  13
HETATM   13  C   UNL     1     -42.197 -47.946  10.748  1.00  0.00     0.084 C 
HETATM   14  C   UNL     1     -43.040 -47.640   9.510  1.00  0.00     0.025 C 
HETATM   15  C   UNL     1     -43.048 -46.112   9.411  1.00  0.00     0.002 C 
HETATM   16  C   UNL     1     -42.036 -45.618  10.445  1.00  0.00     0.002 C 
HETATM   17  C   UNL     1     -41.159 -46.832  10.730  1.00  0.00     0.025 C 
ENDBRANCH   3  13
TORSDOF 3
ENDMDL
MODEL 7
REMARK VINA RESULT:      -4.7      3.545      4.252
REMARK  3 active torsions:
REMARK  status: ('A' for Active; 'I' for Inactive)
REMARK    1  A    between atoms: N_6  and  C_7 
REMARK    2  A    between atoms: C_7  and  C_8 
REMARK       I    between atoms: C_8  and  N_10 
REMARK    3  A    between atoms: N_10  and  C_11 
ROOT
HETATM    1  C   UNL     1     -41.410 -48.982  11.466  1.00  0.00     0.237 C 
HETATM    2  O   UNL     1     -40.397 -48.776  12.139  1.00  0.00    -0.272 OA
HETATM    3  N   UNL     1     -42.204 -50.102  11.627  1.00  0.00    -0.355 N 
HETATM    4  H   UNL     1     -42.800 -50.348  10.836  1.00  0.00     0.162 HD
ENDROOT
BRANCH   1   5
HETATM    5  C   UNL     1     -41.895 -47.958  10.472  1.00  0.00     0.250 C 
BRANCH   5   6
HETATM    6  N   UNL     1     -41.286 -46.662  10.682  1.00  0.00    -0.294 N 
HETATM    7  N   UNL     1     -39.971 -46.489  10.406  1.00  0.00    -0.308 N 
HETATM    8  C   UNL     1     -39.774 -45.183  10.626  1.00  0.00     0.127 A 
ATOM      9  HN  UNL     1     -39.292 -47.188  10.103  1.00  0.00     0.186 HD
HETATM   10  C   UNL     1     -40.953 -44.540  11.020  1.00  0.00     0.044 A 
HETATM   11 BR   UNL     1     -41.130 -42.724  11.405  1.00  0.00    -0.048 Br
HETATM   12  C   UNL     1     -41.920 -45.508  11.046  1.00  0.00     0.131 A 
ENDBRANCH   5   6
ENDBRANCH   1   5
BRANCH   3  13
HETATM   13  C   UNL     1     -41.793 -51.139  12.547  1.00  0.00     0.084 C 
HETATM   14  C   UNL     1     -41.093 -52.317  11.871  1.00  0.00     0.025 C 
HETATM   15  C   UNL     1     -41.227 -53.475  12.864  1.00  0.00     0.002 C 
HETATM   16  C   UNL     1     -42.184 -52.985  13.953  1.00  0.00     0.002 C 
HETATM   17  C   UNL     1     -42.922 -51.815  13.313  1.00  0.00     0.025 C 
ENDBRANCH   3  13
TORSDOF 3
ENDMDL
MODEL 8
REMARK VINA RESULT:      -4.6      4.479      6.848
REMARK  3 active torsions:
REMARK  status: ('A' for Active; 'I' for Inactive)
REMARK    1  A    between atoms: N_6  and  C_7 
REMARK    2  A    between atoms: C_7  and  C_8 
REMARK       I    between atoms: C_8  and  N_10 
REMARK    3  A    between atoms: N_10  and  C_11 
ROOT
HETATM    1  C   UNL     1     -41.719 -46.176  10.427  1.00  0.00     0.237 C 
HETATM    2  O   UNL     1     -42.084 -46.665  11.497  1.00  0.00    -0.272 OA
HETATM    3  N   UNL     1     -42.499 -46.197   9.286  1.00  0.00    -0.355 N 
HETATM    4  H   UNL     1     -42.005 -46.079   8.400  1.00  0.00     0.162 HD
ENDROOT
BRANCH   1   5
HETATM    5  C   UNL     1     -40.410 -45.434  10.325  1.00  0.00     0.250 C 
BRANCH   5   6
HETATM    6  N   UNL     1     -40.231 -44.494  11.410  1.00  0.00    -0.294 N 
HETATM    7  N   UNL     1     -39.754 -44.929  12.600  1.00  0.00    -0.308 N 
HETATM    8  C   UNL     1     -39.635 -43.806  13.321  1.00  0.00     0.127 A 
ATOM      9  HN  UNL     1     -39.536 -45.885  12.881  1.00  0.00     0.186 HD
HETATM   10  C   UNL     1     -40.018 -42.677  12.587  1.00  0.00     0.044 A 
HETATM   11 BR   UNL     1     -39.989 -40.916  13.199  1.00  0.00    -0.048 Br
HETATM   12  C   UNL     1     -40.395 -43.138  11.355  1.00  0.00     0.131 A 
ENDBRANCH   5   6
ENDBRANCH   1   5
BRANCH   3  13
HETATM   13  C   UNL     1     -43.759 -46.908   9.299  1.00  0.00     0.084 C 
HETATM   14  C   UNL     1     -43.914 -47.903   8.150  1.00  0.00     0.025 C 
HETATM   15  C   UNL     1     -45.424 -48.127   8.027  1.00  0.00     0.002 C 
HETATM   16  C   UNL     1     -46.078 -47.092   8.945  1.00  0.00     0.002 C 
HETATM   17  C   UNL     1     -44.999 -46.036   9.157  1.00  0.00     0.025 C 
ENDBRANCH   3  13
TORSDOF 3
ENDMDL
MODEL 9
REMARK VINA RESULT:      -4.5      3.583      5.850
REMARK  3 active torsions:
REMARK  status: ('A' for Active; 'I' for Inactive)
REMARK    1  A    between atoms: N_6  and  C_7 
REMARK    2  A    between atoms: C_7  and  C_8 
REMARK       I    between atoms: C_8  and  N_10 
REMARK    3  A    between atoms: N_10  and  C_11 
ROOT
HETATM    1  C   UNL     1     -39.247 -48.475  12.030  1.00  0.00     0.237 C 
HETATM    2  O   UNL     1     -38.954 -48.017  13.136  1.00  0.00    -0.272 OA
HETATM    3  N   UNL     1     -39.912 -47.740  11.065  1.00  0.00    -0.355 N 
HETATM    4  H   UNL     1     -40.392 -48.278  10.343  1.00  0.00     0.162 HD
ENDROOT
BRANCH   1   5
HETATM    5  C   UNL     1     -38.809 -49.860  11.629  1.00  0.00     0.250 C 
BRANCH   5   6
HETATM    6  N   UNL     1     -39.750 -50.874  12.052  1.00  0.00    -0.294 N 
HETATM    7  N   UNL     1     -40.810 -51.173  11.265  1.00  0.00    -0.308 N 
HETATM    8  C   UNL     1     -41.402 -52.189  11.907  1.00  0.00     0.127 A 
ATOM      9  HN  UNL     1     -41.091 -50.731  10.390  1.00  0.00     0.186 HD
HETATM   10  C   UNL     1     -40.714 -52.533  13.077  1.00  0.00     0.044 A 
HETATM   11 BR   UNL     1     -41.180 -53.899  14.256  1.00  0.00    -0.048 Br
HETATM   12  C   UNL     1     -39.648 -51.678  13.153  1.00  0.00     0.131 A 
ENDBRANCH   5   6
ENDBRANCH   1   5
BRANCH   3  13
HETATM   13  C   UNL     1     -40.383 -46.411  11.383  1.00  0.00     0.084 C 
HETATM   14  C   UNL     1     -41.882 -46.220  11.157  1.00  0.00     0.025 C 
HETATM   15  C   UNL     1     -42.069 -44.706  11.024  1.00  0.00     0.002 C 
HETATM   16  C   UNL     1     -40.660 -44.114  10.950  1.00  0.00     0.002 C 
HETATM   17  C   UNL     1     -39.774 -45.289  10.552  1.00  0.00     0.025 C 
ENDBRANCH   3  13
TORSDOF 3
ENDMDL
