MODEL 1
REMARK VINA RESULT:      -5.2      0.000      0.000
REMARK  3 active torsions:
REMARK  status: ('A' for Active; 'I' for Inactive)
REMARK    1  A    between atoms: C_10  and  C_11 
REMARK    2  A    between atoms: C_11  and  C_12 
REMARK    3  A    between atoms: C_12  and  O_14 
ROOT
HETATM    1  C   UNL     1     -42.410 -55.390  16.037  1.00  0.00     0.069 C 
HETATM    2  C   UNL     1     -42.653 -54.682  14.723  1.00  0.00     0.018 A 
HETATM    3  N   UNL     1     -43.851 -54.782  14.245  1.00  0.00    -0.312 N 
ATOM      4  HN  UNL     1     -44.563 -55.313  14.745  1.00  0.00     0.170 HD
HETATM    5  C   UNL     1     -44.150 -54.167  13.065  1.00  0.00     0.324 A 
HETATM    6  O   UNL     1     -45.269 -54.192  12.561  1.00  0.00    -0.247 OA
HETATM    7  N   UNL     1     -43.147 -53.486  12.434  1.00  0.00    -0.312 N 
HETATM    8  C   UNL     1     -41.872 -53.339  12.913  1.00  0.00     0.018 A 
HETATM    9  C   UNL     1     -40.957 -52.486  12.078  1.00  0.00     0.069 C 
HETATM   10  C   UNL     1     -41.528 -53.921  14.081  1.00  0.00    -0.004 A 
HETATM   11  H   UNL     1     -43.433 -53.051  11.565  1.00  0.00     0.170 HD
ENDROOT
BRANCH  10  12
HETATM   12  C   UNL     1     -40.204 -53.764  14.782  1.00  0.00     0.152 C 
BRANCH  12  13
HETATM   13  C   UNL     1     -39.195 -54.879  14.550  1.00  0.00     0.143 C 
HETATM   14  O   UNL     1     -38.881 -55.744  15.351  1.00  0.00    -0.650 OA
BRANCH  13  15
HETATM   15  O   UNL     1     -38.641 -54.813  13.313  1.00  0.00    -0.776 OA
HETATM   16  H   UNL     1     -38.932 -54.059  12.766  1.00  0.00     0.167 HD
ENDBRANCH  13  15
ENDBRANCH  12  13
ENDBRANCH  10  12
TORSDOF 3
ENDMDL
MODEL 2
REMARK VINA RESULT:      -5.1      0.226      2.406
REMARK  3 active torsions:
REMARK  status: ('A' for Active; 'I' for Inactive)
REMARK    1  A    between atoms: C_10  and  C_11 
REMARK    2  A    between atoms: C_11  and  C_12 
REMARK    3  A    between atoms: C_12  and  O_14 
ROOT
HETATM    1  C   UNL     1     -40.795 -52.294  12.295  1.00  0.00     0.069 C 
HETATM    2  C   UNL     1     -41.823 -53.159  12.990  1.00  0.00     0.018 A 
HETATM    3  N   UNL     1     -42.964 -53.266  12.390  1.00  0.00    -0.312 N 
ATOM      4  HN  UNL     1     -43.130 -52.783  11.507  1.00  0.00     0.170 HD
HETATM    5  C   UNL     1     -43.942 -54.032  12.952  1.00  0.00     0.324 A 
HETATM    6  O   UNL     1     -45.040 -54.206  12.431  1.00  0.00    -0.247 OA
HETATM    7  N   UNL     1     -43.664 -54.638  14.146  1.00  0.00    -0.312 N 
HETATM    8  C   UNL     1     -42.465 -54.568  14.804  1.00  0.00     0.018 A 
HETATM    9  C   UNL     1     -42.369 -55.375  16.070  1.00  0.00     0.069 C 
HETATM   10  C   UNL     1     -41.462 -53.828  14.286  1.00  0.00    -0.004 A 
HETATM   11  H   UNL     1     -44.429 -55.194  14.509  1.00  0.00     0.170 HD
ENDROOT
BRANCH  10  12
HETATM   12  C   UNL     1     -40.064 -53.737  14.837  1.00  0.00     0.152 C 
BRANCH  12  13
HETATM   13  C   UNL     1     -39.155 -54.921  14.541  1.00  0.00     0.143 C 
HETATM   14  O   UNL     1     -38.752 -55.739  15.351  1.00  0.00    -0.650 OA
BRANCH  13  15
HETATM   15  O   UNL     1     -38.810 -54.981  13.230  1.00  0.00    -0.776 OA
HETATM   16  H   UNL     1     -38.216 -54.269  12.923  1.00  0.00     0.167 HD
ENDBRANCH  13  15
ENDBRANCH  12  13
ENDBRANCH  10  12
TORSDOF 3
ENDMDL
MODEL 3
REMARK VINA RESULT:      -4.7      3.038      4.490
REMARK  3 active torsions:
REMARK  status: ('A' for Active; 'I' for Inactive)
REMARK    1  A    between atoms: C_10  and  C_11 
REMARK    2  A    between atoms: C_11  and  C_12 
REMARK    3  A    between atoms: C_12  and  O_14 
ROOT
HETATM    1  C   UNL     1     -40.860 -49.270  11.282  1.00  0.00     0.069 C 
HETATM    2  C   UNL     1     -40.980 -50.591  12.010  1.00  0.00     0.018 A 
HETATM    3  N   UNL     1     -42.111 -51.204  11.875  1.00  0.00    -0.312 N 
ATOM      4  HN  UNL     1     -42.855 -50.796  11.311  1.00  0.00     0.170 HD
HETATM    5  C   UNL     1     -42.295 -52.403  12.498  1.00  0.00     0.324 A 
HETATM    6  O   UNL     1     -43.328 -53.059  12.397  1.00  0.00    -0.247 OA
HETATM    7  N   UNL     1     -41.266 -52.888  13.256  1.00  0.00    -0.312 N 
HETATM    8  C   UNL     1     -40.047 -52.282  13.409  1.00  0.00     0.018 A 
HETATM    9  C   UNL     1     -39.043 -53.038  14.236  1.00  0.00     0.069 C 
HETATM   10  C   UNL     1     -39.812 -51.097  12.807  1.00  0.00    -0.004 A 
HETATM   11  H   UNL     1     -41.464 -53.782  13.689  1.00  0.00     0.170 HD
ENDROOT
BRANCH  10  12
HETATM   12  C   UNL     1     -38.496 -50.364  12.798  1.00  0.00     0.152 C 
BRANCH  12  13
HETATM   13  C   UNL     1     -37.482 -50.832  11.765  1.00  0.00     0.143 C 
HETATM   14  O   UNL     1     -36.703 -51.762  11.891  1.00  0.00    -0.650 OA
BRANCH  13  15
HETATM   15  O   UNL     1     -37.519 -50.077  10.638  1.00  0.00    -0.776 OA
HETATM   16  H   UNL     1     -37.983 -49.223  10.725  1.00  0.00     0.167 HD
ENDBRANCH  13  15
ENDBRANCH  12  13
ENDBRANCH  10  12
TORSDOF 3
ENDMDL
MODEL 4
REMARK VINA RESULT:      -4.6      3.749      4.832
REMARK  3 active torsions:
REMARK  status: ('A' for Active; 'I' for Inactive)
REMARK    1  A    between atoms: C_10  and  C_11 
REMARK    2  A    between atoms: C_11  and  C_12 
REMARK    3  A    between atoms: C_12  and  O_14 
ROOT
HETATM    1  C   UNL     1     -43.125 -51.039  13.016  1.00  0.00     0.069 C 
HETATM    2  C   UNL     1     -42.039 -50.301  12.265  1.00  0.00     0.018 A 
HETATM    3  N   UNL     1     -42.432 -49.290  11.560  1.00  0.00    -0.312 N 
ATOM      4  HN  UNL     1     -43.419 -49.034  11.531  1.00  0.00     0.170 HD
HETATM    5  C   UNL     1     -41.512 -48.571  10.857  1.00  0.00     0.324 A 
HETATM    6  O   UNL     1     -41.801 -47.584  10.187  1.00  0.00    -0.247 OA
HETATM    7  N   UNL     1     -40.208 -48.977  10.922  1.00  0.00    -0.312 N 
HETATM    8  C   UNL     1     -39.746 -50.026  11.671  1.00  0.00     0.018 A 
HETATM    9  C   UNL     1     -38.257 -50.242  11.641  1.00  0.00     0.069 C 
HETATM   10  C   UNL     1     -40.615 -50.765  12.391  1.00  0.00    -0.004 A 
HETATM   11  H   UNL     1     -39.574 -48.401  10.381  1.00  0.00     0.170 HD
ENDROOT
BRANCH  10  12
HETATM   12  C   UNL     1     -40.248 -51.878  13.336  1.00  0.00     0.152 C 
BRANCH  12  13
HETATM   13  C   UNL     1     -40.575 -53.286  12.862  1.00  0.00     0.143 C 
HETATM   14  O   UNL     1     -40.862 -54.236  13.571  1.00  0.00    -0.650 OA
BRANCH  13  15
HETATM   15  O   UNL     1     -40.506 -53.397  11.511  1.00  0.00    -0.776 OA
HETATM   16  H   UNL     1     -40.368 -54.303  11.175  1.00  0.00     0.167 HD
ENDBRANCH  13  15
ENDBRANCH  12  13
ENDBRANCH  10  12
TORSDOF 3
ENDMDL
MODEL 5
REMARK VINA RESULT:      -4.6      3.305      4.907
REMARK  3 active torsions:
REMARK  status: ('A' for Active; 'I' for Inactive)
REMARK    1  A    between atoms: C_10  and  C_11 
REMARK    2  A    between atoms: C_11  and  C_12 
REMARK    3  A    between atoms: C_12  and  O_14 
ROOT
HETATM    1  C   UNL     1     -42.053 -54.133  13.318  1.00  0.00     0.069 C 
HETATM    2  C   UNL     1     -42.883 -52.876  13.176  1.00  0.00     0.018 A 
HETATM    3  N   UNL     1     -42.217 -51.778  13.023  1.00  0.00    -0.312 N 
ATOM      4  HN  UNL     1     -41.197 -51.791  13.007  1.00  0.00     0.170 HD
HETATM    5  C   UNL     1     -42.894 -50.603  12.884  1.00  0.00     0.324 A 
HETATM    6  O   UNL     1     -42.336 -49.524  12.708  1.00  0.00    -0.247 OA
HETATM    7  N   UNL     1     -44.260 -50.649  12.933  1.00  0.00    -0.312 N 
HETATM    8  C   UNL     1     -45.004 -51.790  13.073  1.00  0.00     0.018 A 
HETATM    9  C   UNL     1     -46.496 -51.603  13.030  1.00  0.00     0.069 C 
HETATM   10  C   UNL     1     -44.382 -52.980  13.207  1.00  0.00    -0.004 A 
HETATM   11  H   UNL     1     -44.703 -49.745  12.822  1.00  0.00     0.170 HD
ENDROOT
BRANCH  10  12
HETATM   12  C   UNL     1     -45.060 -54.323  13.266  1.00  0.00     0.152 C 
BRANCH  12  13
HETATM   13  C   UNL     1     -45.621 -54.724  14.622  1.00  0.00     0.143 C 
HETATM   14  O   UNL     1     -45.068 -54.585  15.700  1.00  0.00    -0.650 OA
BRANCH  13  15
HETATM   15  O   UNL     1     -46.851 -55.288  14.517  1.00  0.00    -0.776 OA
HETATM   16  H   UNL     1     -47.592 -54.657  14.437  1.00  0.00     0.167 HD
ENDBRANCH  13  15
ENDBRANCH  12  13
ENDBRANCH  10  12
TORSDOF 3
ENDMDL
MODEL 6
REMARK VINA RESULT:      -4.6      3.011      4.611
REMARK  3 active torsions:
REMARK  status: ('A' for Active; 'I' for Inactive)
REMARK    1  A    between atoms: C_10  and  C_11 
REMARK    2  A    between atoms: C_11  and  C_12 
REMARK    3  A    between atoms: C_12  and  O_14 
ROOT
HETATM    1  C   UNL     1     -44.322 -50.780  13.317  1.00  0.00     0.069 C 
HETATM    2  C   UNL     1     -42.967 -51.275  12.861  1.00  0.00     0.018 A 
HETATM    3  N   UNL     1     -42.287 -50.453  12.130  1.00  0.00    -0.312 N 
ATOM      4  HN  UNL     1     -42.669 -49.538  11.891  1.00  0.00     0.170 HD
HETATM    5  C   UNL     1     -41.054 -50.825  11.683  1.00  0.00     0.324 A 
HETATM    6  O   UNL     1     -40.336 -50.092  11.008  1.00  0.00    -0.247 OA
HETATM    7  N   UNL     1     -40.606 -52.071  12.023  1.00  0.00    -0.312 N 
HETATM    8  C   UNL     1     -41.284 -52.963  12.810  1.00  0.00     0.018 A 
HETATM    9  C   UNL     1     -40.561 -54.249  13.107  1.00  0.00     0.069 C 
HETATM   10  C   UNL     1     -42.505 -52.641  13.284  1.00  0.00    -0.004 A 
HETATM   11  H   UNL     1     -39.684 -52.286  11.662  1.00  0.00     0.170 HD
ENDROOT
BRANCH  10  12
HETATM   12  C   UNL     1     -43.323 -53.470  14.239  1.00  0.00     0.152 C 
BRANCH  12  13
HETATM   13  C   UNL     1     -44.313 -54.432  13.602  1.00  0.00     0.143 C 
HETATM   14  O   UNL     1     -44.762 -54.360  12.470  1.00  0.00    -0.650 OA
BRANCH  13  15
HETATM   15  O   UNL     1     -44.678 -55.424  14.454  1.00  0.00    -0.776 OA
HETATM   16  H   UNL     1     -44.978 -55.127  15.334  1.00  0.00     0.167 HD
ENDBRANCH  13  15
ENDBRANCH  12  13
ENDBRANCH  10  12
TORSDOF 3
ENDMDL
MODEL 7
REMARK VINA RESULT:      -4.6      2.504      3.558
REMARK  3 active torsions:
REMARK  status: ('A' for Active; 'I' for Inactive)
REMARK    1  A    between atoms: C_10  and  C_11 
REMARK    2  A    between atoms: C_11  and  C_12 
REMARK    3  A    between atoms: C_12  and  O_14 
ROOT
HETATM    1  C   UNL     1     -43.352 -49.870  13.075  1.00  0.00     0.069 C 
HETATM    2  C   UNL     1     -43.159 -51.369  13.005  1.00  0.00     0.018 A 
HETATM    3  N   UNL     1     -44.224 -52.061  12.762  1.00  0.00    -0.312 N 
ATOM      4  HN  UNL     1     -45.123 -51.597  12.632  1.00  0.00     0.170 HD
HETATM    5  C   UNL     1     -44.131 -53.419  12.680  1.00  0.00     0.324 A 
HETATM    6  O   UNL     1     -45.090 -54.143  12.426  1.00  0.00    -0.247 OA
HETATM    7  N   UNL     1     -42.902 -53.983  12.882  1.00  0.00    -0.312 N 
HETATM    8  C   UNL     1     -41.747 -53.288  13.122  1.00  0.00     0.018 A 
HETATM    9  C   UNL     1     -40.500 -54.120  13.243  1.00  0.00     0.069 C 
HETATM   10  C   UNL     1     -41.784 -51.941  13.205  1.00  0.00    -0.004 A 
HETATM   11  H   UNL     1     -42.899 -54.993  12.806  1.00  0.00     0.170 HD
ENDROOT
BRANCH  10  12
HETATM   12  C   UNL     1     -40.589 -51.039  13.361  1.00  0.00     0.152 C 
BRANCH  12  13
HETATM   13  C   UNL     1     -39.693 -50.908  12.139  1.00  0.00     0.143 C 
HETATM   14  O   UNL     1     -38.482 -51.057  12.114  1.00  0.00    -0.650 OA
BRANCH  13  15
HETATM   15  O   UNL     1     -40.396 -50.583  11.024  1.00  0.00    -0.776 OA
HETATM   16  H   UNL     1     -39.861 -50.445  10.220  1.00  0.00     0.167 HD
ENDBRANCH  13  15
ENDBRANCH  12  13
ENDBRANCH  10  12
TORSDOF 3
ENDMDL
MODEL 8
REMARK VINA RESULT:      -4.3      2.503      3.592
REMARK  3 active torsions:
REMARK  status: ('A' for Active; 'I' for Inactive)
REMARK    1  A    between atoms: C_10  and  C_11 
REMARK    2  A    between atoms: C_11  and  C_12 
REMARK    3  A    between atoms: C_12  and  O_14 
ROOT
HETATM    1  C   UNL     1     -39.292 -54.063  14.197  1.00  0.00     0.069 C 
HETATM    2  C   UNL     1     -40.790 -54.250  14.289  1.00  0.00     0.018 A 
HETATM    3  N   UNL     1     -41.217 -54.841  15.358  1.00  0.00    -0.312 N 
ATOM      4  HN  UNL     1     -40.559 -55.152  16.073  1.00  0.00     0.170 HD
HETATM    5  C   UNL     1     -42.556 -55.044  15.516  1.00  0.00     0.324 A 
HETATM    6  O   UNL     1     -43.041 -55.572  16.513  1.00  0.00    -0.247 OA
HETATM    7  N   UNL     1     -43.383 -54.622  14.513  1.00  0.00    -0.312 N 
HETATM    8  C   UNL     1     -42.976 -53.975  13.377  1.00  0.00     0.018 A 
HETATM    9  C   UNL     1     -44.075 -53.543  12.445  1.00  0.00     0.069 C 
HETATM   10  C   UNL     1     -41.662 -53.744  13.175  1.00  0.00    -0.004 A 
HETATM   11  H   UNL     1     -44.365 -54.799  14.692  1.00  0.00     0.170 HD
ENDROOT
BRANCH  10  12
HETATM   12  C   UNL     1     -41.074 -52.959  12.032  1.00  0.00     0.152 C 
BRANCH  12  13
HETATM   13  C   UNL     1     -41.055 -51.448  12.205  1.00  0.00     0.143 C 
HETATM   14  O   UNL     1     -41.294 -50.838  13.233  1.00  0.00    -0.650 OA
BRANCH  13  15
HETATM   15  O   UNL     1     -40.742 -50.808  11.049  1.00  0.00    -0.776 OA
HETATM   16  H   UNL     1     -41.474 -50.723  10.410  1.00  0.00     0.167 HD
ENDBRANCH  13  15
ENDBRANCH  12  13
ENDBRANCH  10  12
TORSDOF 3
ENDMDL
MODEL 9
REMARK VINA RESULT:      -4.2      2.474      2.979
REMARK  3 active torsions:
REMARK  status: ('A' for Active; 'I' for Inactive)
REMARK    1  A    between atoms: C_10  and  C_11 
REMARK    2  A    between atoms: C_11  and  C_12 
REMARK    3  A    between atoms: C_12  and  O_14 
ROOT
HETATM    1  C   UNL     1     -43.250 -54.491  14.114  1.00  0.00     0.069 C 
HETATM    2  C   UNL     1     -43.696 -53.117  13.667  1.00  0.00     0.018 A 
HETATM    3  N   UNL     1     -44.971 -52.964  13.512  1.00  0.00    -0.312 N 
ATOM      4  HN  UNL     1     -45.609 -53.740  13.686  1.00  0.00     0.170 HD
HETATM    5  C   UNL     1     -45.452 -51.752  13.114  1.00  0.00     0.324 A 
HETATM    6  O   UNL     1     -46.649 -51.519  12.972  1.00  0.00    -0.247 OA
HETATM    7  N   UNL     1     -44.545 -50.757  12.879  1.00  0.00    -0.312 N 
HETATM    8  C   UNL     1     -43.191 -50.869  13.049  1.00  0.00     0.018 A 
HETATM    9  C   UNL     1     -42.396 -49.617  12.795  1.00  0.00     0.069 C 
HETATM   10  C   UNL     1     -42.665 -52.046  13.449  1.00  0.00    -0.004 A 
HETATM   11  H   UNL     1     -44.965 -49.881  12.588  1.00  0.00     0.170 HD
ENDROOT
BRANCH  10  12
HETATM   12  C   UNL     1     -41.216 -52.293  13.776  1.00  0.00     0.152 C 
BRANCH  12  13
HETATM   13  C   UNL     1     -40.267 -52.346  12.588  1.00  0.00     0.143 C 
HETATM   14  O   UNL     1     -39.289 -51.639  12.416  1.00  0.00    -0.650 OA
BRANCH  13  15
HETATM   15  O   UNL     1     -40.632 -53.294  11.687  1.00  0.00    -0.776 OA
HETATM   16  H   UNL     1     -41.355 -53.883  11.975  1.00  0.00     0.167 HD
ENDBRANCH  13  15
ENDBRANCH  12  13
ENDBRANCH  10  12
TORSDOF 3
ENDMDL
