MODEL 1
REMARK VINA RESULT:      -6.4      0.000      0.000
REMARK  4 active torsions:
REMARK  status: ('A' for Active; 'I' for Inactive)
REMARK       I    between atoms: N_2  and  C_3 
REMARK    1  A    between atoms: C_3  and  C_5 
REMARK    2  A    between atoms: C_8  and  N_11 
REMARK       I    between atoms: N_11  and  C_12 
REMARK       I    between atoms: C_12  and  N_14 
REMARK    3  A    between atoms: N_14  and  C_15 
REMARK    4  A    between atoms: C_18  and  O_19 
ROOT
HETATM    1  N   UNL     1     -42.709 -50.865  12.171  1.00  0.00    -0.338 N 
HETATM    2  C   UNL     1     -42.141 -49.613  12.219  1.00  0.00     0.321 C 
HETATM    3  O   UNL     1     -41.630 -49.151  13.230  1.00  0.00    -0.247 OA
HETATM    4  N   UNL     1     -42.301 -48.941  11.027  1.00  0.00    -0.308 N 
HETATM    5  H   UNL     1     -42.602 -51.351  11.291  1.00  0.00     0.164 HD
HETATM    6  H   UNL     1     -43.157 -49.168  10.542  1.00  0.00     0.170 HD
ENDROOT
BRANCH   1   7
HETATM    7  C   UNL     1     -42.836 -51.659  13.393  1.00  0.00     0.086 C 
HETATM    8  C   UNL     1     -42.789 -53.170  13.118  1.00  0.00     0.026 C 
HETATM    9  C   UNL     1     -44.081 -53.711  12.508  1.00  0.00     0.016 C 
HETATM   10  C   UNL     1     -45.326 -53.339  13.328  1.00  0.00     0.078 C 
HETATM   11  C   UNL     1     -45.384 -51.820  13.534  1.00  0.00     0.016 C 
HETATM   12  C   UNL     1     -44.100 -51.256  14.151  1.00  0.00     0.026 C 
BRANCH  10  13
HETATM   13  C   UNL     1     -45.431 -54.086  14.665  1.00  0.00     0.221 C 
HETATM   14  N   UNL     1     -45.970 -53.364  15.702  1.00  0.00    -0.365 N 
HETATM   15  C   UNL     1     -46.022 -53.921  17.032  1.00  0.00     0.149 C 
HETATM   16  H   UNL     1     -46.193 -52.385  15.577  1.00  0.00     0.161 HD
HETATM   17  O   UNL     1     -45.016 -55.231  14.819  1.00  0.00    -0.273 OA
ENDBRANCH  10  13
ENDBRANCH   1   7
BRANCH   4  18
HETATM   18  C   UNL     1     -41.780 -47.644  10.844  1.00  0.00     0.051 A 
HETATM   19  C   UNL     1     -42.645 -46.554  10.789  1.00  0.00     0.035 A 
HETATM   20  C   UNL     1     -42.114 -45.270  10.662  1.00  0.00     0.058 A 
HETATM   21  C   UNL     1     -40.741 -45.129  10.534  1.00  0.00     0.141 A 
HETATM   22  N   UNL     1     -39.878 -46.165  10.544  1.00  0.00    -0.345 N 
HETATM   23  C   UNL     1     -40.415 -47.395  10.720  1.00  0.00     0.119 A 
ATOM     24  HN  UNL     1     -38.874 -46.030  10.426  1.00  0.00     0.167 HD
BRANCH  21  25
HETATM   25  O   UNL     1     -40.261 -43.842  10.402  1.00  0.00    -0.341 OA
HETATM   26  C   UNL     1     -40.773 -42.963  11.400  1.00  0.00     0.211 C 
ENDBRANCH  21  25
ENDBRANCH   4  18
TORSDOF 4
ENDMDL
MODEL 2
REMARK VINA RESULT:      -6.0      1.762      2.220
REMARK  4 active torsions:
REMARK  status: ('A' for Active; 'I' for Inactive)
REMARK       I    between atoms: N_2  and  C_3 
REMARK    1  A    between atoms: C_3  and  C_5 
REMARK    2  A    between atoms: C_8  and  N_11 
REMARK       I    between atoms: N_11  and  C_12 
REMARK       I    between atoms: C_12  and  N_14 
REMARK    3  A    between atoms: N_14  and  C_15 
REMARK    4  A    between atoms: C_18  and  O_19 
ROOT
HETATM    1  N   UNL     1     -42.897 -50.868  12.527  1.00  0.00    -0.338 N 
HETATM    2  C   UNL     1     -42.641 -49.516  12.559  1.00  0.00     0.321 C 
HETATM    3  O   UNL     1     -42.658 -48.859  13.590  1.00  0.00    -0.247 OA
HETATM    4  N   UNL     1     -42.452 -49.010  11.291  1.00  0.00    -0.308 N 
HETATM    5  H   UNL     1     -42.368 -51.389  11.840  1.00  0.00     0.164 HD
HETATM    6  H   UNL     1     -42.994 -49.477  10.579  1.00  0.00     0.170 HD
ENDROOT
BRANCH   1   7
HETATM    7  C   UNL     1     -43.333 -51.559  13.740  1.00  0.00     0.086 C 
HETATM    8  C   UNL     1     -42.153 -52.008  14.615  1.00  0.00     0.026 C 
HETATM    9  C   UNL     1     -41.420 -53.229  14.057  1.00  0.00     0.016 C 
HETATM   10  C   UNL     1     -42.365 -54.404  13.761  1.00  0.00     0.078 C 
HETATM   11  C   UNL     1     -43.498 -53.945  12.835  1.00  0.00     0.016 C 
HETATM   12  C   UNL     1     -44.251 -52.725  13.377  1.00  0.00     0.026 C 
BRANCH  10  13
HETATM   13  C   UNL     1     -42.917 -55.085  15.021  1.00  0.00     0.221 C 
HETATM   14  N   UNL     1     -42.042 -55.169  16.076  1.00  0.00    -0.365 N 
HETATM   15  C   UNL     1     -42.409 -55.881  17.276  1.00  0.00     0.149 C 
HETATM   16  H   UNL     1     -41.082 -54.868  15.965  1.00  0.00     0.161 HD
HETATM   17  O   UNL     1     -44.044 -55.569  15.074  1.00  0.00    -0.273 OA
ENDBRANCH  10  13
ENDBRANCH   1   7
BRANCH   4  18
HETATM   18  C   UNL     1     -42.157 -47.647  11.087  1.00  0.00     0.051 A 
HETATM   19  C   UNL     1     -40.830 -47.225  11.062  1.00  0.00     0.035 A 
HETATM   20  C   UNL     1     -40.548 -45.882  10.806  1.00  0.00     0.058 A 
HETATM   21  C   UNL     1     -41.606 -45.001  10.643  1.00  0.00     0.141 A 
HETATM   22  N   UNL     1     -42.902 -45.369  10.700  1.00  0.00    -0.345 N 
HETATM   23  C   UNL     1     -43.147 -46.685  10.899  1.00  0.00     0.119 A 
ATOM     24  HN  UNL     1     -43.658 -44.692  10.598  1.00  0.00     0.167 HD
BRANCH  21  25
HETATM   25  O   UNL     1     -41.281 -43.682  10.401  1.00  0.00    -0.341 OA
HETATM   26  C   UNL     1     -40.432 -43.134  11.407  1.00  0.00     0.211 C 
ENDBRANCH  21  25
ENDBRANCH   4  18
TORSDOF 4
ENDMDL
MODEL 3
REMARK VINA RESULT:      -5.8      1.861      8.770
REMARK  4 active torsions:
REMARK  status: ('A' for Active; 'I' for Inactive)
REMARK       I    between atoms: N_2  and  C_3 
REMARK    1  A    between atoms: C_3  and  C_5 
REMARK    2  A    between atoms: C_8  and  N_11 
REMARK       I    between atoms: N_11  and  C_12 
REMARK       I    between atoms: C_12  and  N_14 
REMARK    3  A    between atoms: N_14  and  C_15 
REMARK    4  A    between atoms: C_18  and  O_19 
ROOT
HETATM    1  N   UNL     1     -42.757 -49.473  11.866  1.00  0.00    -0.338 N 
HETATM    2  C   UNL     1     -42.964 -50.435  12.827  1.00  0.00     0.321 C 
HETATM    3  O   UNL     1     -43.373 -50.178  13.950  1.00  0.00    -0.247 OA
HETATM    4  N   UNL     1     -42.575 -51.681  12.384  1.00  0.00    -0.308 N 
HETATM    5  H   UNL     1     -42.954 -49.764  10.918  1.00  0.00     0.164 HD
HETATM    6  H   UNL     1     -41.793 -51.662  11.746  1.00  0.00     0.170 HD
ENDROOT
BRANCH   1   7
HETATM    7  C   UNL     1     -42.905 -48.057  12.204  1.00  0.00     0.086 C 
HETATM    8  C   UNL     1     -43.488 -47.235  11.044  1.00  0.00     0.026 C 
HETATM    9  C   UNL     1     -42.478 -46.971   9.926  1.00  0.00     0.016 C 
HETATM   10  C   UNL     1     -41.172 -46.347  10.442  1.00  0.00     0.078 C 
HETATM   11  C   UNL     1     -40.578 -47.219  11.555  1.00  0.00     0.016 C 
HETATM   12  C   UNL     1     -41.571 -47.492  12.689  1.00  0.00     0.026 C 
BRANCH  10  13
HETATM   13  C   UNL     1     -41.322 -44.890  10.898  1.00  0.00     0.221 C 
HETATM   14  N   UNL     1     -40.321 -44.422  11.714  1.00  0.00    -0.365 N 
HETATM   15  C   UNL     1     -40.405 -43.103  12.294  1.00  0.00     0.149 C 
HETATM   16  H   UNL     1     -39.595 -45.049  12.039  1.00  0.00     0.161 HD
HETATM   17  O   UNL     1     -42.293 -44.198  10.603  1.00  0.00    -0.273 OA
ENDBRANCH  10  13
ENDBRANCH   1   7
BRANCH   4  18
HETATM   18  C   UNL     1     -42.715 -52.821  13.199  1.00  0.00     0.051 A 
HETATM   19  C   UNL     1     -41.619 -53.296  13.916  1.00  0.00     0.035 A 
HETATM   20  C   UNL     1     -41.783 -54.393  14.762  1.00  0.00     0.058 A 
HETATM   21  C   UNL     1     -43.023 -55.013  14.814  1.00  0.00     0.141 A 
HETATM   22  N   UNL     1     -44.094 -54.604  14.105  1.00  0.00    -0.345 N 
HETATM   23  C   UNL     1     -43.921 -53.506  13.331  1.00  0.00     0.119 A 
ATOM     24  HN  UNL     1     -44.986 -55.095  14.148  1.00  0.00     0.167 HD
BRANCH  21  25
HETATM   25  O   UNL     1     -43.136 -56.100  15.656  1.00  0.00    -0.341 OA
HETATM   26  C   UNL     1     -42.063 -56.181  16.591  1.00  0.00     0.211 C 
ENDBRANCH  21  25
ENDBRANCH   4  18
TORSDOF 4
ENDMDL
MODEL 4
REMARK VINA RESULT:      -5.7      1.959      9.041
REMARK  4 active torsions:
REMARK  status: ('A' for Active; 'I' for Inactive)
REMARK       I    between atoms: N_2  and  C_3 
REMARK    1  A    between atoms: C_3  and  C_5 
REMARK    2  A    between atoms: C_8  and  N_11 
REMARK       I    between atoms: N_11  and  C_12 
REMARK       I    between atoms: C_12  and  N_14 
REMARK    3  A    between atoms: N_14  and  C_15 
REMARK    4  A    between atoms: C_18  and  O_19 
ROOT
HETATM    1  N   UNL     1     -41.827 -47.417  12.396  1.00  0.00    -0.338 N 
HETATM    2  C   UNL     1     -42.616 -48.525  12.194  1.00  0.00     0.321 C 
HETATM    3  O   UNL     1     -43.630 -48.506  11.509  1.00  0.00    -0.247 OA
HETATM    4  N   UNL     1     -42.163 -49.605  12.920  1.00  0.00    -0.308 N 
HETATM    5  H   UNL     1     -40.836 -47.604  12.472  1.00  0.00     0.164 HD
HETATM    6  H   UNL     1     -41.734 -49.356  13.799  1.00  0.00     0.170 HD
ENDROOT
BRANCH   1   7
HETATM    7  C   UNL     1     -42.251 -46.113  11.887  1.00  0.00     0.086 C 
HETATM    8  C   UNL     1     -41.434 -45.666  10.666  1.00  0.00     0.026 C 
HETATM    9  C   UNL     1     -40.028 -45.185  11.025  1.00  0.00     0.016 C 
HETATM   10  C   UNL     1     -40.033 -44.099  12.113  1.00  0.00     0.078 C 
HETATM   11  C   UNL     1     -40.800 -44.593  13.345  1.00  0.00     0.016 C 
HETATM   12  C   UNL     1     -42.215 -45.076  13.008  1.00  0.00     0.026 C 
BRANCH  10  13
HETATM   13  C   UNL     1     -40.570 -42.744  11.630  1.00  0.00     0.221 C 
HETATM   14  N   UNL     1     -40.113 -41.649  12.323  1.00  0.00    -0.365 N 
HETATM   15  C   UNL     1     -40.628 -40.333  12.033  1.00  0.00     0.149 C 
HETATM   16  H   UNL     1     -39.532 -41.773  13.142  1.00  0.00     0.161 HD
HETATM   17  O   UNL     1     -41.390 -42.640  10.722  1.00  0.00    -0.273 OA
ENDBRANCH  10  13
ENDBRANCH   1   7
BRANCH   4  18
HETATM   18  C   UNL     1     -42.811 -50.855  12.850  1.00  0.00     0.051 A 
HETATM   19  C   UNL     1     -44.087 -51.001  13.390  1.00  0.00     0.035 A 
HETATM   20  C   UNL     1     -44.740 -52.228  13.267  1.00  0.00     0.058 A 
HETATM   21  C   UNL     1     -44.070 -53.280  12.661  1.00  0.00     0.141 A 
HETATM   22  N   UNL     1     -42.821 -53.184  12.163  1.00  0.00    -0.345 N 
HETATM   23  C   UNL     1     -42.229 -51.969  12.250  1.00  0.00     0.119 A 
ATOM     24  HN  UNL     1     -42.347 -53.983  11.743  1.00  0.00     0.167 HD
BRANCH  21  25
HETATM   25  O   UNL     1     -44.751 -54.477  12.570  1.00  0.00    -0.341 OA
HETATM   26  C   UNL     1     -45.433 -54.811  13.776  1.00  0.00     0.211 C 
ENDBRANCH  21  25
ENDBRANCH   4  18
TORSDOF 4
ENDMDL
MODEL 5
REMARK VINA RESULT:      -5.6      3.758      4.513
REMARK  4 active torsions:
REMARK  status: ('A' for Active; 'I' for Inactive)
REMARK       I    between atoms: N_2  and  C_3 
REMARK    1  A    between atoms: C_3  and  C_5 
REMARK    2  A    between atoms: C_8  and  N_11 
REMARK       I    between atoms: N_11  and  C_12 
REMARK       I    between atoms: C_12  and  N_14 
REMARK    3  A    between atoms: N_14  and  C_15 
REMARK    4  A    between atoms: C_18  and  O_19 
ROOT
HETATM    1  N   UNL     1     -41.023 -51.823  14.142  1.00  0.00    -0.338 N 
HETATM    2  C   UNL     1     -41.380 -51.145  12.999  1.00  0.00     0.321 C 
HETATM    3  O   UNL     1     -41.564 -51.701  11.925  1.00  0.00    -0.247 OA
HETATM    4  N   UNL     1     -41.414 -49.784  13.211  1.00  0.00    -0.308 N 
HETATM    5  H   UNL     1     -41.404 -51.447  15.000  1.00  0.00     0.164 HD
HETATM    6  H   UNL     1     -40.740 -49.458  13.887  1.00  0.00     0.170 HD
ENDROOT
BRANCH   1   7
HETATM    7  C   UNL     1     -40.723 -53.253  14.082  1.00  0.00     0.086 C 
HETATM    8  C   UNL     1     -41.622 -54.080  15.014  1.00  0.00     0.026 C 
HETATM    9  C   UNL     1     -41.238 -53.955  16.488  1.00  0.00     0.016 C 
HETATM   10  C   UNL     1     -39.753 -54.259  16.742  1.00  0.00     0.078 C 
HETATM   11  C   UNL     1     -38.876 -53.376  15.846  1.00  0.00     0.016 C 
HETATM   12  C   UNL     1     -39.240 -53.490  14.362  1.00  0.00     0.026 C 
BRANCH  10  13
HETATM   13  C   UNL     1     -39.391 -55.742  16.586  1.00  0.00     0.221 C 
HETATM   14  N   UNL     1     -40.175 -56.617  17.297  1.00  0.00    -0.365 N 
HETATM   15  C   UNL     1     -39.867 -58.026  17.316  1.00  0.00     0.149 C 
HETATM   16  H   UNL     1     -40.879 -56.266  17.935  1.00  0.00     0.161 HD
HETATM   17  O   UNL     1     -38.437 -56.126  15.915  1.00  0.00    -0.273 OA
ENDBRANCH  10  13
ENDBRANCH   1   7
BRANCH   4  18
HETATM   18  C   UNL     1     -41.775 -48.894  12.179  1.00  0.00     0.051 A 
HETATM   19  C   UNL     1     -43.109 -48.526  12.020  1.00  0.00     0.035 A 
HETATM   20  C   UNL     1     -43.446 -47.603  11.030  1.00  0.00     0.058 A 
HETATM   21  C   UNL     1     -42.445 -47.128  10.195  1.00  0.00     0.141 A 
HETATM   22  N   UNL     1     -41.151 -47.493  10.296  1.00  0.00    -0.345 N 
HETATM   23  C   UNL     1     -40.843 -48.351  11.297  1.00  0.00     0.119 A 
ATOM     24  HN  UNL     1     -40.442 -47.143   9.652  1.00  0.00     0.167 HD
BRANCH  21  25
HETATM   25  O   UNL     1     -42.826 -46.225   9.224  1.00  0.00    -0.341 OA
HETATM   26  C   UNL     1     -44.102 -46.528   8.666  1.00  0.00     0.211 C 
ENDBRANCH  21  25
ENDBRANCH   4  18
TORSDOF 4
ENDMDL
MODEL 6
REMARK VINA RESULT:      -5.6      3.171      3.846
REMARK  4 active torsions:
REMARK  status: ('A' for Active; 'I' for Inactive)
REMARK       I    between atoms: N_2  and  C_3 
REMARK    1  A    between atoms: C_3  and  C_5 
REMARK    2  A    between atoms: C_8  and  N_11 
REMARK       I    between atoms: N_11  and  C_12 
REMARK       I    between atoms: C_12  and  N_14 
REMARK    3  A    between atoms: N_14  and  C_15 
REMARK    4  A    between atoms: C_18  and  O_19 
ROOT
HETATM    1  N   UNL     1     -41.703 -51.369  12.411  1.00  0.00    -0.338 N 
HETATM    2  C   UNL     1     -41.519 -50.108  11.890  1.00  0.00     0.321 C 
HETATM    3  O   UNL     1     -40.449 -49.721  11.443  1.00  0.00    -0.247 OA
HETATM    4  N   UNL     1     -42.656 -49.340  12.018  1.00  0.00    -0.308 N 
HETATM    5  H   UNL     1     -42.615 -51.772  12.246  1.00  0.00     0.164 HD
HETATM    6  H   UNL     1     -43.201 -49.550  12.842  1.00  0.00     0.170 HD
ENDROOT
BRANCH   1   7
HETATM    7  C   UNL     1     -40.561 -52.270  12.566  1.00  0.00     0.086 C 
HETATM    8  C   UNL     1     -40.970 -53.750  12.500  1.00  0.00     0.026 C 
HETATM    9  C   UNL     1     -41.663 -54.240  13.771  1.00  0.00     0.016 C 
HETATM   10  C   UNL     1     -40.848 -53.949  15.041  1.00  0.00     0.078 C 
HETATM   11  C   UNL     1     -40.508 -52.455  15.116  1.00  0.00     0.016 C 
HETATM   12  C   UNL     1     -39.807 -51.943  13.853  1.00  0.00     0.026 C 
BRANCH  10  13
HETATM   13  C   UNL     1     -39.588 -54.814  15.178  1.00  0.00     0.221 C 
HETATM   14  N   UNL     1     -39.077 -54.913  16.449  1.00  0.00    -0.365 N 
HETATM   15  C   UNL     1     -37.836 -55.610  16.687  1.00  0.00     0.149 C 
HETATM   16  H   UNL     1     -39.481 -54.372  17.203  1.00  0.00     0.161 HD
HETATM   17  O   UNL     1     -39.037 -55.342  14.216  1.00  0.00    -0.273 OA
ENDBRANCH  10  13
ENDBRANCH   1   7
BRANCH   4  18
HETATM   18  C   UNL     1     -42.701 -48.017  11.535  1.00  0.00     0.051 A 
HETATM   19  C   UNL     1     -42.420 -46.959  12.396  1.00  0.00     0.035 A 
HETATM   20  C   UNL     1     -42.415 -45.657  11.894  1.00  0.00     0.058 A 
HETATM   21  C   UNL     1     -42.750 -45.457  10.563  1.00  0.00     0.141 A 
HETATM   22  N   UNL     1     -43.064 -46.455   9.712  1.00  0.00    -0.345 N 
HETATM   23  C   UNL     1     -43.012 -47.712  10.212  1.00  0.00     0.119 A 
ATOM     24  HN  UNL     1     -43.327 -46.273   8.744  1.00  0.00     0.167 HD
BRANCH  21  25
HETATM   25  O   UNL     1     -42.740 -44.153  10.112  1.00  0.00    -0.341 OA
HETATM   26  C   UNL     1     -42.786 -43.206  11.177  1.00  0.00     0.211 C 
ENDBRANCH  21  25
ENDBRANCH   4  18
TORSDOF 4
ENDMDL
MODEL 7
REMARK VINA RESULT:      -5.5      1.483      8.813
REMARK  4 active torsions:
REMARK  status: ('A' for Active; 'I' for Inactive)
REMARK       I    between atoms: N_2  and  C_3 
REMARK    1  A    between atoms: C_3  and  C_5 
REMARK    2  A    between atoms: C_8  and  N_11 
REMARK       I    between atoms: N_11  and  C_12 
REMARK       I    between atoms: C_12  and  N_14 
REMARK    3  A    between atoms: N_14  and  C_15 
REMARK    4  A    between atoms: C_18  and  O_19 
ROOT
HETATM    1  N   UNL     1     -43.063 -49.584  12.110  1.00  0.00    -0.338 N 
HETATM    2  C   UNL     1     -43.323 -50.365  13.213  1.00  0.00     0.321 C 
HETATM    3  O   UNL     1     -42.638 -50.338  14.225  1.00  0.00    -0.247 OA
HETATM    4  N   UNL     1     -44.381 -51.218  12.987  1.00  0.00    -0.308 N 
HETATM    5  H   UNL     1     -43.880 -49.264  11.608  1.00  0.00     0.164 HD
HETATM    6  H   UNL     1     -44.460 -51.528  12.029  1.00  0.00     0.170 HD
ENDROOT
BRANCH   1   7
HETATM    7  C   UNL     1     -41.853 -48.763  12.064  1.00  0.00     0.086 C 
HETATM    8  C   UNL     1     -41.928 -47.554  13.008  1.00  0.00     0.026 C 
HETATM    9  C   UNL     1     -42.832 -46.437  12.485  1.00  0.00     0.016 C 
HETATM   10  C   UNL     1     -42.468 -46.000  11.057  1.00  0.00     0.078 C 
HETATM   11  C   UNL     1     -42.462 -47.215  10.122  1.00  0.00     0.016 C 
HETATM   12  C   UNL     1     -41.558 -48.346  10.624  1.00  0.00     0.026 C 
BRANCH  10  13
HETATM   13  C   UNL     1     -41.148 -45.222  10.968  1.00  0.00     0.221 C 
HETATM   14  N   UNL     1     -40.431 -45.411   9.811  1.00  0.00    -0.365 N 
HETATM   15  C   UNL     1     -39.125 -44.818   9.655  1.00  0.00     0.149 C 
HETATM   16  H   UNL     1     -40.741 -46.089   9.126  1.00  0.00     0.161 HD
HETATM   17  O   UNL     1     -40.729 -44.517  11.882  1.00  0.00    -0.273 OA
ENDBRANCH  10  13
ENDBRANCH   1   7
BRANCH   4  18
HETATM   18  C   UNL     1     -44.835 -52.099  13.989  1.00  0.00     0.051 A 
HETATM   19  C   UNL     1     -45.877 -51.710  14.828  1.00  0.00     0.035 A 
HETATM   20  C   UNL     1     -46.354 -52.611  15.781  1.00  0.00     0.058 A 
HETATM   21  C   UNL     1     -45.731 -53.845  15.899  1.00  0.00     0.141 A 
HETATM   22  N   UNL     1     -44.696 -54.238  15.130  1.00  0.00    -0.345 N 
HETATM   23  C   UNL     1     -44.286 -53.365  14.179  1.00  0.00     0.119 A 
ATOM     24  HN  UNL     1     -44.246 -55.144  15.256  1.00  0.00     0.167 HD
BRANCH  21  25
HETATM   25  O   UNL     1     -46.230 -54.699  16.861  1.00  0.00    -0.341 OA
HETATM   26  C   UNL     1     -45.939 -54.261  18.186  1.00  0.00     0.211 C 
ENDBRANCH  21  25
ENDBRANCH   4  18
TORSDOF 4
ENDMDL
MODEL 8
REMARK VINA RESULT:      -5.5      3.387      8.616
REMARK  4 active torsions:
REMARK  status: ('A' for Active; 'I' for Inactive)
REMARK       I    between atoms: N_2  and  C_3 
REMARK    1  A    between atoms: C_3  and  C_5 
REMARK    2  A    between atoms: C_8  and  N_11 
REMARK       I    between atoms: N_11  and  C_12 
REMARK       I    between atoms: C_12  and  N_14 
REMARK    3  A    between atoms: N_14  and  C_15 
REMARK    4  A    between atoms: C_18  and  O_19 
ROOT
HETATM    1  N   UNL     1     -41.328 -50.049  12.766  1.00  0.00    -0.338 N 
HETATM    2  C   UNL     1     -40.610 -50.905  13.569  1.00  0.00     0.321 C 
HETATM    3  O   UNL     1     -39.665 -50.540  14.254  1.00  0.00    -0.247 OA
HETATM    4  N   UNL     1     -41.042 -52.206  13.431  1.00  0.00    -0.308 N 
HETATM    5  H   UNL     1     -42.314 -50.256  12.691  1.00  0.00     0.164 HD
HETATM    6  H   UNL     1     -41.377 -52.429  12.505  1.00  0.00     0.170 HD
ENDROOT
BRANCH   1   7
HETATM    7  C   UNL     1     -40.894 -48.662  12.602  1.00  0.00     0.086 C 
HETATM    8  C   UNL     1     -41.814 -47.670  13.331  1.00  0.00     0.026 C 
HETATM    9  C   UNL     1     -43.146 -47.447  12.616  1.00  0.00     0.016 C 
HETATM   10  C   UNL     1     -42.969 -47.053  11.141  1.00  0.00     0.078 C 
HETATM   11  C   UNL     1     -42.100 -48.091  10.421  1.00  0.00     0.016 C 
HETATM   12  C   UNL     1     -40.756 -48.326  11.118  1.00  0.00     0.026 C 
BRANCH  10  13
HETATM   13  C   UNL     1     -42.418 -45.634  10.944  1.00  0.00     0.221 C 
HETATM   14  N   UNL     1     -42.837 -44.707  11.867  1.00  0.00    -0.365 N 
HETATM   15  C   UNL     1     -42.473 -43.318  11.725  1.00  0.00     0.149 C 
HETATM   16  H   UNL     1     -43.527 -44.959  12.563  1.00  0.00     0.161 HD
HETATM   17  O   UNL     1     -41.695 -45.327  10.000  1.00  0.00    -0.273 OA
ENDBRANCH  10  13
ENDBRANCH   1   7
BRANCH   4  18
HETATM   18  C   UNL     1     -40.460 -53.251  14.176  1.00  0.00     0.051 A 
HETATM   19  C   UNL     1     -41.023 -53.627  15.393  1.00  0.00     0.035 A 
HETATM   20  C   UNL     1     -40.470 -54.698  16.096  1.00  0.00     0.058 A 
HETATM   21  C   UNL     1     -39.338 -55.314  15.585  1.00  0.00     0.141 A 
HETATM   22  N   UNL     1     -38.744 -54.951  14.430  1.00  0.00    -0.345 N 
HETATM   23  C   UNL     1     -39.331 -53.942  13.743  1.00  0.00     0.119 A 
ATOM     24  HN  UNL     1     -37.899 -55.410  14.092  1.00  0.00     0.167 HD
BRANCH  21  25
HETATM   25  O   UNL     1     -38.820 -56.363  16.318  1.00  0.00    -0.341 OA
HETATM   26  C   UNL     1     -37.716 -55.970  17.130  1.00  0.00     0.211 C 
ENDBRANCH  21  25
ENDBRANCH   4  18
TORSDOF 4
ENDMDL
MODEL 9
REMARK VINA RESULT:      -5.4     14.493     16.773
REMARK  4 active torsions:
REMARK  status: ('A' for Active; 'I' for Inactive)
REMARK       I    between atoms: N_2  and  C_3 
REMARK    1  A    between atoms: C_3  and  C_5 
REMARK    2  A    between atoms: C_8  and  N_11 
REMARK       I    between atoms: N_11  and  C_12 
REMARK       I    between atoms: C_12  and  N_14 
REMARK    3  A    between atoms: N_14  and  C_15 
REMARK    4  A    between atoms: C_18  and  O_19 
ROOT
HETATM    1  N   UNL     1     -50.264 -50.024  -0.438  1.00  0.00    -0.338 N 
HETATM    2  C   UNL     1     -50.111 -51.392  -0.466  1.00  0.00     0.321 C 
HETATM    3  O   UNL     1     -50.056 -52.076   0.546  1.00  0.00    -0.247 OA
HETATM    4  N   UNL     1     -49.949 -51.854  -1.754  1.00  0.00    -0.308 N 
HETATM    5  H   UNL     1     -50.813 -49.639  -1.194  1.00  0.00     0.164 HD
HETATM    6  H   UNL     1     -49.469 -51.208  -2.363  1.00  0.00     0.170 HD
ENDROOT
BRANCH   1   7
HETATM    7  C   UNL     1     -50.239 -49.311   0.838  1.00  0.00     0.086 C 
HETATM    8  C   UNL     1     -51.564 -48.590   1.132  1.00  0.00     0.026 C 
HETATM    9  C   UNL     1     -51.753 -47.318   0.305  1.00  0.00     0.016 C 
HETATM   10  C   UNL     1     -50.562 -46.353   0.420  1.00  0.00     0.078 C 
HETATM   11  C   UNL     1     -49.261 -47.080   0.061  1.00  0.00     0.016 C 
HETATM   12  C   UNL     1     -49.048 -48.356   0.882  1.00  0.00     0.026 C 
BRANCH  10  13
HETATM   13  C   UNL     1     -50.455 -45.665   1.788  1.00  0.00     0.221 C 
HETATM   14  N   UNL     1     -49.293 -44.965   2.006  1.00  0.00    -0.365 N 
HETATM   15  C   UNL     1     -49.030 -44.365   3.291  1.00  0.00     0.149 C 
HETATM   16  H   UNL     1     -48.547 -44.994   1.322  1.00  0.00     0.161 HD
HETATM   17  O   UNL     1     -51.319 -45.770   2.654  1.00  0.00    -0.273 OA
ENDBRANCH  10  13
ENDBRANCH   1   7
BRANCH   4  18
HETATM   18  C   UNL     1     -49.794 -53.229  -2.021  1.00  0.00     0.051 A 
HETATM   19  C   UNL     1     -50.891 -53.979  -2.439  1.00  0.00     0.035 A 
HETATM   20  C   UNL     1     -50.714 -55.327  -2.753  1.00  0.00     0.058 A 
HETATM   21  C   UNL     1     -49.458 -55.890  -2.578  1.00  0.00     0.141 A 
HETATM   22  N   UNL     1     -48.385 -55.203  -2.138  1.00  0.00    -0.345 N 
HETATM   23  C   UNL     1     -48.572 -53.886  -1.890  1.00  0.00     0.119 A 
ATOM     24  HN  UNL     1     -47.480 -55.652  -1.999  1.00  0.00     0.167 HD
BRANCH  21  25
HETATM   25  O   UNL     1     -49.332 -57.228  -2.891  1.00  0.00    -0.341 OA
HETATM   26  C   UNL     1     -48.296 -57.472  -3.840  1.00  0.00     0.211 C 
ENDBRANCH  21  25
ENDBRANCH   4  18
TORSDOF 4
ENDMDL
