MODEL 1
REMARK VINA RESULT:      -6.3      0.000      0.000
REMARK  4 active torsions:
REMARK  status: ('A' for Active; 'I' for Inactive)
REMARK    1  A    between atoms: C_4  and  N_5 
REMARK       I    between atoms: N_5  and  C_6 
REMARK       I    between atoms: C_6  and  N_8 
REMARK    2  A    between atoms: N_8  and  C_9 
REMARK    3  A    between atoms: C_9  and  C_10 
REMARK    4  A    between atoms: C_10  and  C_11 
ROOT
HETATM    1  N   UNL     1     -41.694 -49.336  10.783  1.00  0.00    -0.308 N 
HETATM    2  C   UNL     1     -41.311 -50.079  11.879  1.00  0.00     0.320 C 
HETATM    3  O   UNL     1     -41.206 -49.679  13.026  1.00  0.00    -0.247 OA
HETATM    4  N   UNL     1     -41.038 -51.393  11.547  1.00  0.00    -0.343 N 
HETATM    5  H   UNL     1     -41.907 -49.874   9.954  1.00  0.00     0.170 HD
HETATM    6  H   UNL     1     -40.806 -51.577  10.585  1.00  0.00     0.164 HD
ENDROOT
BRANCH   1   7
HETATM    7  C   UNL     1     -41.941 -47.977  10.710  1.00  0.00     0.052 A 
HETATM    8  C   UNL     1     -40.870 -46.996  10.740  1.00  0.00     0.043 A 
HETATM    9  C   UNL     1     -41.096 -45.672  10.672  1.00  0.00     0.008 A 
HETATM   10  C   UNL     1     -40.010 -44.648  10.713  1.00  0.00     0.054 C 
HETATM   11  C   UNL     1     -42.502 -45.189  10.551  1.00  0.00     0.251 A 
HETATM   12  N   UNL     1     -43.465 -46.170  10.514  1.00  0.00    -0.331 N 
HETATM   13  O   UNL     1     -42.784 -43.997  10.480  1.00  0.00    -0.268 OA
HETATM   14  C   UNL     1     -43.201 -47.516  10.590  1.00  0.00     0.121 A 
HETATM   15  H   UNL     1     -44.417 -45.835  10.425  1.00  0.00     0.168 HD
ENDBRANCH   1   7
BRANCH   4  16
HETATM   16  C   UNL     1     -40.426 -52.276  12.528  1.00  0.00     0.127 C 
BRANCH  16  17
HETATM   17  C   UNL     1     -41.363 -53.347  13.087  1.00  0.00     0.051 C 
BRANCH  17  18
HETATM   18  C   UNL     1     -42.568 -52.799  13.871  1.00  0.00     0.123 C 
HETATM   19  C   UNL     1     -43.008 -53.750  14.989  1.00  0.00     0.032 C 
HETATM   20  C   UNL     1     -43.695 -54.983  14.420  1.00  0.00     0.004 C 
HETATM   21  C   UNL     1     -44.894 -54.538  13.601  1.00  0.00     0.026 C 
HETATM   22  C   UNL     1     -44.506 -53.492  12.560  1.00  0.00     0.168 C 
HETATM   23  O   UNL     1     -43.687 -52.435  13.056  1.00  0.00    -0.386 OA
ENDBRANCH  17  18
ENDBRANCH  16  17
ENDBRANCH   4  16
TORSDOF 4
ENDMDL
MODEL 2
REMARK VINA RESULT:      -6.1      2.315      7.054
REMARK  4 active torsions:
REMARK  status: ('A' for Active; 'I' for Inactive)
REMARK    1  A    between atoms: C_4  and  N_5 
REMARK       I    between atoms: N_5  and  C_6 
REMARK       I    between atoms: C_6  and  N_8 
REMARK    2  A    between atoms: N_8  and  C_9 
REMARK    3  A    between atoms: C_9  and  C_10 
REMARK    4  A    between atoms: C_10  and  C_11 
ROOT
HETATM    1  N   UNL     1     -42.777 -52.144  11.924  1.00  0.00    -0.308 N 
HETATM    2  C   UNL     1     -41.582 -51.625  12.374  1.00  0.00     0.320 C 
HETATM    3  O   UNL     1     -41.181 -51.620  13.526  1.00  0.00    -0.247 OA
HETATM    4  N   UNL     1     -40.834 -51.076  11.349  1.00  0.00    -0.343 N 
HETATM    5  H   UNL     1     -42.855 -52.229  10.919  1.00  0.00     0.170 HD
HETATM    6  H   UNL     1     -41.335 -50.800  10.521  1.00  0.00     0.164 HD
ENDROOT
BRANCH   1   7
HETATM    7  C   UNL     1     -43.818 -52.671  12.666  1.00  0.00     0.052 A 
HETATM    8  C   UNL     1     -44.802 -51.827  13.322  1.00  0.00     0.043 A 
HETATM    9  C   UNL     1     -45.818 -52.326  14.048  1.00  0.00     0.008 A 
HETATM   10  C   UNL     1     -46.832 -51.476  14.740  1.00  0.00     0.054 C 
HETATM   11  C   UNL     1     -45.949 -53.806  14.178  1.00  0.00     0.251 A 
HETATM   12  N   UNL     1     -44.993 -54.546  13.520  1.00  0.00    -0.331 N 
HETATM   13  O   UNL     1     -46.851 -54.333  14.820  1.00  0.00    -0.268 OA
HETATM   14  C   UNL     1     -43.964 -54.004  12.789  1.00  0.00     0.121 A 
HETATM   15  H   UNL     1     -45.091 -55.551  13.607  1.00  0.00     0.168 HD
ENDBRANCH   1   7
BRANCH   4  16
HETATM   16  C   UNL     1     -39.640 -50.303  11.656  1.00  0.00     0.127 C 
BRANCH  16  17
HETATM   17  C   UNL     1     -39.899 -48.820  11.926  1.00  0.00     0.051 C 
BRANCH  17  18
HETATM   18  C   UNL     1     -40.907 -48.161  10.969  1.00  0.00     0.123 C 
HETATM   19  C   UNL     1     -40.814 -46.631  11.000  1.00  0.00     0.032 C 
HETATM   20  C   UNL     1     -41.387 -46.074  12.295  1.00  0.00     0.004 C 
HETATM   21  C   UNL     1     -42.834 -46.520  12.419  1.00  0.00     0.026 C 
HETATM   22  C   UNL     1     -42.971 -48.031  12.265  1.00  0.00     0.168 C 
HETATM   23  O   UNL     1     -42.262 -48.583  11.157  1.00  0.00    -0.386 OA
ENDBRANCH  17  18
ENDBRANCH  16  17
ENDBRANCH   4  16
TORSDOF 4
ENDMDL
MODEL 3
REMARK VINA RESULT:      -5.9      1.692      8.403
REMARK  4 active torsions:
REMARK  status: ('A' for Active; 'I' for Inactive)
REMARK    1  A    between atoms: C_4  and  N_5 
REMARK       I    between atoms: N_5  and  C_6 
REMARK       I    between atoms: C_6  and  N_8 
REMARK    2  A    between atoms: N_8  and  C_9 
REMARK    3  A    between atoms: C_9  and  C_10 
REMARK    4  A    between atoms: C_10  and  C_11 
ROOT
HETATM    1  N   UNL     1     -42.340 -51.359  12.137  1.00  0.00    -0.308 N 
HETATM    2  C   UNL     1     -42.711 -50.053  12.378  1.00  0.00     0.320 C 
HETATM    3  O   UNL     1     -43.244 -49.625  13.388  1.00  0.00    -0.247 OA
HETATM    4  N   UNL     1     -42.411 -49.222  11.315  1.00  0.00    -0.343 N 
HETATM    5  H   UNL     1     -41.744 -51.493  11.332  1.00  0.00     0.170 HD
HETATM    6  H   UNL     1     -42.304 -49.661  10.415  1.00  0.00     0.164 HD
ENDROOT
BRANCH   1   7
HETATM    7  C   UNL     1     -42.574 -52.477  12.918  1.00  0.00     0.052 A 
HETATM    8  C   UNL     1     -43.855 -53.163  12.917  1.00  0.00     0.043 A 
HETATM    9  C   UNL     1     -44.097 -54.249  13.673  1.00  0.00     0.008 A 
HETATM   10  C   UNL     1     -45.409 -54.960  13.696  1.00  0.00     0.054 C 
HETATM   11  C   UNL     1     -43.004 -54.778  14.540  1.00  0.00     0.251 A 
HETATM   12  N   UNL     1     -41.814 -54.090  14.481  1.00  0.00    -0.331 N 
HETATM   13  O   UNL     1     -43.150 -55.766  15.252  1.00  0.00    -0.268 OA
HETATM   14  C   UNL     1     -41.601 -52.980  13.701  1.00  0.00     0.121 A 
HETATM   15  H   UNL     1     -41.074 -54.459  15.067  1.00  0.00     0.168 HD
ENDBRANCH   1   7
BRANCH   4  16
HETATM   16  C   UNL     1     -42.908 -47.856  11.300  1.00  0.00     0.127 C 
BRANCH  16  17
HETATM   17  C   UNL     1     -41.863 -46.798  11.656  1.00  0.00     0.051 C 
BRANCH  17  18
HETATM   18  C   UNL     1     -41.447 -45.889  10.487  1.00  0.00     0.123 C 
HETATM   19  C   UNL     1     -39.948 -45.573  10.508  1.00  0.00     0.032 C 
HETATM   20  C   UNL     1     -39.608 -44.606  11.632  1.00  0.00     0.004 C 
HETATM   21  C   UNL     1     -40.414 -43.333  11.440  1.00  0.00     0.026 C 
HETATM   22  C   UNL     1     -41.903 -43.629  11.288  1.00  0.00     0.168 C 
HETATM   23  O   UNL     1     -42.210 -44.682  10.377  1.00  0.00    -0.386 OA
ENDBRANCH  17  18
ENDBRANCH  16  17
ENDBRANCH   4  16
TORSDOF 4
ENDMDL
MODEL 4
REMARK VINA RESULT:      -5.8      1.402      2.097
REMARK  4 active torsions:
REMARK  status: ('A' for Active; 'I' for Inactive)
REMARK    1  A    between atoms: C_4  and  N_5 
REMARK       I    between atoms: N_5  and  C_6 
REMARK       I    between atoms: C_6  and  N_8 
REMARK    2  A    between atoms: N_8  and  C_9 
REMARK    3  A    between atoms: C_9  and  C_10 
REMARK    4  A    between atoms: C_10  and  C_11 
ROOT
HETATM    1  N   UNL     1     -41.693 -48.942  12.476  1.00  0.00    -0.308 N 
HETATM    2  C   UNL     1     -40.979 -50.113  12.348  1.00  0.00     0.320 C 
HETATM    3  O   UNL     1     -40.511 -50.569  11.319  1.00  0.00    -0.247 OA
HETATM    4  N   UNL     1     -40.834 -50.769  13.557  1.00  0.00    -0.343 N 
HETATM    5  H   UNL     1     -41.838 -48.630  13.427  1.00  0.00     0.170 HD
HETATM    6  H   UNL     1     -41.505 -50.549  14.274  1.00  0.00     0.164 HD
ENDROOT
BRANCH   1   7
HETATM    7  C   UNL     1     -42.124 -48.085  11.479  1.00  0.00     0.052 A 
HETATM    8  C   UNL     1     -43.483 -48.120  10.965  1.00  0.00     0.043 A 
HETATM    9  C   UNL     1     -43.913 -47.294   9.994  1.00  0.00     0.008 A 
HETATM   10  C   UNL     1     -45.301 -47.323   9.445  1.00  0.00     0.054 C 
HETATM   11  C   UNL     1     -42.963 -46.294   9.429  1.00  0.00     0.251 A 
HETATM   12  N   UNL     1     -41.698 -46.305   9.970  1.00  0.00    -0.331 N 
HETATM   13  O   UNL     1     -43.286 -45.506   8.546  1.00  0.00    -0.268 OA
HETATM   14  C   UNL     1     -41.288 -47.165  10.959  1.00  0.00     0.121 A 
HETATM   15  H   UNL     1     -41.059 -45.618   9.586  1.00  0.00     0.168 HD
ENDBRANCH   1   7
BRANCH   4  16
HETATM   16  C   UNL     1     -40.288 -52.116  13.589  1.00  0.00     0.127 C 
BRANCH  16  17
HETATM   17  C   UNL     1     -41.286 -53.193  14.017  1.00  0.00     0.051 C 
BRANCH  17  18
HETATM   18  C   UNL     1     -42.690 -52.666  14.360  1.00  0.00     0.123 C 
HETATM   19  C   UNL     1     -43.443 -53.607  15.306  1.00  0.00     0.032 C 
HETATM   20  C   UNL     1     -43.884 -54.872  14.584  1.00  0.00     0.004 C 
HETATM   21  C   UNL     1     -44.768 -54.481  13.412  1.00  0.00     0.026 C 
HETATM   22  C   UNL     1     -44.091 -53.446  12.520  1.00  0.00     0.168 C 
HETATM   23  O   UNL     1     -43.498 -52.354  13.220  1.00  0.00    -0.386 OA
ENDBRANCH  17  18
ENDBRANCH  16  17
ENDBRANCH   4  16
TORSDOF 4
ENDMDL
MODEL 5
REMARK VINA RESULT:      -5.8      3.413      7.474
REMARK  4 active torsions:
REMARK  status: ('A' for Active; 'I' for Inactive)
REMARK    1  A    between atoms: C_4  and  N_5 
REMARK       I    between atoms: N_5  and  C_6 
REMARK       I    between atoms: C_6  and  N_8 
REMARK    2  A    between atoms: N_8  and  C_9 
REMARK    3  A    between atoms: C_9  and  C_10 
REMARK    4  A    between atoms: C_10  and  C_11 
ROOT
HETATM    1  N   UNL     1     -42.235 -51.792  11.994  1.00  0.00    -0.308 N 
HETATM    2  C   UNL     1     -40.862 -51.666  11.979  1.00  0.00     0.320 C 
HETATM    3  O   UNL     1     -40.057 -52.446  12.459  1.00  0.00    -0.247 OA
HETATM    4  N   UNL     1     -40.452 -50.512  11.339  1.00  0.00    -0.343 N 
HETATM    5  H   UNL     1     -42.730 -51.153  11.387  1.00  0.00     0.170 HD
HETATM    6  H   UNL     1     -41.125 -49.766  11.277  1.00  0.00     0.164 HD
ENDROOT
BRANCH   1   7
HETATM    7  C   UNL     1     -43.003 -52.751  12.630  1.00  0.00     0.052 A 
HETATM    8  C   UNL     1     -42.483 -53.557  13.721  1.00  0.00     0.043 A 
HETATM    9  C   UNL     1     -43.218 -54.495  14.345  1.00  0.00     0.008 A 
HETATM   10  C   UNL     1     -42.698 -55.341  15.460  1.00  0.00     0.054 C 
HETATM   11  C   UNL     1     -44.628 -54.709  13.910  1.00  0.00     0.251 A 
HETATM   12  N   UNL     1     -45.061 -53.902  12.882  1.00  0.00    -0.331 N 
HETATM   13  O   UNL     1     -45.360 -55.541  14.435  1.00  0.00    -0.268 OA
HETATM   14  C   UNL     1     -44.282 -52.956  12.262  1.00  0.00     0.121 A 
HETATM   15  H   UNL     1     -46.022 -54.049  12.596  1.00  0.00     0.168 HD
ENDBRANCH   1   7
BRANCH   4  16
HETATM   16  C   UNL     1     -39.057 -50.105  11.400  1.00  0.00     0.127 C 
BRANCH  16  17
HETATM   17  C   UNL     1     -38.822 -48.746  12.060  1.00  0.00     0.051 C 
BRANCH  17  18
HETATM   18  C   UNL     1     -39.263 -48.664  13.533  1.00  0.00     0.123 C 
HETATM   19  C   UNL     1     -38.665 -47.446  14.245  1.00  0.00     0.032 C 
HETATM   20  C   UNL     1     -37.177 -47.637  14.501  1.00  0.00     0.004 C 
HETATM   21  C   UNL     1     -36.984 -48.889  15.340  1.00  0.00     0.026 C 
HETATM   22  C   UNL     1     -37.679 -50.095  14.716  1.00  0.00     0.168 C 
HETATM   23  O   UNL     1     -39.018 -49.855  14.289  1.00  0.00    -0.386 OA
ENDBRANCH  17  18
ENDBRANCH  16  17
ENDBRANCH   4  16
TORSDOF 4
ENDMDL
MODEL 6
REMARK VINA RESULT:      -5.7      1.574      1.773
REMARK  4 active torsions:
REMARK  status: ('A' for Active; 'I' for Inactive)
REMARK    1  A    between atoms: C_4  and  N_5 
REMARK       I    between atoms: N_5  and  C_6 
REMARK       I    between atoms: C_6  and  N_8 
REMARK    2  A    between atoms: N_8  and  C_9 
REMARK    3  A    between atoms: C_9  and  C_10 
REMARK    4  A    between atoms: C_10  and  C_11 
ROOT
HETATM    1  N   UNL     1     -42.197 -48.848  11.960  1.00  0.00    -0.308 N 
HETATM    2  C   UNL     1     -41.619 -50.099  11.947  1.00  0.00     0.320 C 
HETATM    3  O   UNL     1     -40.472 -50.365  11.629  1.00  0.00    -0.247 OA
HETATM    4  N   UNL     1     -42.502 -51.085  12.346  1.00  0.00    -0.343 N 
HETATM    5  H   UNL     1     -43.091 -48.795  12.429  1.00  0.00     0.170 HD
HETATM    6  H   UNL     1     -43.483 -50.875  12.259  1.00  0.00     0.164 HD
ENDROOT
BRANCH   1   7
HETATM    7  C   UNL     1     -41.660 -47.649  11.527  1.00  0.00     0.052 A 
HETATM    8  C   UNL     1     -40.750 -46.871  12.348  1.00  0.00     0.043 A 
HETATM    9  C   UNL     1     -40.223 -45.702  11.941  1.00  0.00     0.008 A 
HETATM   10  C   UNL     1     -39.295 -44.882  12.775  1.00  0.00     0.054 C 
HETATM   11  C   UNL     1     -40.578 -45.188  10.587  1.00  0.00     0.251 A 
HETATM   12  N   UNL     1     -41.433 -45.981   9.856  1.00  0.00    -0.331 N 
HETATM   13  O   UNL     1     -40.133 -44.133  10.146  1.00  0.00    -0.268 OA
HETATM   14  C   UNL     1     -41.957 -47.169  10.304  1.00  0.00     0.121 A 
HETATM   15  H   UNL     1     -41.665 -45.629   8.935  1.00  0.00     0.168 HD
ENDBRANCH   1   7
BRANCH   4  16
HETATM   16  C   UNL     1     -42.138 -52.486  12.203  1.00  0.00     0.127 C 
BRANCH  16  17
HETATM   17  C   UNL     1     -43.243 -53.470  12.587  1.00  0.00     0.051 C 
BRANCH  17  18
HETATM   18  C   UNL     1     -43.562 -53.519  14.092  1.00  0.00     0.123 C 
HETATM   19  C   UNL     1     -44.184 -54.858  14.505  1.00  0.00     0.032 C 
HETATM   20  C   UNL     1     -45.615 -54.976  14.001  1.00  0.00     0.004 C 
HETATM   21  C   UNL     1     -46.426 -53.821  14.562  1.00  0.00     0.026 C 
HETATM   22  C   UNL     1     -45.762 -52.478  14.274  1.00  0.00     0.168 C 
HETATM   23  O   UNL     1     -44.366 -52.431  14.560  1.00  0.00    -0.386 OA
ENDBRANCH  17  18
ENDBRANCH  16  17
ENDBRANCH   4  16
TORSDOF 4
ENDMDL
MODEL 7
REMARK VINA RESULT:      -5.7      2.191      7.557
REMARK  4 active torsions:
REMARK  status: ('A' for Active; 'I' for Inactive)
REMARK    1  A    between atoms: C_4  and  N_5 
REMARK       I    between atoms: N_5  and  C_6 
REMARK       I    between atoms: C_6  and  N_8 
REMARK    2  A    between atoms: N_8  and  C_9 
REMARK    3  A    between atoms: C_9  and  C_10 
REMARK    4  A    between atoms: C_10  and  C_11 
ROOT
HETATM    1  N   UNL     1     -42.334 -52.351  11.775  1.00  0.00    -0.308 N 
HETATM    2  C   UNL     1     -41.434 -51.385  12.168  1.00  0.00     0.320 C 
HETATM    3  O   UNL     1     -41.183 -51.050  13.314  1.00  0.00    -0.247 OA
HETATM    4  N   UNL     1     -40.805 -50.790  11.091  1.00  0.00    -0.343 N 
HETATM    5  H   UNL     1     -42.272 -52.624  10.803  1.00  0.00     0.170 HD
HETATM    6  H   UNL     1     -41.278 -50.845  10.204  1.00  0.00     0.164 HD
ENDROOT
BRANCH   1   7
HETATM    7  C   UNL     1     -43.215 -53.075  12.559  1.00  0.00     0.052 A 
HETATM    8  C   UNL     1     -42.758 -53.981  13.598  1.00  0.00     0.043 A 
HETATM    9  C   UNL     1     -43.604 -54.693  14.364  1.00  0.00     0.008 A 
HETATM   10  C   UNL     1     -43.154 -55.638  15.428  1.00  0.00     0.054 C 
HETATM   11  C   UNL     1     -45.072 -54.538  14.148  1.00  0.00     0.251 A 
HETATM   12  N   UNL     1     -45.436 -53.653  13.159  1.00  0.00    -0.331 N 
HETATM   13  O   UNL     1     -45.902 -55.149  14.812  1.00  0.00    -0.268 OA
HETATM   14  C   UNL     1     -44.545 -52.944  12.390  1.00  0.00     0.121 A 
HETATM   15  H   UNL     1     -46.434 -53.547  13.022  1.00  0.00     0.168 HD
ENDBRANCH   1   7
BRANCH   4  16
HETATM   16  C   UNL     1     -39.975 -49.613  11.295  1.00  0.00     0.127 C 
BRANCH  16  17
HETATM   17  C   UNL     1     -40.735 -48.286  11.245  1.00  0.00     0.051 C 
BRANCH  17  18
HETATM   18  C   UNL     1     -40.453 -47.342  12.427  1.00  0.00     0.123 C 
HETATM   19  C   UNL     1     -41.574 -47.375  13.471  1.00  0.00     0.032 C 
HETATM   20  C   UNL     1     -42.822 -46.671  12.956  1.00  0.00     0.004 C 
HETATM   21  C   UNL     1     -42.464 -45.236  12.610  1.00  0.00     0.026 C 
HETATM   22  C   UNL     1     -41.265 -45.169  11.669  1.00  0.00     0.168 C 
HETATM   23  O   UNL     1     -40.164 -45.992  12.048  1.00  0.00    -0.386 OA
ENDBRANCH  17  18
ENDBRANCH  16  17
ENDBRANCH   4  16
TORSDOF 4
ENDMDL
MODEL 8
REMARK VINA RESULT:      -5.6      1.665      7.293
REMARK  4 active torsions:
REMARK  status: ('A' for Active; 'I' for Inactive)
REMARK    1  A    between atoms: C_4  and  N_5 
REMARK       I    between atoms: N_5  and  C_6 
REMARK       I    between atoms: C_6  and  N_8 
REMARK    2  A    between atoms: N_8  and  C_9 
REMARK    3  A    between atoms: C_9  and  C_10 
REMARK    4  A    between atoms: C_10  and  C_11 
ROOT
HETATM    1  N   UNL     1     -40.636 -50.597  11.565  1.00  0.00    -0.308 N 
HETATM    2  C   UNL     1     -40.486 -49.301  12.010  1.00  0.00     0.320 C 
HETATM    3  O   UNL     1     -40.602 -48.911  13.160  1.00  0.00    -0.247 OA
HETATM    4  N   UNL     1     -40.179 -48.430  10.982  1.00  0.00    -0.343 N 
HETATM    5  H   UNL     1     -40.319 -50.764  10.619  1.00  0.00     0.170 HD
HETATM    6  H   UNL     1     -40.432 -48.721  10.052  1.00  0.00     0.164 HD
ENDROOT
BRANCH   1   7
HETATM    7  C   UNL     1     -41.044 -51.709  12.279  1.00  0.00     0.052 A 
HETATM    8  C   UNL     1     -42.386 -52.252  12.161  1.00  0.00     0.043 A 
HETATM    9  C   UNL     1     -42.796 -53.331  12.852  1.00  0.00     0.008 A 
HETATM   10  C   UNL     1     -44.174 -53.896  12.753  1.00  0.00     0.054 C 
HETATM   11  C   UNL     1     -41.832 -54.006  13.768  1.00  0.00     0.251 A 
HETATM   12  N   UNL     1     -40.575 -53.450  13.821  1.00  0.00    -0.331 N 
HETATM   13  O   UNL     1     -42.133 -54.997  14.425  1.00  0.00    -0.268 OA
HETATM   14  C   UNL     1     -40.188 -52.343  13.105  1.00  0.00     0.121 A 
HETATM   15  H   UNL     1     -39.923 -53.917  14.440  1.00  0.00     0.168 HD
ENDBRANCH   1   7
BRANCH   4  16
HETATM   16  C   UNL     1     -40.183 -46.995  11.222  1.00  0.00     0.127 C 
BRANCH  16  17
HETATM   17  C   UNL     1     -41.003 -46.187  10.216  1.00  0.00     0.051 C 
BRANCH  17  18
HETATM   18  C   UNL     1     -42.338 -45.650  10.761  1.00  0.00     0.123 C 
HETATM   19  C   UNL     1     -43.126 -46.725  11.516  1.00  0.00     0.032 C 
HETATM   20  C   UNL     1     -43.711 -47.751  10.556  1.00  0.00     0.004 C 
HETATM   21  C   UNL     1     -44.610 -47.033   9.564  1.00  0.00     0.026 C 
HETATM   22  C   UNL     1     -43.887 -45.873   8.888  1.00  0.00     0.168 C 
HETATM   23  O   UNL     1     -43.167 -45.022   9.777  1.00  0.00    -0.386 OA
ENDBRANCH  17  18
ENDBRANCH  16  17
ENDBRANCH   4  16
TORSDOF 4
ENDMDL
MODEL 9
REMARK VINA RESULT:      -5.5      2.346      3.160
REMARK  4 active torsions:
REMARK  status: ('A' for Active; 'I' for Inactive)
REMARK    1  A    between atoms: C_4  and  N_5 
REMARK       I    between atoms: N_5  and  C_6 
REMARK       I    between atoms: C_6  and  N_8 
REMARK    2  A    between atoms: N_8  and  C_9 
REMARK    3  A    between atoms: C_9  and  C_10 
REMARK    4  A    between atoms: C_10  and  C_11 
ROOT
HETATM    1  N   UNL     1     -40.874 -48.045  12.661  1.00  0.00    -0.308 N 
HETATM    2  C   UNL     1     -39.628 -48.634  12.662  1.00  0.00     0.320 C 
HETATM    3  O   UNL     1     -38.839 -48.664  11.733  1.00  0.00    -0.247 OA
HETATM    4  N   UNL     1     -39.333 -49.225  13.876  1.00  0.00    -0.343 N 
HETATM    5  H   UNL     1     -41.306 -47.955  13.570  1.00  0.00     0.170 HD
HETATM    6  H   UNL     1     -40.114 -49.470  14.462  1.00  0.00     0.164 HD
ENDROOT
BRANCH   1   7
HETATM    7  C   UNL     1     -41.546 -47.458  11.603  1.00  0.00     0.052 A 
HETATM    8  C   UNL     1     -42.904 -47.833  11.250  1.00  0.00     0.043 A 
HETATM    9  C   UNL     1     -43.568 -47.272  10.223  1.00  0.00     0.008 A 
HETATM   10  C   UNL     1     -44.959 -47.652   9.836  1.00  0.00     0.054 C 
HETATM   11  C   UNL     1     -42.888 -46.215   9.420  1.00  0.00     0.251 A 
HETATM   12  N   UNL     1     -41.610 -45.898   9.818  1.00  0.00    -0.331 N 
HETATM   13  O   UNL     1     -43.432 -45.656   8.474  1.00  0.00    -0.268 OA
HETATM   14  C   UNL     1     -40.957 -46.493  10.870  1.00  0.00     0.121 A 
HETATM   15  H   UNL     1     -41.156 -45.174   9.273  1.00  0.00     0.168 HD
ENDBRANCH   1   7
BRANCH   4  16
HETATM   16  C   UNL     1     -38.154 -50.067  14.005  1.00  0.00     0.127 C 
BRANCH  16  17
HETATM   17  C   UNL     1     -38.431 -51.566  13.887  1.00  0.00     0.051 C 
BRANCH  17  18
HETATM   18  C   UNL     1     -39.767 -52.021  14.501  1.00  0.00     0.123 C 
HETATM   19  C   UNL     1     -39.716 -53.477  14.977  1.00  0.00     0.032 C 
HETATM   20  C   UNL     1     -39.709 -54.439  13.798  1.00  0.00     0.004 C 
HETATM   21  C   UNL     1     -40.957 -54.198  12.965  1.00  0.00     0.026 C 
HETATM   22  C   UNL     1     -41.101 -52.728  12.583  1.00  0.00     0.168 C 
HETATM   23  O   UNL     1     -40.905 -51.812  13.658  1.00  0.00    -0.386 OA
ENDBRANCH  17  18
ENDBRANCH  16  17
ENDBRANCH   4  16
TORSDOF 4
ENDMDL
