MODEL 1
REMARK VINA RESULT:      -6.6      0.000      0.000
REMARK  4 active torsions:
REMARK  status: ('A' for Active; 'I' for Inactive)
REMARK       I    between atoms: N_5  and  C_13 
REMARK    1  A    between atoms: C_8  and  C_9 
REMARK       I    between atoms: C_13  and  N_15 
REMARK    2  A    between atoms: N_15  and  C_16 
REMARK    3  A    between atoms: C_16  and  C_17 
REMARK    4  A    between atoms: C_17  and  C_18 
ROOT
HETATM    1  C   UNL     1     -43.783 -50.296  13.375  1.00  0.00     0.017 C 
HETATM    2  C   UNL     1     -43.986 -51.329  14.503  1.00  0.00    -0.019 C 
HETATM    3  C   UNL     1     -44.594 -50.615  15.728  1.00  0.00     0.017 C 
HETATM    4  C   UNL     1     -42.598 -51.883  14.937  1.00  0.00     0.137 C 
HETATM    5  N   UNL     1     -41.997 -52.696  13.882  1.00  0.00    -0.334 N 
HETATM    6  C   UNL     1     -42.787 -53.856  13.489  1.00  0.00     0.128 C 
HETATM    7  C   UNL     1     -44.179 -53.435  13.031  1.00  0.00     0.034 C 
HETATM    8  C   UNL     1     -44.887 -52.533  14.065  1.00  0.00     0.104 C 
HETATM    9  C   UNL     1     -40.750 -52.529  13.302  1.00  0.00     0.318 C 
HETATM   10  O   UNL     1     -40.310 -53.289  12.442  1.00  0.00    -0.247 OA
HETATM   11  N   UNL     1     -40.016 -51.457  13.743  1.00  0.00    -0.343 N 
HETATM   12  H   UNL     1     -40.542 -50.662  14.062  1.00  0.00     0.164 HD
ENDROOT
BRANCH  11  13
HETATM   13  C   UNL     1     -38.764 -51.148  13.069  1.00  0.00     0.129 C 
BRANCH  13  14
HETATM   14  C   UNL     1     -38.530 -49.648  12.886  1.00  0.00     0.060 C 
BRANCH  14  15
HETATM   15  C   UNL     1     -39.589 -48.951  12.068  1.00  0.00    -0.041 A 
HETATM   16  C   UNL     1     -39.978 -47.632  12.325  1.00  0.00     0.010 A 
HETATM   17  C   UNL     1     -40.982 -47.045  11.559  1.00  0.00     0.018 A 
HETATM   18  C   UNL     1     -41.567 -47.805  10.557  1.00  0.00     0.087 A 
HETATM   19  N   UNL     1     -41.221 -49.076  10.276  1.00  0.00    -0.375 N 
HETATM   20  C   UNL     1     -40.250 -49.623  11.043  1.00  0.00     0.094 A 
ATOM     21  HN  UNL     1     -41.668 -49.600   9.524  1.00  0.00     0.164 HD
ENDBRANCH  14  15
ENDBRANCH  13  14
ENDBRANCH  11  13
BRANCH   8  22
HETATM   22  C   UNL     1     -46.304 -52.198  13.577  1.00  0.00     0.392 C 
HETATM   23  F   UNL     1     -46.771 -51.021  14.032  1.00  0.00    -0.171 F 
HETATM   24  F   UNL     1     -46.391 -52.168  12.229  1.00  0.00    -0.171 F 
HETATM   25  F   UNL     1     -47.167 -53.154  14.004  1.00  0.00    -0.171 F 
ENDBRANCH   8  22
TORSDOF 4
ENDMDL
MODEL 2
REMARK VINA RESULT:      -6.4      3.730      6.551
REMARK  4 active torsions:
REMARK  status: ('A' for Active; 'I' for Inactive)
REMARK       I    between atoms: N_5  and  C_13 
REMARK    1  A    between atoms: C_8  and  C_9 
REMARK       I    between atoms: C_13  and  N_15 
REMARK    2  A    between atoms: N_15  and  C_16 
REMARK    3  A    between atoms: C_16  and  C_17 
REMARK    4  A    between atoms: C_17  and  C_18 
ROOT
HETATM    1  C   UNL     1     -41.250 -50.081  13.492  1.00  0.00     0.017 C 
HETATM    2  C   UNL     1     -40.373 -50.887  12.512  1.00  0.00    -0.019 C 
HETATM    3  C   UNL     1     -39.818 -49.928  11.437  1.00  0.00     0.017 C 
HETATM    4  C   UNL     1     -41.263 -51.931  11.779  1.00  0.00     0.137 C 
HETATM    5  N   UNL     1     -41.730 -52.969  12.696  1.00  0.00    -0.334 N 
HETATM    6  C   UNL     1     -40.665 -53.729  13.339  1.00  0.00     0.128 C 
HETATM    7  C   UNL     1     -39.724 -52.806  14.104  1.00  0.00     0.034 C 
HETATM    8  C   UNL     1     -39.205 -51.644  13.229  1.00  0.00     0.104 C 
HETATM    9  C   UNL     1     -43.039 -53.349  12.936  1.00  0.00     0.318 C 
HETATM   10  O   UNL     1     -43.337 -54.263  13.702  1.00  0.00    -0.247 OA
HETATM   11  N   UNL     1     -44.007 -52.644  12.265  1.00  0.00    -0.343 N 
HETATM   12  H   UNL     1     -43.784 -51.689  12.042  1.00  0.00     0.164 HD
ENDROOT
BRANCH  11  13
HETATM   13  C   UNL     1     -45.402 -52.900  12.587  1.00  0.00     0.129 C 
BRANCH  13  14
HETATM   14  C   UNL     1     -46.165 -51.645  13.015  1.00  0.00     0.060 C 
BRANCH  14  15
HETATM   15  C   UNL     1     -46.103 -51.359  14.496  1.00  0.00    -0.041 A 
HETATM   16  C   UNL     1     -47.211 -51.534  15.332  1.00  0.00     0.010 A 
HETATM   17  C   UNL     1     -47.110 -51.226  16.687  1.00  0.00     0.018 A 
HETATM   18  C   UNL     1     -45.896 -50.751  17.159  1.00  0.00     0.087 A 
HETATM   19  N   UNL     1     -44.806 -50.570  16.388  1.00  0.00    -0.375 N 
HETATM   20  C   UNL     1     -44.937 -50.867  15.075  1.00  0.00     0.094 A 
ATOM     21  HN  UNL     1     -43.927 -50.226  16.774  1.00  0.00     0.164 HD
ENDBRANCH  14  15
ENDBRANCH  13  14
ENDBRANCH  11  13
BRANCH   8  22
HETATM   22  C   UNL     1     -38.215 -50.791  14.034  1.00  0.00     0.392 C 
HETATM   23  F   UNL     1     -38.522 -49.481  14.060  1.00  0.00    -0.171 F 
HETATM   24  F   UNL     1     -38.106 -51.200  15.317  1.00  0.00    -0.171 F 
HETATM   25  F   UNL     1     -36.979 -50.892  13.484  1.00  0.00    -0.171 F 
ENDBRANCH   8  22
TORSDOF 4
ENDMDL
MODEL 3
REMARK VINA RESULT:      -6.4      3.853      7.081
REMARK  4 active torsions:
REMARK  status: ('A' for Active; 'I' for Inactive)
REMARK       I    between atoms: N_5  and  C_13 
REMARK    1  A    between atoms: C_8  and  C_9 
REMARK       I    between atoms: C_13  and  N_15 
REMARK    2  A    between atoms: N_15  and  C_16 
REMARK    3  A    between atoms: C_16  and  C_17 
REMARK    4  A    between atoms: C_17  and  C_18 
ROOT
HETATM    1  C   UNL     1     -43.124 -47.074  11.948  1.00  0.00     0.017 C 
HETATM    2  C   UNL     1     -42.175 -47.074  10.731  1.00  0.00    -0.019 C 
HETATM    3  C   UNL     1     -42.951 -46.569   9.495  1.00  0.00     0.017 C 
HETATM    4  C   UNL     1     -41.736 -48.535  10.431  1.00  0.00     0.137 C 
HETATM    5  N   UNL     1     -40.874 -49.059  11.490  1.00  0.00    -0.334 N 
HETATM    6  C   UNL     1     -39.646 -48.303  11.697  1.00  0.00     0.128 C 
HETATM    7  C   UNL     1     -39.950 -46.844  12.009  1.00  0.00     0.034 C 
HETATM    8  C   UNL     1     -40.893 -46.206  10.965  1.00  0.00     0.104 C 
HETATM    9  C   UNL     1     -41.063 -50.214  12.229  1.00  0.00     0.318 C 
HETATM   10  O   UNL     1     -40.261 -50.598  13.080  1.00  0.00    -0.247 OA
HETATM   11  N   UNL     1     -42.206 -50.925  11.961  1.00  0.00    -0.343 N 
HETATM   12  H   UNL     1     -42.994 -50.390  11.639  1.00  0.00     0.164 HD
ENDROOT
BRANCH  11  13
HETATM   13  C   UNL     1     -42.528 -52.066  12.805  1.00  0.00     0.129 C 
BRANCH  13  14
HETATM   14  C   UNL     1     -43.715 -52.883  12.292  1.00  0.00     0.060 C 
BRANCH  14  15
HETATM   15  C   UNL     1     -44.944 -52.804  13.163  1.00  0.00    -0.041 A 
HETATM   16  C   UNL     1     -45.477 -51.583  13.586  1.00  0.00     0.010 A 
HETATM   17  C   UNL     1     -46.597 -51.566  14.415  1.00  0.00     0.018 A 
HETATM   18  C   UNL     1     -47.145 -52.782  14.794  1.00  0.00     0.087 A 
HETATM   19  N   UNL     1     -46.664 -53.979  14.408  1.00  0.00    -0.375 N 
HETATM   20  C   UNL     1     -45.571 -53.964  13.612  1.00  0.00     0.094 A 
ATOM     21  HN  UNL     1     -47.101 -54.852  14.701  1.00  0.00     0.164 HD
ENDBRANCH  14  15
ENDBRANCH  13  14
ENDBRANCH  11  13
BRANCH   8  22
HETATM   22  C   UNL     1     -41.108 -44.723  11.298  1.00  0.00     0.392 C 
HETATM   23  F   UNL     1     -42.229 -44.204  10.765  1.00  0.00    -0.171 F 
HETATM   24  F   UNL     1     -41.157 -44.495  12.629  1.00  0.00    -0.171 F 
HETATM   25  F   UNL     1     -40.071 -43.995  10.813  1.00  0.00    -0.171 F 
ENDBRANCH   8  22
TORSDOF 4
ENDMDL
MODEL 4
REMARK VINA RESULT:      -6.3      2.364      3.217
REMARK  4 active torsions:
REMARK  status: ('A' for Active; 'I' for Inactive)
REMARK       I    between atoms: N_5  and  C_13 
REMARK    1  A    between atoms: C_8  and  C_9 
REMARK       I    between atoms: C_13  and  N_15 
REMARK    2  A    between atoms: N_15  and  C_16 
REMARK    3  A    between atoms: C_16  and  C_17 
REMARK    4  A    between atoms: C_17  and  C_18 
ROOT
HETATM    1  C   UNL     1     -46.386 -51.576  13.226  1.00  0.00     0.017 C 
HETATM    2  C   UNL     1     -45.707 -51.697  14.606  1.00  0.00    -0.019 C 
HETATM    3  C   UNL     1     -46.705 -51.246  15.694  1.00  0.00     0.017 C 
HETATM    4  C   UNL     1     -44.496 -50.721  14.661  1.00  0.00     0.137 C 
HETATM    5  N   UNL     1     -43.429 -51.145  13.757  1.00  0.00    -0.334 N 
HETATM    6  C   UNL     1     -42.891 -52.470  14.038  1.00  0.00     0.128 C 
HETATM    7  C   UNL     1     -43.992 -53.523  14.003  1.00  0.00     0.034 C 
HETATM    8  C   UNL     1     -45.191 -53.147  14.900  1.00  0.00     0.104 C 
HETATM    9  C   UNL     1     -42.839 -50.401  12.750  1.00  0.00     0.318 C 
HETATM   10  O   UNL     1     -41.917 -50.830  12.059  1.00  0.00    -0.247 OA
HETATM   11  N   UNL     1     -43.339 -49.137  12.557  1.00  0.00    -0.343 N 
HETATM   12  H   UNL     1     -44.309 -49.006  12.789  1.00  0.00     0.164 HD
ENDROOT
BRANCH  11  13
HETATM   13  C   UNL     1     -42.858 -48.365  11.422  1.00  0.00     0.129 C 
BRANCH  13  14
HETATM   14  C   UNL     1     -43.087 -46.860  11.573  1.00  0.00     0.060 C 
BRANCH  14  15
HETATM   15  C   UNL     1     -41.891 -46.013  11.213  1.00  0.00    -0.041 A 
HETATM   16  C   UNL     1     -41.877 -44.628  11.409  1.00  0.00     0.010 A 
HETATM   17  C   UNL     1     -40.759 -43.888  11.032  1.00  0.00     0.018 A 
HETATM   18  C   UNL     1     -39.688 -44.565  10.470  1.00  0.00     0.087 A 
HETATM   19  N   UNL     1     -39.661 -45.896  10.266  1.00  0.00    -0.375 N 
HETATM   20  C   UNL     1     -40.764 -46.587  10.632  1.00  0.00     0.094 A 
ATOM     21  HN  UNL     1     -38.850 -46.360   9.857  1.00  0.00     0.164 HD
ENDBRANCH  14  15
ENDBRANCH  13  14
ENDBRANCH  11  13
BRANCH   8  22
HETATM   22  C   UNL     1     -46.233 -54.273  14.873  1.00  0.00     0.392 C 
HETATM   23  F   UNL     1     -46.451 -54.840  16.074  1.00  0.00    -0.171 F 
HETATM   24  F   UNL     1     -47.430 -53.857  14.405  1.00  0.00    -0.171 F 
HETATM   25  F   UNL     1     -45.810 -55.261  14.045  1.00  0.00    -0.171 F 
ENDBRANCH   8  22
TORSDOF 4
ENDMDL
MODEL 5
REMARK VINA RESULT:      -6.3      1.752      2.574
REMARK  4 active torsions:
REMARK  status: ('A' for Active; 'I' for Inactive)
REMARK       I    between atoms: N_5  and  C_13 
REMARK    1  A    between atoms: C_8  and  C_9 
REMARK       I    between atoms: C_13  and  N_15 
REMARK    2  A    between atoms: N_15  and  C_16 
REMARK    3  A    between atoms: C_16  and  C_17 
REMARK    4  A    between atoms: C_17  and  C_18 
ROOT
HETATM    1  C   UNL     1     -43.661 -51.822  15.861  1.00  0.00     0.017 C 
HETATM    2  C   UNL     1     -44.458 -53.073  15.439  1.00  0.00    -0.019 C 
HETATM    3  C   UNL     1     -45.088 -53.709  16.697  1.00  0.00     0.017 C 
HETATM    4  C   UNL     1     -43.477 -54.119  14.838  1.00  0.00     0.137 C 
HETATM    5  N   UNL     1     -42.928 -53.663  13.563  1.00  0.00    -0.334 N 
HETATM    6  C   UNL     1     -43.927 -53.409  12.532  1.00  0.00     0.128 C 
HETATM    7  C   UNL     1     -44.949 -52.383  13.006  1.00  0.00     0.034 C 
HETATM    8  C   UNL     1     -45.562 -52.755  14.374  1.00  0.00     0.104 C 
HETATM    9  C   UNL     1     -41.592 -53.537  13.221  1.00  0.00     0.318 C 
HETATM   10  O   UNL     1     -41.222 -53.178  12.105  1.00  0.00    -0.247 OA
HETATM   11  N   UNL     1     -40.685 -53.841  14.205  1.00  0.00    -0.343 N 
HETATM   12  H   UNL     1     -40.989 -53.683  15.151  1.00  0.00     0.164 HD
ENDROOT
BRANCH  11  13
HETATM   13  C   UNL     1     -39.275 -53.589  13.952  1.00  0.00     0.129 C 
BRANCH  13  14
HETATM   14  C   UNL     1     -38.779 -52.271  14.548  1.00  0.00     0.060 C 
BRANCH  14  15
HETATM   15  C   UNL     1     -38.744 -51.123  13.568  1.00  0.00    -0.041 A 
HETATM   16  C   UNL     1     -37.630 -50.869  12.762  1.00  0.00     0.010 A 
HETATM   17  C   UNL     1     -37.638 -49.778  11.896  1.00  0.00     0.018 A 
HETATM   18  C   UNL     1     -38.768 -48.975  11.868  1.00  0.00     0.087 A 
HETATM   19  N   UNL     1     -39.861 -49.186  12.627  1.00  0.00    -0.375 N 
HETATM   20  C   UNL     1     -39.820 -50.246  13.465  1.00  0.00     0.094 A 
ATOM     21  HN  UNL     1     -40.677 -48.577  12.572  1.00  0.00     0.164 HD
ENDBRANCH  14  15
ENDBRANCH  13  14
ENDBRANCH  11  13
BRANCH   8  22
HETATM   22  C   UNL     1     -46.627 -51.721  14.764  1.00  0.00     0.392 C 
HETATM   23  F   UNL     1     -47.689 -52.249  15.400  1.00  0.00    -0.171 F 
HETATM   24  F   UNL     1     -46.132 -50.745  15.556  1.00  0.00    -0.171 F 
HETATM   25  F   UNL     1     -47.101 -51.116  13.646  1.00  0.00    -0.171 F 
ENDBRANCH   8  22
TORSDOF 4
ENDMDL
MODEL 6
REMARK VINA RESULT:      -6.2      1.344      1.745
REMARK  4 active torsions:
REMARK  status: ('A' for Active; 'I' for Inactive)
REMARK       I    between atoms: N_5  and  C_13 
REMARK    1  A    between atoms: C_8  and  C_9 
REMARK       I    between atoms: C_13  and  N_15 
REMARK    2  A    between atoms: N_15  and  C_16 
REMARK    3  A    between atoms: C_16  and  C_17 
REMARK    4  A    between atoms: C_17  and  C_18 
ROOT
HETATM    1  C   UNL     1     -44.766 -51.664  13.279  1.00  0.00     0.017 C 
HETATM    2  C   UNL     1     -44.286 -52.206  14.641  1.00  0.00    -0.019 C 
HETATM    3  C   UNL     1     -45.023 -51.448  15.766  1.00  0.00     0.017 C 
HETATM    4  C   UNL     1     -42.769 -51.901  14.800  1.00  0.00     0.137 C 
HETATM    5  N   UNL     1     -41.968 -52.682  13.860  1.00  0.00    -0.334 N 
HETATM    6  C   UNL     1     -42.105 -54.126  14.005  1.00  0.00     0.128 C 
HETATM    7  C   UNL     1     -43.561 -54.551  13.859  1.00  0.00     0.034 C 
HETATM    8  C   UNL     1     -44.501 -53.751  14.786  1.00  0.00     0.104 C 
HETATM    9  C   UNL     1     -41.054 -52.203  12.936  1.00  0.00     0.318 C 
HETATM   10  O   UNL     1     -40.395 -52.943  12.208  1.00  0.00    -0.247 OA
HETATM   11  N   UNL     1     -40.915 -50.839  12.873  1.00  0.00    -0.343 N 
HETATM   12  H   UNL     1     -41.730 -50.300  13.114  1.00  0.00     0.164 HD
ENDROOT
BRANCH  11  13
HETATM   13  C   UNL     1     -40.080 -50.274  11.825  1.00  0.00     0.129 C 
BRANCH  13  14
HETATM   14  C   UNL     1     -39.660 -48.829  12.098  1.00  0.00     0.060 C 
BRANCH  14  15
HETATM   15  C   UNL     1     -40.444 -47.798  11.323  1.00  0.00    -0.041 A 
HETATM   16  C   UNL     1     -40.121 -46.438  11.360  1.00  0.00     0.010 A 
HETATM   17  C   UNL     1     -40.895 -45.524  10.650  1.00  0.00     0.018 A 
HETATM   18  C   UNL     1     -41.973 -46.007   9.923  1.00  0.00     0.087 A 
HETATM   19  N   UNL     1     -42.316 -47.308   9.860  1.00  0.00    -0.375 N 
HETATM   20  C   UNL     1     -41.553 -48.171  10.568  1.00  0.00     0.094 A 
ATOM     21  HN  UNL     1     -43.112 -47.627   9.307  1.00  0.00     0.164 HD
ENDBRANCH  14  15
ENDBRANCH  13  14
ENDBRANCH  11  13
BRANCH   8  22
HETATM   22  C   UNL     1     -45.938 -54.269  14.641  1.00  0.00     0.392 C 
HETATM   23  F   UNL     1     -46.778 -53.387  14.068  1.00  0.00    -0.171 F 
HETATM   24  F   UNL     1     -46.004 -55.409  13.919  1.00  0.00    -0.171 F 
HETATM   25  F   UNL     1     -46.444 -54.550  15.867  1.00  0.00    -0.171 F 
ENDBRANCH   8  22
TORSDOF 4
ENDMDL
MODEL 7
REMARK VINA RESULT:      -6.0      1.667      2.738
REMARK  4 active torsions:
REMARK  status: ('A' for Active; 'I' for Inactive)
REMARK       I    between atoms: N_5  and  C_13 
REMARK    1  A    between atoms: C_8  and  C_9 
REMARK       I    between atoms: C_13  and  N_15 
REMARK    2  A    between atoms: N_15  and  C_16 
REMARK    3  A    between atoms: C_16  and  C_17 
REMARK    4  A    between atoms: C_17  and  C_18 
ROOT
HETATM    1  C   UNL     1     -45.757 -51.412  13.360  1.00  0.00     0.017 C 
HETATM    2  C   UNL     1     -45.028 -51.874  14.639  1.00  0.00    -0.019 C 
HETATM    3  C   UNL     1     -45.761 -51.293  15.867  1.00  0.00     0.017 C 
HETATM    4  C   UNL     1     -43.589 -51.284  14.642  1.00  0.00     0.137 C 
HETATM    5  N   UNL     1     -42.767 -51.879  13.589  1.00  0.00    -0.334 N 
HETATM    6  C   UNL     1     -42.610 -53.324  13.692  1.00  0.00     0.128 C 
HETATM    7  C   UNL     1     -43.965 -54.021  13.691  1.00  0.00     0.034 C 
HETATM    8  C   UNL     1     -44.926 -53.434  14.747  1.00  0.00     0.104 C 
HETATM    9  C   UNL     1     -42.075 -51.217  12.590  1.00  0.00     0.318 C 
HETATM   10  O   UNL     1     -41.376 -51.802  11.765  1.00  0.00    -0.247 OA
HETATM   11  N   UNL     1     -42.206 -49.851  12.566  1.00  0.00    -0.343 N 
HETATM   12  H   UNL     1     -43.075 -49.484  12.916  1.00  0.00     0.164 HD
ENDROOT
BRANCH  11  13
HETATM   13  C   UNL     1     -41.621 -49.116  11.454  1.00  0.00     0.129 C 
BRANCH  13  14
HETATM   14  C   UNL     1     -40.342 -48.367  11.831  1.00  0.00     0.060 C 
BRANCH  14  15
HETATM   15  C   UNL     1     -39.193 -49.262  12.224  1.00  0.00    -0.041 A 
HETATM   16  C   UNL     1     -38.798 -49.420  13.557  1.00  0.00     0.010 A 
HETATM   17  C   UNL     1     -37.712 -50.236  13.864  1.00  0.00     0.018 A 
HETATM   18  C   UNL     1     -37.054 -50.867  12.820  1.00  0.00     0.087 A 
HETATM   19  N   UNL     1     -37.403 -50.743  11.525  1.00  0.00    -0.375 N 
HETATM   20  C   UNL     1     -38.455 -49.937  11.256  1.00  0.00     0.094 A 
ATOM     21  HN  UNL     1     -36.899 -51.231  10.785  1.00  0.00     0.164 HD
ENDBRANCH  14  15
ENDBRANCH  13  14
ENDBRANCH  11  13
BRANCH   8  22
HETATM   22  C   UNL     1     -46.246 -54.218  14.740  1.00  0.00     0.392 C 
HETATM   23  F   UNL     1     -47.302 -53.500  14.317  1.00  0.00    -0.171 F 
HETATM   24  F   UNL     1     -46.183 -55.326  13.970  1.00  0.00    -0.171 F 
HETATM   25  F   UNL     1     -46.533 -54.631  16.000  1.00  0.00    -0.171 F 
ENDBRANCH   8  22
TORSDOF 4
ENDMDL
MODEL 8
REMARK VINA RESULT:      -6.0      2.806      5.474
REMARK  4 active torsions:
REMARK  status: ('A' for Active; 'I' for Inactive)
REMARK       I    between atoms: N_5  and  C_13 
REMARK    1  A    between atoms: C_8  and  C_9 
REMARK       I    between atoms: C_13  and  N_15 
REMARK    2  A    between atoms: N_15  and  C_16 
REMARK    3  A    between atoms: C_16  and  C_17 
REMARK    4  A    between atoms: C_17  and  C_18 
ROOT
HETATM    1  C   UNL     1     -44.040 -53.615  15.537  1.00  0.00     0.017 C 
HETATM    2  C   UNL     1     -44.466 -53.665  14.055  1.00  0.00    -0.019 C 
HETATM    3  C   UNL     1     -45.478 -54.816  13.867  1.00  0.00     0.017 C 
HETATM    4  C   UNL     1     -43.223 -54.000  13.182  1.00  0.00     0.137 C 
HETATM    5  N   UNL     1     -42.258 -52.902  13.186  1.00  0.00    -0.334 N 
HETATM    6  C   UNL     1     -42.780 -51.640  12.676  1.00  0.00     0.128 C 
HETATM    7  C   UNL     1     -44.006 -51.199  13.464  1.00  0.00     0.034 C 
HETATM    8  C   UNL     1     -45.075 -52.311  13.555  1.00  0.00     0.104 C 
HETATM    9  C   UNL     1     -40.919 -52.963  13.531  1.00  0.00     0.318 C 
HETATM   10  O   UNL     1     -40.171 -51.989  13.468  1.00  0.00    -0.247 OA
HETATM   11  N   UNL     1     -40.457 -54.185  13.951  1.00  0.00    -0.343 N 
HETATM   12  H   UNL     1     -41.130 -54.780  14.405  1.00  0.00     0.164 HD
ENDROOT
BRANCH  11  13
HETATM   13  C   UNL     1     -39.098 -54.276  14.464  1.00  0.00     0.129 C 
BRANCH  13  14
HETATM   14  C   UNL     1     -38.949 -55.275  15.612  1.00  0.00     0.060 C 
BRANCH  14  15
HETATM   15  C   UNL     1     -40.089 -55.257  16.601  1.00  0.00    -0.041 A 
HETATM   16  C   UNL     1     -41.032 -56.288  16.666  1.00  0.00     0.010 A 
HETATM   17  C   UNL     1     -42.082 -56.208  17.577  1.00  0.00     0.018 A 
HETATM   18  C   UNL     1     -42.153 -55.091  18.395  1.00  0.00     0.087 A 
HETATM   19  N   UNL     1     -41.266 -54.078  18.364  1.00  0.00    -0.375 N 
HETATM   20  C   UNL     1     -40.263 -54.178  17.463  1.00  0.00     0.094 A 
ATOM     21  HN  UNL     1     -41.346 -53.275  18.989  1.00  0.00     0.164 HD
ENDBRANCH  14  15
ENDBRANCH  13  14
ENDBRANCH  11  13
BRANCH   8  22
HETATM   22  C   UNL     1     -46.308 -51.786  14.302  1.00  0.00     0.392 C 
HETATM   23  F   UNL     1     -47.079 -52.756  14.827  1.00  0.00    -0.171 F 
HETATM   24  F   UNL     1     -45.982 -50.947  15.310  1.00  0.00    -0.171 F 
HETATM   25  F   UNL     1     -47.091 -51.084  13.445  1.00  0.00    -0.171 F 
ENDBRANCH   8  22
TORSDOF 4
ENDMDL
MODEL 9
REMARK VINA RESULT:      -6.0      2.432      3.527
REMARK  4 active torsions:
REMARK  status: ('A' for Active; 'I' for Inactive)
REMARK       I    between atoms: N_5  and  C_13 
REMARK    1  A    between atoms: C_8  and  C_9 
REMARK       I    between atoms: C_13  and  N_15 
REMARK    2  A    between atoms: N_15  and  C_16 
REMARK    3  A    between atoms: C_16  and  C_17 
REMARK    4  A    between atoms: C_17  and  C_18 
ROOT
HETATM    1  C   UNL     1     -44.247 -52.163  16.781  1.00  0.00     0.017 C 
HETATM    2  C   UNL     1     -45.373 -53.154  16.420  1.00  0.00    -0.019 C 
HETATM    3  C   UNL     1     -45.702 -54.009  17.663  1.00  0.00     0.017 C 
HETATM    4  C   UNL     1     -44.858 -54.125  15.319  1.00  0.00     0.137 C 
HETATM    5  N   UNL     1     -44.646 -53.428  14.052  1.00  0.00    -0.334 N 
HETATM    6  C   UNL     1     -45.839 -52.795  13.504  1.00  0.00     0.128 C 
HETATM    7  C   UNL     1     -46.435 -51.806  14.498  1.00  0.00     0.034 C 
HETATM    8  C   UNL     1     -46.661 -52.438  15.889  1.00  0.00     0.104 C 
HETATM    9  C   UNL     1     -43.483 -53.387  13.302  1.00  0.00     0.318 C 
HETATM   10  O   UNL     1     -43.407 -52.801  12.223  1.00  0.00    -0.247 OA
HETATM   11  N   UNL     1     -42.399 -54.044  13.828  1.00  0.00    -0.343 N 
HETATM   12  H   UNL     1     -42.359 -54.098  14.832  1.00  0.00     0.164 HD
ENDROOT
BRANCH  11  13
HETATM   13  C   UNL     1     -41.114 -53.914  13.158  1.00  0.00     0.129 C 
BRANCH  13  14
HETATM   14  C   UNL     1     -40.113 -53.054  13.931  1.00  0.00     0.060 C 
BRANCH  14  15
HETATM   15  C   UNL     1     -39.518 -51.923  13.128  1.00  0.00    -0.041 A 
HETATM   16  C   UNL     1     -38.247 -51.408  13.400  1.00  0.00     0.010 A 
HETATM   17  C   UNL     1     -37.757 -50.343  12.648  1.00  0.00     0.018 A 
HETATM   18  C   UNL     1     -38.563 -49.827  11.645  1.00  0.00     0.087 A 
HETATM   19  N   UNL     1     -39.791 -50.295  11.350  1.00  0.00    -0.375 N 
HETATM   20  C   UNL     1     -40.244 -51.322  12.103  1.00  0.00     0.094 A 
ATOM     21  HN  UNL     1     -40.351 -49.895  10.598  1.00  0.00     0.164 HD
ENDBRANCH  14  15
ENDBRANCH  13  14
ENDBRANCH  11  13
BRANCH   8  22
HETATM   22  C   UNL     1     -47.321 -51.415  16.823  1.00  0.00     0.392 C 
HETATM   23  F   UNL     1     -47.687 -51.923  18.014  1.00  0.00    -0.171 F 
HETATM   24  F   UNL     1     -46.523 -50.353  17.071  1.00  0.00    -0.171 F 
HETATM   25  F   UNL     1     -48.447 -50.932  16.241  1.00  0.00    -0.171 F 
ENDBRANCH   8  22
TORSDOF 4
ENDMDL
