MODEL 1
REMARK VINA RESULT:      -7.2      0.000      0.000
REMARK  6 active torsions:
REMARK  status: ('A' for Active; 'I' for Inactive)
REMARK    1  A    between atoms: O_2  and  C_3 
REMARK    2  A    between atoms: C_3  and  C_4 
REMARK    3  A    between atoms: C_4  and  N_5 
REMARK    4  A    between atoms: C_6  and  N_7 
REMARK    5  A    between atoms: N_7  and  N_8 
REMARK    6  A    between atoms: C_10  and  C_11 
ROOT
HETATM    1  N   UNL     1     -40.275 -48.657  11.969  1.00  0.00    -0.171 N 
HETATM    2  C   UNL     1     -40.858 -49.515  11.047  1.00  0.00     0.701 A 
HETATM    3  N   UNL     1     -41.683 -48.842  10.259  1.00  0.00    -0.172 N 
ATOM      4  HN  UNL     1     -42.273 -49.222   9.518  1.00  0.00     0.186 HD
HETATM    5  C   UNL     1     -41.583 -47.544  10.639  1.00  0.00     0.160 A 
HETATM    6  N   UNL     1     -42.275 -46.471  10.117  1.00  0.00    -0.287 N 
HETATM    7  C   UNL     1     -43.189 -46.603   9.003  1.00  0.00     0.163 C 
HETATM    8  C   UNL     1     -42.107 -45.218  10.696  1.00  0.00     0.330 C 
HETATM    9  O   UNL     1     -42.703 -44.207  10.325  1.00  0.00    -0.246 OA
HETATM   10  N   UNL     1     -41.211 -45.120  11.741  1.00  0.00    -0.273 N 
HETATM   11  C   UNL     1     -40.394 -46.115  12.220  1.00  0.00     0.280 C 
HETATM   12  O   UNL     1     -39.518 -45.894  13.048  1.00  0.00    -0.265 OA
HETATM   13  C   UNL     1     -40.689 -47.386  11.656  1.00  0.00     0.164 A 
HETATM   14  H   UNL     1     -41.076 -44.197  12.121  1.00  0.00     0.173 HD
ENDROOT
BRANCH   2  15
HETATM   15  N   UNL     1     -40.592 -50.849  11.027  1.00  0.00    -0.132 N 
HETATM   16  H   UNL     1     -39.679 -51.183  10.738  1.00  0.00     0.205 HD
BRANCH  15  17
HETATM   17  N   UNL     1     -41.532 -51.770  11.390  1.00  0.00    -0.297 N 
HETATM   18  C   UNL     1     -41.441 -52.247  12.591  1.00  0.00     0.119 C 
ATOM     19  HN  UNL     1     -42.268 -52.066  10.749  1.00  0.00     0.186 HD
BRANCH  18  20
HETATM   20  C   UNL     1     -42.436 -53.207  13.120  1.00  0.00    -0.019 A 
HETATM   21  C   UNL     1     -43.711 -53.295  12.553  1.00  0.00     0.013 A 
HETATM   22  C   UNL     1     -44.650 -54.182  13.080  1.00  0.00     0.001 A 
HETATM   23  C   UNL     1     -44.318 -54.986  14.170  1.00  0.00     0.000 A 
HETATM   24  C   UNL     1     -43.045 -54.902  14.737  1.00  0.00     0.001 A 
HETATM   25  C   UNL     1     -42.101 -54.013  14.215  1.00  0.00     0.013 A 
ENDBRANCH  18  20
ENDBRANCH  15  17
ENDBRANCH   2  15
BRANCH   1  26
HETATM   26  C   UNL     1     -39.501 -49.007  13.147  1.00  0.00     0.174 C 
BRANCH  26  27
HETATM   27  C   UNL     1     -38.002 -49.109  12.864  1.00  0.00     0.187 C 
BRANCH  27  28
HETATM   28  O   UNL     1     -37.722 -50.334  12.183  1.00  0.00    -0.394 OA
HETATM   29  C   UNL     1     -37.130 -50.084  10.911  1.00  0.00     0.201 C 
ENDBRANCH  27  28
ENDBRANCH  26  27
ENDBRANCH   1  26
TORSDOF 6
ENDMDL
MODEL 2
REMARK VINA RESULT:      -7.0      3.173      7.256
REMARK  6 active torsions:
REMARK  status: ('A' for Active; 'I' for Inactive)
REMARK    1  A    between atoms: O_2  and  C_3 
REMARK    2  A    between atoms: C_3  and  C_4 
REMARK    3  A    between atoms: C_4  and  N_5 
REMARK    4  A    between atoms: C_6  and  N_7 
REMARK    5  A    between atoms: N_7  and  N_8 
REMARK    6  A    between atoms: C_10  and  C_11 
ROOT
HETATM    1  N   UNL     1     -41.383 -53.566  13.136  1.00  0.00    -0.171 N 
HETATM    2  C   UNL     1     -41.649 -52.630  12.147  1.00  0.00     0.701 A 
HETATM    3  N   UNL     1     -42.957 -52.462  12.020  1.00  0.00    -0.172 N 
ATOM      4  HN  UNL     1     -43.437 -51.864  11.347  1.00  0.00     0.186 HD
HETATM    5  C   UNL     1     -43.525 -53.248  12.968  1.00  0.00     0.160 A 
HETATM    6  N   UNL     1     -44.874 -53.419  13.204  1.00  0.00    -0.287 N 
HETATM    7  C   UNL     1     -45.889 -52.694  12.472  1.00  0.00     0.163 C 
HETATM    8  C   UNL     1     -45.275 -54.339  14.165  1.00  0.00     0.330 C 
HETATM    9  O   UNL     1     -46.453 -54.588  14.426  1.00  0.00    -0.246 OA
HETATM   10  N   UNL     1     -44.283 -54.997  14.864  1.00  0.00    -0.273 N 
HETATM   11  C   UNL     1     -42.930 -54.778  14.774  1.00  0.00     0.280 C 
HETATM   12  O   UNL     1     -42.134 -55.300  15.546  1.00  0.00    -0.265 OA
HETATM   13  C   UNL     1     -42.586 -53.904  13.706  1.00  0.00     0.164 A 
HETATM   14  H   UNL     1     -44.594 -55.631  15.581  1.00  0.00     0.173 HD
ENDROOT
BRANCH   2  15
HETATM   15  N   UNL     1     -40.660 -52.026  11.435  1.00  0.00    -0.132 N 
HETATM   16  H   UNL     1     -39.778 -52.504  11.277  1.00  0.00     0.205 HD
BRANCH  15  17
HETATM   17  N   UNL     1     -40.818 -50.774  10.914  1.00  0.00    -0.297 N 
HETATM   18  C   UNL     1     -40.793 -49.789  11.756  1.00  0.00     0.119 C 
ATOM     19  HN  UNL     1     -40.949 -50.622   9.914  1.00  0.00     0.186 HD
BRANCH  18  20
HETATM   20  C   UNL     1     -40.894 -48.383  11.304  1.00  0.00    -0.019 A 
HETATM   21  C   UNL     1     -39.861 -47.477  11.562  1.00  0.00     0.013 A 
HETATM   22  C   UNL     1     -39.983 -46.147  11.158  1.00  0.00     0.001 A 
HETATM   23  C   UNL     1     -41.132 -45.719  10.493  1.00  0.00     0.000 A 
HETATM   24  C   UNL     1     -42.165 -46.623  10.234  1.00  0.00     0.001 A 
HETATM   25  C   UNL     1     -42.050 -47.955  10.638  1.00  0.00     0.013 A 
ENDBRANCH  18  20
ENDBRANCH  15  17
ENDBRANCH   2  15
BRANCH   1  26
HETATM   26  C   UNL     1     -40.117 -54.211  13.437  1.00  0.00     0.174 C 
BRANCH  26  27
HETATM   27  C   UNL     1     -39.211 -53.356  14.324  1.00  0.00     0.187 C 
BRANCH  27  28
HETATM   28  O   UNL     1     -38.462 -52.448  13.515  1.00  0.00    -0.394 OA
HETATM   29  C   UNL     1     -38.329 -51.184  14.159  1.00  0.00     0.201 C 
ENDBRANCH  27  28
ENDBRANCH  26  27
ENDBRANCH   1  26
TORSDOF 6
ENDMDL
MODEL 3
REMARK VINA RESULT:      -6.4      3.647      8.295
REMARK  6 active torsions:
REMARK  status: ('A' for Active; 'I' for Inactive)
REMARK    1  A    between atoms: O_2  and  C_3 
REMARK    2  A    between atoms: C_3  and  C_4 
REMARK    3  A    between atoms: C_4  and  N_5 
REMARK    4  A    between atoms: C_6  and  N_7 
REMARK    5  A    between atoms: N_7  and  N_8 
REMARK    6  A    between atoms: C_10  and  C_11 
ROOT
HETATM    1  N   UNL     1     -42.595 -53.576  12.959  1.00  0.00    -0.171 N 
HETATM    2  C   UNL     1     -41.381 -53.159  12.431  1.00  0.00     0.701 A 
HETATM    3  N   UNL     1     -40.388 -53.536  13.223  1.00  0.00    -0.172 N 
ATOM      4  HN  UNL     1     -39.395 -53.334  13.102  1.00  0.00     0.186 HD
HETATM    5  C   UNL     1     -40.962 -54.244  14.227  1.00  0.00     0.160 A 
HETATM    6  N   UNL     1     -40.324 -54.820  15.306  1.00  0.00    -0.287 N 
HETATM    7  C   UNL     1     -38.887 -54.788  15.467  1.00  0.00     0.163 C 
HETATM    8  C   UNL     1     -41.091 -55.434  16.290  1.00  0.00     0.330 C 
HETATM    9  O   UNL     1     -40.619 -55.947  17.305  1.00  0.00    -0.246 OA
HETATM   10  N   UNL     1     -42.457 -55.469  16.096  1.00  0.00    -0.273 N 
HETATM   11  C   UNL     1     -43.142 -55.037  14.986  1.00  0.00     0.280 C 
HETATM   12  O   UNL     1     -44.339 -55.251  14.837  1.00  0.00    -0.265 OA
HETATM   13  C   UNL     1     -42.314 -54.331  14.072  1.00  0.00     0.164 A 
HETATM   14  H   UNL     1     -42.990 -55.952  16.800  1.00  0.00     0.173 HD
ENDROOT
BRANCH   2  15
HETATM   15  N   UNL     1     -41.298 -52.451  11.273  1.00  0.00    -0.132 N 
HETATM   16  H   UNL     1     -41.664 -52.839  10.409  1.00  0.00     0.205 HD
BRANCH  15  17
HETATM   17  N   UNL     1     -40.729 -51.211  11.234  1.00  0.00    -0.297 N 
HETATM   18  C   UNL     1     -41.369 -50.261  11.838  1.00  0.00     0.119 C 
ATOM     19  HN  UNL     1     -39.845 -51.042  10.753  1.00  0.00     0.186 HD
BRANCH  18  20
HETATM   20  C   UNL     1     -40.822 -48.887  11.915  1.00  0.00    -0.019 A 
HETATM   21  C   UNL     1     -39.971 -48.518  12.961  1.00  0.00     0.013 A 
HETATM   22  C   UNL     1     -39.488 -47.212  13.039  1.00  0.00     0.001 A 
HETATM   23  C   UNL     1     -39.848 -46.273  12.073  1.00  0.00     0.000 A 
HETATM   24  C   UNL     1     -40.697 -46.640  11.026  1.00  0.00     0.001 A 
HETATM   25  C   UNL     1     -41.187 -47.945  10.945  1.00  0.00     0.013 A 
ENDBRANCH  18  20
ENDBRANCH  15  17
ENDBRANCH   2  15
BRANCH   1  26
HETATM   26  C   UNL     1     -43.930 -53.183  12.544  1.00  0.00     0.174 C 
BRANCH  26  27
HETATM   27  C   UNL     1     -44.417 -51.912  13.241  1.00  0.00     0.187 C 
BRANCH  27  28
HETATM   28  O   UNL     1     -45.785 -51.672  12.904  1.00  0.00    -0.394 OA
HETATM   29  C   UNL     1     -46.572 -51.487  14.078  1.00  0.00     0.201 C 
ENDBRANCH  27  28
ENDBRANCH  26  27
ENDBRANCH   1  26
TORSDOF 6
ENDMDL
MODEL 4
REMARK VINA RESULT:      -6.4      1.798      2.075
REMARK  6 active torsions:
REMARK  status: ('A' for Active; 'I' for Inactive)
REMARK    1  A    between atoms: O_2  and  C_3 
REMARK    2  A    between atoms: C_3  and  C_4 
REMARK    3  A    between atoms: C_4  and  N_5 
REMARK    4  A    between atoms: C_6  and  N_7 
REMARK    5  A    between atoms: N_7  and  N_8 
REMARK    6  A    between atoms: C_10  and  C_11 
ROOT
HETATM    1  N   UNL     1     -40.890 -48.410  11.828  1.00  0.00    -0.171 N 
HETATM    2  C   UNL     1     -41.864 -49.396  11.748  1.00  0.00     0.701 A 
HETATM    3  N   UNL     1     -42.926 -48.934  11.103  1.00  0.00    -0.172 N 
ATOM      4  HN  UNL     1     -43.802 -49.426  10.930  1.00  0.00     0.186 HD
HETATM    5  C   UNL     1     -42.608 -47.672  10.721  1.00  0.00     0.160 A 
HETATM    6  N   UNL     1     -43.412 -46.785  10.037  1.00  0.00    -0.287 N 
HETATM    7  C   UNL     1     -44.736 -47.137   9.569  1.00  0.00     0.163 C 
HETATM    8  C   UNL     1     -42.947 -45.495   9.808  1.00  0.00     0.330 C 
HETATM    9  O   UNL     1     -43.601 -44.622   9.238  1.00  0.00    -0.246 OA
HETATM   10  N   UNL     1     -41.672 -45.197  10.245  1.00  0.00    -0.273 N 
HETATM   11  C   UNL     1     -40.771 -46.067  10.810  1.00  0.00     0.280 C 
HETATM   12  O   UNL     1     -39.607 -45.749  11.023  1.00  0.00    -0.265 OA
HETATM   13  C   UNL     1     -41.345 -47.333  11.107  1.00  0.00     0.164 A 
HETATM   14  H   UNL     1     -41.340 -44.270  10.036  1.00  0.00     0.173 HD
ENDROOT
BRANCH   2  15
HETATM   15  N   UNL     1     -41.695 -50.630  12.294  1.00  0.00    -0.132 N 
HETATM   16  H   UNL     1     -40.763 -50.972  12.504  1.00  0.00     0.205 HD
BRANCH  15  17
HETATM   17  N   UNL     1     -42.759 -51.438  12.574  1.00  0.00    -0.297 N 
HETATM   18  C   UNL     1     -43.391 -51.200  13.680  1.00  0.00     0.119 C 
ATOM     19  HN  UNL     1     -43.041 -52.190  11.946  1.00  0.00     0.186 HD
BRANCH  18  20
HETATM   20  C   UNL     1     -44.595 -51.970  14.063  1.00  0.00    -0.019 A 
HETATM   21  C   UNL     1     -44.605 -53.366  13.975  1.00  0.00     0.013 A 
HETATM   22  C   UNL     1     -45.757 -54.078  14.310  1.00  0.00     0.001 A 
HETATM   23  C   UNL     1     -46.899 -53.401  14.738  1.00  0.00     0.000 A 
HETATM   24  C   UNL     1     -46.891 -52.007  14.828  1.00  0.00     0.001 A 
HETATM   25  C   UNL     1     -45.742 -51.288  14.491  1.00  0.00     0.013 A 
ENDBRANCH  18  20
ENDBRANCH  15  17
ENDBRANCH   2  15
BRANCH   1  26
HETATM   26  C   UNL     1     -39.685 -48.412  12.637  1.00  0.00     0.174 C 
BRANCH  26  27
HETATM   27  C   UNL     1     -38.506 -49.098  11.946  1.00  0.00     0.187 C 
BRANCH  27  28
HETATM   28  O   UNL     1     -38.580 -50.510  12.155  1.00  0.00    -0.394 OA
HETATM   29  C   UNL     1     -37.362 -51.007  12.702  1.00  0.00     0.201 C 
ENDBRANCH  27  28
ENDBRANCH  26  27
ENDBRANCH   1  26
TORSDOF 6
ENDMDL
MODEL 5
REMARK VINA RESULT:      -6.2      2.535      7.080
REMARK  6 active torsions:
REMARK  status: ('A' for Active; 'I' for Inactive)
REMARK    1  A    between atoms: O_2  and  C_3 
REMARK    2  A    between atoms: C_3  and  C_4 
REMARK    3  A    between atoms: C_4  and  N_5 
REMARK    4  A    between atoms: C_6  and  N_7 
REMARK    5  A    between atoms: N_7  and  N_8 
REMARK    6  A    between atoms: C_10  and  C_11 
ROOT
HETATM    1  N   UNL     1     -40.267 -51.917  12.929  1.00  0.00    -0.171 N 
HETATM    2  C   UNL     1     -40.989 -51.588  11.790  1.00  0.00     0.701 A 
HETATM    3  N   UNL     1     -42.134 -52.255  11.769  1.00  0.00    -0.172 N 
ATOM      4  HN  UNL     1     -42.842 -52.237  11.035  1.00  0.00     0.186 HD
HETATM    5  C   UNL     1     -42.170 -52.965  12.923  1.00  0.00     0.160 A 
HETATM    6  N   UNL     1     -43.164 -53.830  13.335  1.00  0.00    -0.287 N 
HETATM    7  C   UNL     1     -44.375 -54.041  12.572  1.00  0.00     0.163 C 
HETATM    8  C   UNL     1     -42.986 -54.544  14.514  1.00  0.00     0.330 C 
HETATM    9  O   UNL     1     -43.798 -55.362  14.948  1.00  0.00    -0.246 OA
HETATM   10  N   UNL     1     -41.832 -54.303  15.232  1.00  0.00    -0.273 N 
HETATM   11  C   UNL     1     -40.870 -53.363  14.951  1.00  0.00     0.280 C 
HETATM   12  O   UNL     1     -39.958 -53.113  15.730  1.00  0.00    -0.265 OA
HETATM   13  C   UNL     1     -41.061 -52.745  13.685  1.00  0.00     0.164 A 
HETATM   14  H   UNL     1     -41.741 -54.801  16.101  1.00  0.00     0.173 HD
ENDROOT
BRANCH   2  15
HETATM   15  N   UNL     1     -40.518 -50.715  10.859  1.00  0.00    -0.132 N 
HETATM   16  H   UNL     1     -39.771 -50.992  10.230  1.00  0.00     0.205 HD
BRANCH  15  17
HETATM   17  N   UNL     1     -41.029 -49.455  10.741  1.00  0.00    -0.297 N 
HETATM   18  C   UNL     1     -40.389 -48.511  11.355  1.00  0.00     0.119 C 
ATOM     19  HN  UNL     1     -41.870 -49.266  10.196  1.00  0.00     0.186 HD
BRANCH  18  20
HETATM   20  C   UNL     1     -40.811 -47.096  11.253  1.00  0.00    -0.019 A 
HETATM   21  C   UNL     1     -42.077 -46.765  10.758  1.00  0.00     0.013 A 
HETATM   22  C   UNL     1     -42.451 -45.427  10.638  1.00  0.00     0.001 A 
HETATM   23  C   UNL     1     -41.567 -44.415  11.013  1.00  0.00     0.000 A 
HETATM   24  C   UNL     1     -40.302 -44.743  11.509  1.00  0.00     0.001 A 
HETATM   25  C   UNL     1     -39.921 -46.082  11.629  1.00  0.00     0.013 A 
ENDBRANCH  18  20
ENDBRANCH  15  17
ENDBRANCH   2  15
BRANCH   1  26
HETATM   26  C   UNL     1     -38.882 -51.602  13.228  1.00  0.00     0.174 C 
BRANCH  26  27
HETATM   27  C   UNL     1     -38.728 -50.328  14.059  1.00  0.00     0.187 C 
BRANCH  27  28
HETATM   28  O   UNL     1     -37.728 -49.490  13.477  1.00  0.00    -0.394 OA
HETATM   29  C   UNL     1     -37.710 -48.210  14.103  1.00  0.00     0.201 C 
ENDBRANCH  27  28
ENDBRANCH  26  27
ENDBRANCH   1  26
TORSDOF 6
ENDMDL
MODEL 6
REMARK VINA RESULT:      -5.6      2.240      2.817
REMARK  6 active torsions:
REMARK  status: ('A' for Active; 'I' for Inactive)
REMARK    1  A    between atoms: O_2  and  C_3 
REMARK    2  A    between atoms: C_3  and  C_4 
REMARK    3  A    between atoms: C_4  and  N_5 
REMARK    4  A    between atoms: C_6  and  N_7 
REMARK    5  A    between atoms: N_7  and  N_8 
REMARK    6  A    between atoms: C_10  and  C_11 
ROOT
HETATM    1  N   UNL     1     -41.829 -47.999  12.475  1.00  0.00    -0.171 N 
HETATM    2  C   UNL     1     -42.057 -48.941  11.482  1.00  0.00     0.701 A 
HETATM    3  N   UNL     1     -42.554 -48.353  10.403  1.00  0.00    -0.172 N 
ATOM      4  HN  UNL     1     -42.850 -48.804   9.538  1.00  0.00     0.186 HD
HETATM    5  C   UNL     1     -42.590 -47.027  10.687  1.00  0.00     0.160 A 
HETATM    6  N   UNL     1     -43.054 -46.016   9.871  1.00  0.00    -0.287 N 
HETATM    7  C   UNL     1     -43.524 -46.258   8.524  1.00  0.00     0.163 C 
HETATM    8  C   UNL     1     -43.097 -44.719  10.368  1.00  0.00     0.330 C 
HETATM    9  O   UNL     1     -43.524 -43.755   9.731  1.00  0.00    -0.246 OA
HETATM   10  N   UNL     1     -42.621 -44.516  11.648  1.00  0.00    -0.273 N 
HETATM   11  C   UNL     1     -42.024 -45.449  12.461  1.00  0.00     0.280 C 
HETATM   12  O   UNL     1     -41.490 -45.141  13.520  1.00  0.00    -0.265 OA
HETATM   13  C   UNL     1     -42.106 -46.767  11.935  1.00  0.00     0.164 A 
HETATM   14  H   UNL     1     -42.625 -43.564  11.974  1.00  0.00     0.173 HD
ENDROOT
BRANCH   2  15
HETATM   15  N   UNL     1     -41.803 -50.264  11.664  1.00  0.00    -0.132 N 
HETATM   16  H   UNL     1     -40.878 -50.638  11.476  1.00  0.00     0.205 HD
BRANCH  15  17
HETATM   17  N   UNL     1     -42.770 -51.123  12.101  1.00  0.00    -0.297 N 
HETATM   18  C   UNL     1     -42.445 -51.916  13.072  1.00  0.00     0.119 C 
ATOM     19  HN  UNL     1     -43.701 -51.139  11.684  1.00  0.00     0.186 HD
BRANCH  18  20
HETATM   20  C   UNL     1     -43.425 -52.850  13.670  1.00  0.00    -0.019 A 
HETATM   21  C   UNL     1     -43.744 -52.773  15.029  1.00  0.00     0.013 A 
HETATM   22  C   UNL     1     -44.646 -53.679  15.586  1.00  0.00     0.001 A 
HETATM   23  C   UNL     1     -45.237 -54.660  14.790  1.00  0.00     0.000 A 
HETATM   24  C   UNL     1     -44.921 -54.738  13.431  1.00  0.00     0.001 A 
HETATM   25  C   UNL     1     -44.015 -53.836  12.868  1.00  0.00     0.013 A 
ENDBRANCH  18  20
ENDBRANCH  15  17
ENDBRANCH   2  15
BRANCH   1  26
HETATM   26  C   UNL     1     -41.516 -48.236  13.873  1.00  0.00     0.174 C 
BRANCH  26  27
HETATM   27  C   UNL     1     -42.760 -48.478  14.728  1.00  0.00     0.187 C 
BRANCH  27  28
HETATM   28  O   UNL     1     -42.370 -48.844  16.053  1.00  0.00    -0.394 OA
HETATM   29  C   UNL     1     -42.559 -47.758  16.957  1.00  0.00     0.201 C 
ENDBRANCH  27  28
ENDBRANCH  26  27
ENDBRANCH   1  26
TORSDOF 6
ENDMDL
MODEL 7
REMARK VINA RESULT:      -5.4      3.775      6.694
REMARK  6 active torsions:
REMARK  status: ('A' for Active; 'I' for Inactive)
REMARK    1  A    between atoms: O_2  and  C_3 
REMARK    2  A    between atoms: C_3  and  C_4 
REMARK    3  A    between atoms: C_4  and  N_5 
REMARK    4  A    between atoms: C_6  and  N_7 
REMARK    5  A    between atoms: N_7  and  N_8 
REMARK    6  A    between atoms: C_10  and  C_11 
ROOT
HETATM    1  N   UNL     1     -39.699 -52.382  14.116  1.00  0.00    -0.171 N 
HETATM    2  C   UNL     1     -40.135 -53.593  13.597  1.00  0.00     0.701 A 
HETATM    3  N   UNL     1     -39.757 -54.588  14.386  1.00  0.00    -0.172 N 
ATOM      4  HN  UNL     1     -39.906 -55.586  14.232  1.00  0.00     0.186 HD
HETATM    5  C   UNL     1     -39.130 -54.008  15.439  1.00  0.00     0.160 A 
HETATM    6  N   UNL     1     -38.545 -54.649  16.512  1.00  0.00    -0.287 N 
HETATM    7  C   UNL     1     -38.589 -56.086  16.678  1.00  0.00     0.163 C 
HETATM    8  C   UNL     1     -37.866 -53.890  17.458  1.00  0.00     0.330 C 
HETATM    9  O   UNL     1     -37.284 -54.370  18.431  1.00  0.00    -0.246 OA
HETATM   10  N   UNL     1     -37.861 -52.521  17.286  1.00  0.00    -0.273 N 
HETATM   11  C   UNL     1     -38.533 -51.811  16.320  1.00  0.00     0.280 C 
HETATM   12  O   UNL     1     -38.597 -50.588  16.339  1.00  0.00    -0.265 OA
HETATM   13  C   UNL     1     -39.118 -52.649  15.332  1.00  0.00     0.164 A 
HETATM   14  H   UNL     1     -37.397 -51.987  18.002  1.00  0.00     0.173 HD
ENDROOT
BRANCH   2  15
HETATM   15  N   UNL     1     -40.827 -53.676  12.429  1.00  0.00    -0.132 N 
HETATM   16  H   UNL     1     -40.397 -54.088  11.607  1.00  0.00     0.205 HD
BRANCH  15  17
HETATM   17  N   UNL     1     -42.107 -53.213  12.324  1.00  0.00    -0.297 N 
HETATM   18  C   UNL     1     -42.798 -53.167  13.419  1.00  0.00     0.119 C 
ATOM     19  HN  UNL     1     -42.499 -52.920  11.430  1.00  0.00     0.186 HD
BRANCH  18  20
HETATM   20  C   UNL     1     -44.176 -52.628  13.442  1.00  0.00    -0.019 A 
HETATM   21  C   UNL     1     -45.052 -52.870  12.379  1.00  0.00     0.013 A 
HETATM   22  C   UNL     1     -46.338 -52.331  12.399  1.00  0.00     0.001 A 
HETATM   23  C   UNL     1     -46.756 -51.555  13.479  1.00  0.00     0.000 A 
HETATM   24  C   UNL     1     -45.884 -51.313  14.543  1.00  0.00     0.001 A 
HETATM   25  C   UNL     1     -44.593 -51.847  14.528  1.00  0.00     0.013 A 
ENDBRANCH  18  20
ENDBRANCH  15  17
ENDBRANCH   2  15
BRANCH   1  26
HETATM   26  C   UNL     1     -39.692 -51.084  13.465  1.00  0.00     0.174 C 
BRANCH  26  27
HETATM   27  C   UNL     1     -38.407 -50.821  12.680  1.00  0.00     0.187 C 
BRANCH  27  28
HETATM   28  O   UNL     1     -38.709 -50.079  11.497  1.00  0.00    -0.394 OA
HETATM   29  C   UNL     1     -40.115 -49.899  11.355  1.00  0.00     0.201 C 
ENDBRANCH  27  28
ENDBRANCH  26  27
ENDBRANCH   1  26
TORSDOF 6
ENDMDL
MODEL 8
REMARK VINA RESULT:      -5.3      4.273      6.303
REMARK  6 active torsions:
REMARK  status: ('A' for Active; 'I' for Inactive)
REMARK    1  A    between atoms: O_2  and  C_3 
REMARK    2  A    between atoms: C_3  and  C_4 
REMARK    3  A    between atoms: C_4  and  N_5 
REMARK    4  A    between atoms: C_6  and  N_7 
REMARK    5  A    between atoms: N_7  and  N_8 
REMARK    6  A    between atoms: C_10  and  C_11 
ROOT
HETATM    1  N   UNL     1     -40.332 -52.370  13.110  1.00  0.00    -0.171 N 
HETATM    2  C   UNL     1     -40.175 -53.688  13.515  1.00  0.00     0.701 A 
HETATM    3  N   UNL     1     -41.360 -54.244  13.722  1.00  0.00    -0.172 N 
ATOM      4  HN  UNL     1     -41.546 -55.188  14.059  1.00  0.00     0.186 HD
HETATM    5  C   UNL     1     -42.275 -53.299  13.393  1.00  0.00     0.160 A 
HETATM    6  N   UNL     1     -43.648 -53.412  13.468  1.00  0.00    -0.287 N 
HETATM    7  C   UNL     1     -44.307 -54.636  13.868  1.00  0.00     0.163 C 
HETATM    8  C   UNL     1     -44.431 -52.301  13.173  1.00  0.00     0.330 C 
HETATM    9  O   UNL     1     -45.660 -52.291  13.243  1.00  0.00    -0.246 OA
HETATM   10  N   UNL     1     -43.775 -51.155  12.773  1.00  0.00    -0.273 N 
HETATM   11  C   UNL     1     -42.427 -51.014  12.548  1.00  0.00     0.280 C 
HETATM   12  O   UNL     1     -41.954 -50.002  12.043  1.00  0.00    -0.265 OA
HETATM   13  C   UNL     1     -41.680 -52.149  12.966  1.00  0.00     0.164 A 
HETATM   14  H   UNL     1     -44.361 -50.374  12.527  1.00  0.00     0.173 HD
ENDROOT
BRANCH   2  15
HETATM   15  N   UNL     1     -38.951 -54.257  13.676  1.00  0.00    -0.132 N 
HETATM   16  H   UNL     1     -38.153 -53.912  13.151  1.00  0.00     0.205 HD
BRANCH  15  17
HETATM   17  N   UNL     1     -38.755 -55.298  14.538  1.00  0.00    -0.297 N 
HETATM   18  C   UNL     1     -38.583 -54.992  15.785  1.00  0.00     0.119 C 
ATOM     19  HN  UNL     1     -38.745 -56.266  14.216  1.00  0.00     0.186 HD
BRANCH  18  20
HETATM   20  C   UNL     1     -38.421 -56.036  16.822  1.00  0.00    -0.019 A 
HETATM   21  C   UNL     1     -39.465 -56.920  17.111  1.00  0.00     0.013 A 
HETATM   22  C   UNL     1     -39.310 -57.879  18.112  1.00  0.00     0.001 A 
HETATM   23  C   UNL     1     -38.113 -57.963  18.823  1.00  0.00     0.000 A 
HETATM   24  C   UNL     1     -37.068 -57.082  18.534  1.00  0.00     0.001 A 
HETATM   25  C   UNL     1     -37.218 -56.118  17.535  1.00  0.00     0.013 A 
ENDBRANCH  18  20
ENDBRANCH  15  17
ENDBRANCH   2  15
BRANCH   1  26
HETATM   26  C   UNL     1     -39.311 -51.343  13.003  1.00  0.00     0.174 C 
BRANCH  26  27
HETATM   27  C   UNL     1     -39.045 -50.630  14.330  1.00  0.00     0.187 C 
BRANCH  27  28
HETATM   28  O   UNL     1     -38.267 -51.473  15.182  1.00  0.00    -0.394 OA
HETATM   29  C   UNL     1     -38.642 -51.301  16.546  1.00  0.00     0.201 C 
ENDBRANCH  27  28
ENDBRANCH  26  27
ENDBRANCH   1  26
TORSDOF 6
ENDMDL
MODEL 9
REMARK VINA RESULT:      -5.3      2.197      2.632
REMARK  6 active torsions:
REMARK  status: ('A' for Active; 'I' for Inactive)
REMARK    1  A    between atoms: O_2  and  C_3 
REMARK    2  A    between atoms: C_3  and  C_4 
REMARK    3  A    between atoms: C_4  and  N_5 
REMARK    4  A    between atoms: C_6  and  N_7 
REMARK    5  A    between atoms: N_7  and  N_8 
REMARK    6  A    between atoms: C_10  and  C_11 
ROOT
HETATM    1  N   UNL     1     -41.482 -48.106  12.761  1.00  0.00    -0.171 N 
HETATM    2  C   UNL     1     -42.536 -48.997  12.910  1.00  0.00     0.701 A 
HETATM    3  N   UNL     1     -43.436 -48.798  11.958  1.00  0.00    -0.172 N 
ATOM      4  HN  UNL     1     -44.327 -49.282  11.844  1.00  0.00     0.186 HD
HETATM    5  C   UNL     1     -42.931 -47.820  11.167  1.00  0.00     0.160 A 
HETATM    6  N   UNL     1     -43.526 -47.261  10.055  1.00  0.00    -0.287 N 
HETATM    7  C   UNL     1     -44.799 -47.720   9.542  1.00  0.00     0.163 C 
HETATM    8  C   UNL     1     -42.895 -46.200   9.418  1.00  0.00     0.330 C 
HETATM    9  O   UNL     1     -43.360 -45.613   8.440  1.00  0.00    -0.246 OA
HETATM   10  N   UNL     1     -41.672 -45.800   9.917  1.00  0.00    -0.273 N 
HETATM   11  C   UNL     1     -40.962 -46.397  10.931  1.00  0.00     0.280 C 
HETATM   12  O   UNL     1     -39.813 -46.067  11.201  1.00  0.00    -0.265 OA
HETATM   13  C   UNL     1     -41.708 -47.404  11.602  1.00  0.00     0.164 A 
HETATM   14  H   UNL     1     -41.213 -45.055   9.418  1.00  0.00     0.173 HD
ENDROOT
BRANCH   2  15
HETATM   15  N   UNL     1     -42.583 -49.903  13.923  1.00  0.00    -0.132 N 
HETATM   16  H   UNL     1     -43.367 -49.906  14.569  1.00  0.00     0.205 HD
BRANCH  15  17
HETATM   17  N   UNL     1     -41.594 -50.825  14.103  1.00  0.00    -0.297 N 
HETATM   18  C   UNL     1     -41.942 -51.951  14.640  1.00  0.00     0.119 C 
ATOM     19  HN  UNL     1     -40.630 -50.637  13.828  1.00  0.00     0.186 HD
BRANCH  18  20
HETATM   20  C   UNL     1     -40.970 -53.051  14.831  1.00  0.00    -0.019 A 
HETATM   21  C   UNL     1     -40.135 -53.452  13.784  1.00  0.00     0.013 A 
HETATM   22  C   UNL     1     -39.244 -54.510  13.968  1.00  0.00     0.001 A 
HETATM   23  C   UNL     1     -39.181 -55.167  15.196  1.00  0.00     0.000 A 
HETATM   24  C   UNL     1     -40.014 -54.768  16.244  1.00  0.00     0.001 A 
HETATM   25  C   UNL     1     -40.910 -53.711  16.065  1.00  0.00     0.013 A 
ENDBRANCH  18  20
ENDBRANCH  15  17
ENDBRANCH   2  15
BRANCH   1  26
HETATM   26  C   UNL     1     -40.414 -47.824  13.703  1.00  0.00     0.174 C 
BRANCH  26  27
HETATM   27  C   UNL     1     -39.075 -48.431  13.281  1.00  0.00     0.187 C 
BRANCH  27  28
HETATM   28  O   UNL     1     -39.254 -49.810  12.951  1.00  0.00    -0.394 OA
HETATM   29  C   UNL     1     -38.661 -50.111  11.691  1.00  0.00     0.201 C 
ENDBRANCH  27  28
ENDBRANCH  26  27
ENDBRANCH   1  26
TORSDOF 6
ENDMDL
