MODEL 1
REMARK VINA RESULT:      -5.7      0.000      0.000
REMARK  5 active torsions:
REMARK  status: ('A' for Active; 'I' for Inactive)
REMARK    1  A    between atoms: C_2  and  C_3 
REMARK    2  A    between atoms: C_2  and  N_14 
REMARK    3  A    between atoms: C_3  and  N_4 
REMARK       I    between atoms: N_4  and  C_5 
REMARK    4  A    between atoms: C_5  and  C_7 
REMARK    5  A    between atoms: C_7  and  N_8 
ROOT
HETATM    1  N   UNL     1     -42.885 -51.590  12.460  1.00  0.00    -0.358 N 
HETATM    2  C   UNL     1     -41.564 -51.419  12.091  1.00  0.00     0.237 C 
HETATM    3  O   UNL     1     -40.773 -52.360  12.005  1.00  0.00    -0.272 OA
HETATM    4  H   UNL     1     -43.562 -50.855  12.278  1.00  0.00     0.162 HD
ENDROOT
BRANCH   1   5
HETATM    5  C   UNL     1     -43.395 -52.938  12.585  1.00  0.00     0.158 C 
BRANCH   5   6
HETATM    6  C   UNL     1     -43.688 -53.412  14.030  1.00  0.00     0.237 C 
HETATM    7  C   UNL     1     -42.629 -54.481  14.350  1.00  0.00     0.044 C 
BRANCH   6   8
HETATM    8  N   UNL     1     -45.102 -53.680  14.412  1.00  0.00     0.098 N 
HETATM    9  C   UNL     1     -46.065 -53.243  13.376  1.00  0.00     0.273 C 
HETATM   10  C   UNL     1     -46.484 -51.768  13.443  1.00  0.00     0.030 C 
HETATM   11  C   UNL     1     -46.852 -51.299  14.846  1.00  0.00     0.004 C 
HETATM   12  C   UNL     1     -45.927 -51.846  15.932  1.00  0.00     0.035 C 
HETATM   13  C   UNL     1     -45.660 -53.345  15.737  1.00  0.00     0.219 C 
HETATM   14  C   UNL     1     -44.994 -53.972  16.960  1.00  0.00     0.043 C 
ENDBRANCH   6   8
ENDBRANCH   5   6
ENDBRANCH   1   5
BRANCH   2  15
HETATM   15  C   UNL     1     -41.132 -50.003  11.814  1.00  0.00     0.250 C 
BRANCH  15  16
HETATM   16  N   UNL     1     -39.699 -49.848  11.969  1.00  0.00    -0.295 N 
HETATM   17  C   UNL     1     -39.029 -49.357  13.062  1.00  0.00     0.112 A 
HETATM   18  C   UNL     1     -37.701 -49.343  12.721  1.00  0.00     0.037 A 
HETATM   19  C   UNL     1     -37.667 -49.828  11.398  1.00  0.00     0.108 A 
HETATM   20  N   UNL     1     -38.881 -50.138  10.937  1.00  0.00    -0.310 N 
ATOM     21  HN  UNL     1     -39.131 -50.509  10.020  1.00  0.00     0.186 HD
ENDBRANCH  15  16
ENDBRANCH   2  15
TORSDOF 5
ENDMDL
MODEL 2
REMARK VINA RESULT:      -5.6      3.000      3.779
REMARK  5 active torsions:
REMARK  status: ('A' for Active; 'I' for Inactive)
REMARK    1  A    between atoms: C_2  and  C_3 
REMARK    2  A    between atoms: C_2  and  N_14 
REMARK    3  A    between atoms: C_3  and  N_4 
REMARK       I    between atoms: N_4  and  C_5 
REMARK    4  A    between atoms: C_5  and  C_7 
REMARK    5  A    between atoms: C_7  and  N_8 
ROOT
HETATM    1  N   UNL     1     -43.115 -49.781  12.052  1.00  0.00    -0.358 N 
HETATM    2  C   UNL     1     -42.434 -48.584  12.177  1.00  0.00     0.237 C 
HETATM    3  O   UNL     1     -42.485 -47.897  13.198  1.00  0.00    -0.272 OA
HETATM    4  H   UNL     1     -42.858 -50.437  11.321  1.00  0.00     0.162 HD
ENDROOT
BRANCH   1   5
HETATM    5  C   UNL     1     -43.770 -50.323  13.222  1.00  0.00     0.158 C 
BRANCH   5   6
HETATM    6  C   UNL     1     -43.729 -51.866  13.358  1.00  0.00     0.237 C 
HETATM    7  C   UNL     1     -42.481 -52.327  12.586  1.00  0.00     0.044 C 
BRANCH   6   8
HETATM    8  N   UNL     1     -44.996 -52.625  13.174  1.00  0.00     0.098 N 
HETATM    9  C   UNL     1     -46.177 -51.742  13.041  1.00  0.00     0.273 C 
HETATM   10  C   UNL     1     -46.816 -51.289  14.361  1.00  0.00     0.030 C 
HETATM   11  C   UNL     1     -47.018 -52.420  15.362  1.00  0.00     0.004 C 
HETATM   12  C   UNL     1     -45.848 -53.401  15.416  1.00  0.00     0.035 C 
HETATM   13  C   UNL     1     -45.374 -53.784  14.008  1.00  0.00     0.219 C 
HETATM   14  C   UNL     1     -44.420 -54.976  14.028  1.00  0.00     0.043 C 
ENDBRANCH   6   8
ENDBRANCH   5   6
ENDBRANCH   1   5
BRANCH   2  15
HETATM   15  C   UNL     1     -41.633 -48.151  10.977  1.00  0.00     0.250 C 
BRANCH  15  16
HETATM   16  N   UNL     1     -42.479 -47.544   9.968  1.00  0.00    -0.295 N 
HETATM   17  C   UNL     1     -43.145 -46.347  10.052  1.00  0.00     0.112 A 
HETATM   18  C   UNL     1     -43.861 -46.226   8.889  1.00  0.00     0.037 A 
HETATM   19  C   UNL     1     -43.578 -47.406   8.172  1.00  0.00     0.108 A 
HETATM   20  N   UNL     1     -42.736 -48.210   8.824  1.00  0.00    -0.310 N 
ATOM     21  HN  UNL     1     -42.372 -49.116   8.527  1.00  0.00     0.186 HD
ENDBRANCH  15  16
ENDBRANCH   2  15
TORSDOF 5
ENDMDL
MODEL 3
REMARK VINA RESULT:      -5.6      4.483      7.250
REMARK  5 active torsions:
REMARK  status: ('A' for Active; 'I' for Inactive)
REMARK    1  A    between atoms: C_2  and  C_3 
REMARK    2  A    between atoms: C_2  and  N_14 
REMARK    3  A    between atoms: C_3  and  N_4 
REMARK       I    between atoms: N_4  and  C_5 
REMARK    4  A    between atoms: C_5  and  C_7 
REMARK    5  A    between atoms: C_7  and  N_8 
ROOT
HETATM    1  N   UNL     1     -42.656 -48.543  10.525  1.00  0.00    -0.358 N 
HETATM    2  C   UNL     1     -42.829 -47.261  10.036  1.00  0.00     0.237 C 
HETATM    3  O   UNL     1     -42.567 -46.258  10.700  1.00  0.00    -0.272 OA
HETATM    4  H   UNL     1     -42.635 -49.331   9.885  1.00  0.00     0.162 HD
ENDROOT
BRANCH   1   5
HETATM    5  C   UNL     1     -41.987 -48.708  11.797  1.00  0.00     0.158 C 
BRANCH   5   6
HETATM    6  C   UNL     1     -40.708 -49.581  11.772  1.00  0.00     0.237 C 
HETATM    7  C   UNL     1     -41.181 -51.034  11.943  1.00  0.00     0.044 C 
BRANCH   6   8
HETATM    8  N   UNL     1     -39.526 -49.124  12.555  1.00  0.00     0.098 N 
HETATM    9  C   UNL     1     -38.301 -49.022  11.731  1.00  0.00     0.273 C 
HETATM   10  C   UNL     1     -37.502 -50.323  11.569  1.00  0.00     0.030 C 
HETATM   11  C   UNL     1     -37.290 -51.077  12.877  1.00  0.00     0.004 C 
HETATM   12  C   UNL     1     -38.521 -51.082  13.782  1.00  0.00     0.035 C 
HETATM   13  C   UNL     1     -39.159 -49.689  13.868  1.00  0.00     0.219 C 
HETATM   14  C   UNL     1     -40.195 -49.601  14.987  1.00  0.00     0.043 C 
ENDBRANCH   6   8
ENDBRANCH   5   6
ENDBRANCH   1   5
BRANCH   2  15
HETATM   15  C   UNL     1     -43.377 -47.155   8.636  1.00  0.00     0.250 C 
BRANCH  15  16
HETATM   16  N   UNL     1     -44.743 -47.637   8.568  1.00  0.00    -0.295 N 
HETATM   17  C   UNL     1     -45.762 -47.375   9.450  1.00  0.00     0.112 A 
HETATM   18  C   UNL     1     -46.843 -48.094   9.008  1.00  0.00     0.037 A 
HETATM   19  C   UNL     1     -46.377 -48.771   7.864  1.00  0.00     0.108 A 
HETATM   20  N   UNL     1     -45.100 -48.495   7.591  1.00  0.00    -0.310 N 
ATOM     21  HN  UNL     1     -44.528 -48.849   6.824  1.00  0.00     0.186 HD
ENDBRANCH  15  16
ENDBRANCH   2  15
TORSDOF 5
ENDMDL
MODEL 4
REMARK VINA RESULT:      -5.5      2.728      3.503
REMARK  5 active torsions:
REMARK  status: ('A' for Active; 'I' for Inactive)
REMARK    1  A    between atoms: C_2  and  C_3 
REMARK    2  A    between atoms: C_2  and  N_14 
REMARK    3  A    between atoms: C_3  and  N_4 
REMARK       I    between atoms: N_4  and  C_5 
REMARK    4  A    between atoms: C_5  and  C_7 
REMARK    5  A    between atoms: C_7  and  N_8 
ROOT
HETATM    1  N   UNL     1     -42.762 -50.063  12.429  1.00  0.00    -0.358 N 
HETATM    2  C   UNL     1     -41.889 -49.334  11.643  1.00  0.00     0.237 C 
HETATM    3  O   UNL     1     -40.861 -49.820  11.169  1.00  0.00    -0.272 OA
HETATM    4  H   UNL     1     -43.706 -49.723  12.589  1.00  0.00     0.162 HD
ENDROOT
BRANCH   1   5
HETATM    5  C   UNL     1     -42.545 -51.487  12.557  1.00  0.00     0.158 C 
BRANCH   5   6
HETATM    6  C   UNL     1     -42.915 -52.100  13.931  1.00  0.00     0.237 C 
HETATM    7  C   UNL     1     -41.610 -52.680  14.503  1.00  0.00     0.044 C 
BRANCH   6   8
HETATM    8  N   UNL     1     -44.156 -52.917  14.030  1.00  0.00     0.098 N 
HETATM    9  C   UNL     1     -45.040 -52.754  12.854  1.00  0.00     0.273 C 
HETATM   10  C   UNL     1     -46.002 -51.559  12.911  1.00  0.00     0.030 C 
HETATM   11  C   UNL     1     -46.734 -51.426  14.241  1.00  0.00     0.004 C 
HETATM   12  C   UNL     1     -45.849 -51.710  15.454  1.00  0.00     0.035 C 
HETATM   13  C   UNL     1     -44.997 -52.968  15.241  1.00  0.00     0.219 C 
HETATM   14  C   UNL     1     -44.337 -53.439  16.536  1.00  0.00     0.043 C 
ENDBRANCH   6   8
ENDBRANCH   5   6
ENDBRANCH   1   5
BRANCH   2  15
HETATM   15  C   UNL     1     -42.257 -47.892  11.409  1.00  0.00     0.250 C 
BRANCH  15  16
HETATM   16  N   UNL     1     -43.043 -47.738  10.201  1.00  0.00    -0.295 N 
HETATM   17  C   UNL     1     -44.380 -47.442  10.110  1.00  0.00     0.112 A 
HETATM   18  C   UNL     1     -44.687 -47.463   8.774  1.00  0.00     0.037 A 
HETATM   19  C   UNL     1     -43.476 -47.797   8.136  1.00  0.00     0.108 A 
HETATM   20  N   UNL     1     -42.472 -47.964   9.000  1.00  0.00    -0.310 N 
ATOM     21  HN  UNL     1     -41.501 -48.205   8.799  1.00  0.00     0.186 HD
ENDBRANCH  15  16
ENDBRANCH   2  15
TORSDOF 5
ENDMDL
MODEL 5
REMARK VINA RESULT:      -5.4      3.081      5.010
REMARK  5 active torsions:
REMARK  status: ('A' for Active; 'I' for Inactive)
REMARK    1  A    between atoms: C_2  and  C_3 
REMARK    2  A    between atoms: C_2  and  N_14 
REMARK    3  A    between atoms: C_3  and  N_4 
REMARK       I    between atoms: N_4  and  C_5 
REMARK    4  A    between atoms: C_5  and  C_7 
REMARK    5  A    between atoms: C_7  and  N_8 
ROOT
HETATM    1  N   UNL     1     -40.618 -49.292  12.454  1.00  0.00    -0.358 N 
HETATM    2  C   UNL     1     -41.639 -48.643  11.783  1.00  0.00     0.237 C 
HETATM    3  O   UNL     1     -42.817 -48.990  11.875  1.00  0.00    -0.272 OA
HETATM    4  H   UNL     1     -39.715 -48.840  12.563  1.00  0.00     0.162 HD
ENDROOT
BRANCH   1   5
HETATM    5  C   UNL     1     -40.970 -50.304  13.425  1.00  0.00     0.158 C 
BRANCH   5   6
HETATM    6  C   UNL     1     -40.030 -51.535  13.479  1.00  0.00     0.237 C 
HETATM    7  C   UNL     1     -38.604 -50.989  13.291  1.00  0.00     0.044 C 
BRANCH   6   8
HETATM    8  N   UNL     1     -40.425 -52.758  12.727  1.00  0.00     0.098 N 
HETATM    9  C   UNL     1     -41.612 -52.542  11.870  1.00  0.00     0.273 C 
HETATM   10  C   UNL     1     -42.970 -52.713  12.564  1.00  0.00     0.030 C 
HETATM   11  C   UNL     1     -43.064 -53.970  13.422  1.00  0.00     0.004 C 
HETATM   12  C   UNL     1     -41.793 -54.259  14.219  1.00  0.00     0.035 C 
HETATM   13  C   UNL     1     -40.538 -54.090  13.353  1.00  0.00     0.219 C 
HETATM   14  C   UNL     1     -39.293 -54.658  14.031  1.00  0.00     0.043 C 
ENDBRANCH   6   8
ENDBRANCH   5   6
ENDBRANCH   1   5
BRANCH   2  15
HETATM   15  C   UNL     1     -41.226 -47.486  10.910  1.00  0.00     0.250 C 
BRANCH  15  16
HETATM   16  N   UNL     1     -42.251 -47.171   9.935  1.00  0.00    -0.295 N 
HETATM   17  C   UNL     1     -42.952 -45.996   9.816  1.00  0.00     0.112 A 
HETATM   18  C   UNL     1     -43.850 -46.189   8.798  1.00  0.00     0.037 A 
HETATM   19  C   UNL     1     -43.628 -47.514   8.373  1.00  0.00     0.108 A 
HETATM   20  N   UNL     1     -42.655 -48.115   9.062  1.00  0.00    -0.310 N 
ATOM     21  HN  UNL     1     -42.300 -49.065   8.952  1.00  0.00     0.186 HD
ENDBRANCH  15  16
ENDBRANCH   2  15
TORSDOF 5
ENDMDL
MODEL 6
REMARK VINA RESULT:      -5.3      1.614      6.692
REMARK  5 active torsions:
REMARK  status: ('A' for Active; 'I' for Inactive)
REMARK    1  A    between atoms: C_2  and  C_3 
REMARK    2  A    between atoms: C_2  and  N_14 
REMARK    3  A    between atoms: C_3  and  N_4 
REMARK       I    between atoms: N_4  and  C_5 
REMARK    4  A    between atoms: C_5  and  C_7 
REMARK    5  A    between atoms: C_7  and  N_8 
ROOT
HETATM    1  N   UNL     1     -42.271 -52.334  11.774  1.00  0.00    -0.358 N 
HETATM    2  C   UNL     1     -42.633 -53.206  12.785  1.00  0.00     0.237 C 
HETATM    3  O   UNL     1     -41.881 -53.487  13.718  1.00  0.00    -0.272 OA
HETATM    4  H   UNL     1     -42.982 -51.931  11.173  1.00  0.00     0.162 HD
ENDROOT
BRANCH   1   5
HETATM    5  C   UNL     1     -41.031 -51.602  11.912  1.00  0.00     0.158 C 
BRANCH   5   6
HETATM    6  C   UNL     1     -41.140 -50.228  12.618  1.00  0.00     0.237 C 
HETATM    7  C   UNL     1     -41.868 -49.299  11.631  1.00  0.00     0.044 C 
BRANCH   6   8
HETATM    8  N   UNL     1     -39.944 -49.703  13.332  1.00  0.00     0.098 N 
HETATM    9  C   UNL     1     -39.025 -48.962  12.439  1.00  0.00     0.273 C 
HETATM   10  C   UNL     1     -38.007 -49.822  11.676  1.00  0.00     0.030 C 
HETATM   11  C   UNL     1     -37.300 -50.851  12.550  1.00  0.00     0.004 C 
HETATM   12  C   UNL     1     -38.226 -51.534  13.556  1.00  0.00     0.035 C 
HETATM   13  C   UNL     1     -39.134 -50.517  14.260  1.00  0.00     0.219 C 
HETATM   14  C   UNL     1     -39.845 -51.124  15.468  1.00  0.00     0.043 C 
ENDBRANCH   6   8
ENDBRANCH   5   6
ENDBRANCH   1   5
BRANCH   2  15
HETATM   15  C   UNL     1     -44.007 -53.814  12.672  1.00  0.00     0.250 C 
BRANCH  15  16
HETATM   16  N   UNL     1     -45.040 -52.839  12.962  1.00  0.00    -0.295 N 
HETATM   17  C   UNL     1     -45.391 -52.339  14.192  1.00  0.00     0.112 A 
HETATM   18  C   UNL     1     -46.453 -51.500  13.975  1.00  0.00     0.037 A 
HETATM   19  C   UNL     1     -46.684 -51.569  12.586  1.00  0.00     0.108 A 
HETATM   20  N   UNL     1     -45.825 -52.381  11.965  1.00  0.00    -0.310 N 
ATOM     21  HN  UNL     1     -45.774 -52.603  10.971  1.00  0.00     0.186 HD
ENDBRANCH  15  16
ENDBRANCH   2  15
TORSDOF 5
ENDMDL
MODEL 7
REMARK VINA RESULT:      -5.2      1.754      2.515
REMARK  5 active torsions:
REMARK  status: ('A' for Active; 'I' for Inactive)
REMARK    1  A    between atoms: C_2  and  C_3 
REMARK    2  A    between atoms: C_2  and  N_14 
REMARK    3  A    between atoms: C_3  and  N_4 
REMARK       I    between atoms: N_4  and  C_5 
REMARK    4  A    between atoms: C_5  and  C_7 
REMARK    5  A    between atoms: C_7  and  N_8 
ROOT
HETATM    1  N   UNL     1     -41.320 -53.372  14.668  1.00  0.00    -0.358 N 
HETATM    2  C   UNL     1     -40.189 -53.168  13.900  1.00  0.00     0.237 C 
HETATM    3  O   UNL     1     -39.926 -53.856  12.913  1.00  0.00    -0.272 OA
HETATM    4  H   UNL     1     -41.638 -52.648  15.305  1.00  0.00     0.162 HD
ENDROOT
BRANCH   1   5
HETATM    5  C   UNL     1     -42.309 -54.316  14.196  1.00  0.00     0.158 C 
BRANCH   5   6
HETATM    6  C   UNL     1     -43.781 -53.837  14.273  1.00  0.00     0.237 C 
HETATM    7  C   UNL     1     -44.393 -54.119  12.890  1.00  0.00     0.044 C 
BRANCH   6   8
HETATM    8  N   UNL     1     -44.064 -52.525  14.918  1.00  0.00     0.098 N 
HETATM    9  C   UNL     1     -45.054 -52.631  16.014  1.00  0.00     0.273 C 
HETATM   10  C   UNL     1     -46.526 -52.567  15.583  1.00  0.00     0.030 C 
HETATM   11  C   UNL     1     -46.828 -51.440  14.602  1.00  0.00     0.004 C 
HETATM   12  C   UNL     1     -45.747 -51.253  13.539  1.00  0.00     0.035 C 
HETATM   13  C   UNL     1     -44.342 -51.292  14.156  1.00  0.00     0.219 C 
HETATM   14  C   UNL     1     -43.272 -50.814  13.177  1.00  0.00     0.043 C 
ENDBRANCH   6   8
ENDBRANCH   5   6
ENDBRANCH   1   5
BRANCH   2  15
HETATM   15  C   UNL     1     -39.275 -52.057  14.350  1.00  0.00     0.250 C 
BRANCH  15  16
HETATM   16  N   UNL     1     -38.818 -51.263  13.226  1.00  0.00    -0.295 N 
HETATM   17  C   UNL     1     -37.581 -50.691  13.061  1.00  0.00     0.112 A 
HETATM   18  C   UNL     1     -37.638 -49.991  11.884  1.00  0.00     0.037 A 
HETATM   19  C   UNL     1     -38.954 -50.186  11.417  1.00  0.00     0.108 A 
HETATM   20  N   UNL     1     -39.675 -50.961  12.230  1.00  0.00    -0.310 N 
ATOM     21  HN  UNL     1     -40.645 -51.256  12.123  1.00  0.00     0.186 HD
ENDBRANCH  15  16
ENDBRANCH   2  15
TORSDOF 5
ENDMDL
MODEL 8
REMARK VINA RESULT:      -5.0      2.098      6.312
REMARK  5 active torsions:
REMARK  status: ('A' for Active; 'I' for Inactive)
REMARK    1  A    between atoms: C_2  and  C_3 
REMARK    2  A    between atoms: C_2  and  N_14 
REMARK    3  A    between atoms: C_3  and  N_4 
REMARK       I    between atoms: N_4  and  C_5 
REMARK    4  A    between atoms: C_5  and  C_7 
REMARK    5  A    between atoms: C_7  and  N_8 
ROOT
HETATM    1  N   UNL     1     -42.044 -51.938  11.665  1.00  0.00    -0.358 N 
HETATM    2  C   UNL     1     -42.662 -52.622  12.695  1.00  0.00     0.237 C 
HETATM    3  O   UNL     1     -42.131 -52.786  13.794  1.00  0.00    -0.272 OA
HETATM    4  H   UNL     1     -42.591 -51.603  10.878  1.00  0.00     0.162 HD
ENDROOT
BRANCH   1   5
HETATM    5  C   UNL     1     -40.803 -51.249  11.946  1.00  0.00     0.158 C 
BRANCH   5   6
HETATM    6  C   UNL     1     -40.825 -49.716  11.725  1.00  0.00     0.237 C 
HETATM    7  C   UNL     1     -39.823 -49.127  12.733  1.00  0.00     0.044 C 
BRANCH   6   8
HETATM    8  N   UNL     1     -42.144 -49.044  11.563  1.00  0.00     0.098 N 
HETATM    9  C   UNL     1     -42.186 -48.148  10.385  1.00  0.00     0.273 C 
HETATM   10  C   UNL     1     -41.659 -46.726  10.617  1.00  0.00     0.030 C 
HETATM   11  C   UNL     1     -42.190 -46.076  11.889  1.00  0.00     0.004 C 
HETATM   12  C   UNL     1     -42.257 -47.033  13.079  1.00  0.00     0.035 C 
HETATM   13  C   UNL     1     -42.858 -48.386  12.674  1.00  0.00     0.219 C 
HETATM   14  C   UNL     1     -43.211 -49.242  13.889  1.00  0.00     0.043 C 
ENDBRANCH   6   8
ENDBRANCH   5   6
ENDBRANCH   1   5
BRANCH   2  15
HETATM   15  C   UNL     1     -44.030 -53.179  12.392  1.00  0.00     0.250 C 
BRANCH  15  16
HETATM   16  N   UNL     1     -45.029 -52.640  13.294  1.00  0.00    -0.295 N 
HETATM   17  C   UNL     1     -45.937 -51.644  13.030  1.00  0.00     0.112 A 
HETATM   18  C   UNL     1     -46.624 -51.435  14.197  1.00  0.00     0.037 A 
HETATM   19  C   UNL     1     -46.052 -52.338  15.115  1.00  0.00     0.108 A 
HETATM   20  N   UNL     1     -45.081 -53.074  14.569  1.00  0.00    -0.310 N 
ATOM     21  HN  UNL     1     -44.514 -53.797  15.012  1.00  0.00     0.186 HD
ENDBRANCH  15  16
ENDBRANCH   2  15
TORSDOF 5
ENDMDL
MODEL 9
REMARK VINA RESULT:      -5.0      2.708      3.161
REMARK  5 active torsions:
REMARK  status: ('A' for Active; 'I' for Inactive)
REMARK    1  A    between atoms: C_2  and  C_3 
REMARK    2  A    between atoms: C_2  and  N_14 
REMARK    3  A    between atoms: C_3  and  N_4 
REMARK       I    between atoms: N_4  and  C_5 
REMARK    4  A    between atoms: C_5  and  C_7 
REMARK    5  A    between atoms: C_7  and  N_8 
ROOT
HETATM    1  N   UNL     1     -43.121 -49.989  12.156  1.00  0.00    -0.358 N 
HETATM    2  C   UNL     1     -42.751 -48.657  12.127  1.00  0.00     0.237 C 
HETATM    3  O   UNL     1     -43.028 -47.874  13.037  1.00  0.00    -0.272 OA
HETATM    4  H   UNL     1     -42.671 -50.654  11.535  1.00  0.00     0.162 HD
ENDROOT
BRANCH   1   5
HETATM    5  C   UNL     1     -43.706 -50.514  13.371  1.00  0.00     0.158 C 
BRANCH   5   6
HETATM    6  C   UNL     1     -43.900 -52.050  13.411  1.00  0.00     0.237 C 
HETATM    7  C   UNL     1     -42.774 -52.644  12.548  1.00  0.00     0.044 C 
BRANCH   6   8
HETATM    8  N   UNL     1     -45.277 -52.592  13.249  1.00  0.00     0.098 N 
HETATM    9  C   UNL     1     -46.317 -51.541  13.327  1.00  0.00     0.273 C 
HETATM   10  C   UNL     1     -46.788 -51.180  14.742  1.00  0.00     0.030 C 
HETATM   11  C   UNL     1     -47.089 -52.393  15.615  1.00  0.00     0.004 C 
HETATM   12  C   UNL     1     -46.079 -53.528  15.447  1.00  0.00     0.035 C 
HETATM   13  C   UNL     1     -45.767 -53.785  13.967  1.00  0.00     0.219 C 
HETATM   14  C   UNL     1     -45.005 -55.093  13.761  1.00  0.00     0.043 C 
ENDBRANCH   6   8
ENDBRANCH   5   6
ENDBRANCH   1   5
BRANCH   2  15
HETATM   15  C   UNL     1     -41.997 -48.207  10.903  1.00  0.00     0.250 C 
BRANCH  15  16
HETATM   16  N   UNL     1     -41.296 -46.961  11.145  1.00  0.00    -0.295 N 
HETATM   17  C   UNL     1     -41.434 -45.781  10.456  1.00  0.00     0.112 A 
HETATM   18  C   UNL     1     -40.526 -44.912  11.002  1.00  0.00     0.037 A 
HETATM   19  C   UNL     1     -39.874 -45.659  12.004  1.00  0.00     0.108 A 
HETATM   20  N   UNL     1     -40.341 -46.906  12.095  1.00  0.00    -0.310 N 
ATOM     21  HN  UNL     1     -40.045 -47.644  12.734  1.00  0.00     0.186 HD
ENDBRANCH  15  16
ENDBRANCH   2  15
TORSDOF 5
ENDMDL
