MODEL 1
REMARK VINA RESULT:      -6.6      0.000      0.000
REMARK  3 active torsions:
REMARK  status: ('A' for Active; 'I' for Inactive)
REMARK    1  A    between atoms: C_8  and  N_9 
REMARK       I    between atoms: N_9  and  C_10 
REMARK       I    between atoms: C_10  and  N_12 
REMARK    2  A    between atoms: N_12  and  C_13 
REMARK    3  A    between atoms: C_13  and  C_14 
ROOT
HETATM    1  N   UNL     1     -40.946 -48.426  10.658  1.00  0.00    -0.294 N 
HETATM    2  C   UNL     1     -40.550 -49.613  11.197  1.00  0.00     0.321 C 
HETATM    3  O   UNL     1     -39.381 -49.752  11.553  1.00  0.00    -0.247 OA
HETATM    4  N   UNL     1     -41.502 -50.578  11.381  1.00  0.00    -0.342 N 
HETATM    5  H   UNL     1     -40.211 -47.734  10.675  1.00  0.00     0.172 HD
HETATM    6  H   UNL     1     -42.306 -50.465  10.765  1.00  0.00     0.164 HD
ENDROOT
BRANCH   1   7
HETATM    7  C   UNL     1     -42.186 -48.065  10.120  1.00  0.00     0.114 A 
HETATM    8  C   UNL     1     -43.202 -47.592  10.966  1.00  0.00    -0.018 A 
HETATM    9  C   UNL     1     -43.062 -47.467  12.458  1.00  0.00     0.052 C 
HETATM   10  C   UNL     1     -44.422 -47.230  10.376  1.00  0.00     0.012 A 
HETATM   11  C   UNL     1     -44.596 -47.334   9.001  1.00  0.00     0.018 A 
HETATM   12  C   UNL     1     -43.533 -47.806   8.252  1.00  0.00     0.089 A 
HETATM   13  N   UNL     1     -42.348 -48.176   8.777  1.00  0.00    -0.352 N 
ATOM     14  HN  UNL     1     -41.597 -48.528   8.184  1.00  0.00     0.166 HD
ENDBRANCH   1   7
BRANCH   4  15
HETATM   15  C   UNL     1     -41.131 -51.867  11.924  1.00  0.00     0.130 C 
BRANCH  15  16
HETATM   16  C   UNL     1     -42.112 -52.498  12.912  1.00  0.00     0.018 C 
HETATM   17  C   UNL     1     -41.620 -53.808  13.550  1.00  0.00     0.022 C 
HETATM   18  C   UNL     1     -42.809 -54.557  14.160  1.00  0.00     0.141 C 
HETATM   19  S   UNL     1     -44.291 -53.742  13.601  1.00  0.00     0.144 S 
HETATM   20  O   UNL     1     -45.163 -54.715  12.977  1.00  0.00    -0.228 OA
HETATM   21  O   UNL     1     -44.750 -52.852  14.648  1.00  0.00    -0.228 OA
HETATM   22  C   UNL     1     -43.497 -52.770  12.336  1.00  0.00     0.146 C 
ENDBRANCH  15  16
ENDBRANCH   4  15
TORSDOF 3
ENDMDL
MODEL 2
REMARK VINA RESULT:      -6.4      1.994      3.008
REMARK  3 active torsions:
REMARK  status: ('A' for Active; 'I' for Inactive)
REMARK    1  A    between atoms: C_8  and  N_9 
REMARK       I    between atoms: N_9  and  C_10 
REMARK       I    between atoms: C_10  and  N_12 
REMARK    2  A    between atoms: N_12  and  C_13 
REMARK    3  A    between atoms: C_13  and  C_14 
ROOT
HETATM    1  N   UNL     1     -40.338 -51.077  11.295  1.00  0.00    -0.294 N 
HETATM    2  C   UNL     1     -40.771 -51.986  12.214  1.00  0.00     0.321 C 
HETATM    3  O   UNL     1     -40.549 -53.181  12.028  1.00  0.00    -0.247 OA
HETATM    4  N   UNL     1     -41.375 -51.509  13.345  1.00  0.00    -0.342 N 
HETATM    5  H   UNL     1     -39.797 -51.505  10.559  1.00  0.00     0.172 HD
HETATM    6  H   UNL     1     -41.778 -50.582  13.219  1.00  0.00     0.164 HD
ENDROOT
BRANCH   1   7
HETATM    7  C   UNL     1     -40.536 -49.692  11.255  1.00  0.00     0.114 A 
HETATM    8  C   UNL     1     -39.531 -48.830  11.725  1.00  0.00    -0.018 A 
HETATM    9  C   UNL     1     -38.229 -49.300  12.312  1.00  0.00     0.052 C 
HETATM   10  C   UNL     1     -39.773 -47.451  11.650  1.00  0.00     0.012 A 
HETATM   11  C   UNL     1     -40.965 -46.973  11.118  1.00  0.00     0.018 A 
HETATM   12  C   UNL     1     -41.890 -47.902  10.677  1.00  0.00     0.089 A 
HETATM   13  N   UNL     1     -41.706 -49.236  10.740  1.00  0.00    -0.352 N 
ATOM     14  HN  UNL     1     -42.423 -49.882  10.411  1.00  0.00     0.166 HD
ENDBRANCH   1   7
BRANCH   4  15
HETATM   15  C   UNL     1     -41.878 -52.432  14.340  1.00  0.00     0.130 C 
BRANCH  15  16
HETATM   16  C   UNL     1     -43.356 -52.810  14.232  1.00  0.00     0.018 C 
HETATM   17  C   UNL     1     -43.612 -54.280  13.861  1.00  0.00     0.022 C 
HETATM   18  C   UNL     1     -45.053 -54.438  13.366  1.00  0.00     0.141 C 
HETATM   19  S   UNL     1     -45.718 -52.801  13.141  1.00  0.00     0.144 S 
HETATM   20  O   UNL     1     -46.229 -52.676  11.792  1.00  0.00    -0.228 OA
HETATM   21  O   UNL     1     -46.514 -52.464  14.304  1.00  0.00    -0.228 OA
HETATM   22  C   UNL     1     -44.155 -51.953  13.257  1.00  0.00     0.146 C 
ENDBRANCH  15  16
ENDBRANCH   4  15
TORSDOF 3
ENDMDL
MODEL 3
REMARK VINA RESULT:      -6.2      3.461      6.432
REMARK  3 active torsions:
REMARK  status: ('A' for Active; 'I' for Inactive)
REMARK    1  A    between atoms: C_8  and  N_9 
REMARK       I    between atoms: N_9  and  C_10 
REMARK       I    between atoms: C_10  and  N_12 
REMARK    2  A    between atoms: N_12  and  C_13 
REMARK    3  A    between atoms: C_13  and  C_14 
ROOT
HETATM    1  N   UNL     1     -42.591 -52.594  12.686  1.00  0.00    -0.294 N 
HETATM    2  C   UNL     1     -41.627 -51.768  12.191  1.00  0.00     0.321 C 
HETATM    3  O   UNL     1     -40.489 -52.203  12.027  1.00  0.00    -0.247 OA
HETATM    4  N   UNL     1     -41.997 -50.501  11.833  1.00  0.00    -0.342 N 
HETATM    5  H   UNL     1     -42.261 -53.539  12.805  1.00  0.00     0.172 HD
HETATM    6  H   UNL     1     -42.838 -50.182  12.313  1.00  0.00     0.164 HD
ENDROOT
BRANCH   1   7
HETATM    7  C   UNL     1     -43.919 -52.307  13.023  1.00  0.00     0.114 A 
HETATM    8  C   UNL     1     -44.208 -51.685  14.248  1.00  0.00    -0.018 A 
HETATM    9  C   UNL     1     -43.167 -51.319  15.271  1.00  0.00     0.052 C 
HETATM   10  C   UNL     1     -45.552 -51.404  14.532  1.00  0.00     0.012 A 
HETATM   11  C   UNL     1     -46.547 -51.730  13.618  1.00  0.00     0.018 A 
HETATM   12  C   UNL     1     -46.161 -52.335  12.435  1.00  0.00     0.089 A 
HETATM   13  N   UNL     1     -44.883 -52.633  12.126  1.00  0.00    -0.352 N 
ATOM     14  HN  UNL     1     -44.649 -53.090  11.245  1.00  0.00     0.166 HD
ENDBRANCH   1   7
BRANCH   4  15
HETATM   15  C   UNL     1     -41.008 -49.573  11.328  1.00  0.00     0.130 C 
BRANCH  15  16
HETATM   16  C   UNL     1     -41.431 -48.107  11.240  1.00  0.00     0.018 C 
HETATM   17  C   UNL     1     -42.408 -47.794  10.093  1.00  0.00     0.022 C 
HETATM   18  C   UNL     1     -42.421 -46.284   9.832  1.00  0.00     0.141 C 
HETATM   19  S   UNL     1     -41.074 -45.575  10.757  1.00  0.00     0.144 S 
HETATM   20  O   UNL     1     -40.236 -44.805   9.862  1.00  0.00    -0.228 OA
HETATM   21  O   UNL     1     -41.602 -45.024  11.989  1.00  0.00    -0.228 OA
HETATM   22  C   UNL     1     -40.273 -47.123  11.126  1.00  0.00     0.146 C 
ENDBRANCH  15  16
ENDBRANCH   4  15
TORSDOF 3
ENDMDL
MODEL 4
REMARK VINA RESULT:      -6.2      2.030      2.484
REMARK  3 active torsions:
REMARK  status: ('A' for Active; 'I' for Inactive)
REMARK    1  A    between atoms: C_8  and  N_9 
REMARK       I    between atoms: N_9  and  C_10 
REMARK       I    between atoms: C_10  and  N_12 
REMARK    2  A    between atoms: N_12  and  C_13 
REMARK    3  A    between atoms: C_13  and  C_14 
ROOT
HETATM    1  N   UNL     1     -41.424 -49.342  10.977  1.00  0.00    -0.294 N 
HETATM    2  C   UNL     1     -41.838 -50.111  12.023  1.00  0.00     0.321 C 
HETATM    3  O   UNL     1     -41.272 -51.180  12.244  1.00  0.00    -0.247 OA
HETATM    4  N   UNL     1     -42.827 -49.613  12.826  1.00  0.00    -0.342 N 
HETATM    5  H   UNL     1     -40.612 -49.726  10.517  1.00  0.00     0.172 HD
HETATM    6  H   UNL     1     -43.407 -48.919  12.358  1.00  0.00     0.164 HD
ENDROOT
BRANCH   1   7
HETATM    7  C   UNL     1     -41.956 -48.141  10.493  1.00  0.00     0.114 A 
HETATM    8  C   UNL     1     -41.340 -46.923  10.822  1.00  0.00    -0.018 A 
HETATM    9  C   UNL     1     -40.130 -46.806  11.708  1.00  0.00     0.052 C 
HETATM   10  C   UNL     1     -41.903 -45.749  10.301  1.00  0.00     0.012 A 
HETATM   11  C   UNL     1     -43.024 -45.811   9.481  1.00  0.00     0.018 A 
HETATM   12  C   UNL     1     -43.555 -47.060   9.210  1.00  0.00     0.089 A 
HETATM   13  N   UNL     1     -43.054 -48.212   9.699  1.00  0.00    -0.352 N 
ATOM     14  HN  UNL     1     -43.487 -49.108   9.479  1.00  0.00     0.166 HD
ENDBRANCH   1   7
BRANCH   4  15
HETATM   15  C   UNL     1     -43.323 -50.400  13.935  1.00  0.00     0.130 C 
BRANCH  15  16
HETATM   16  C   UNL     1     -44.215 -51.590  13.580  1.00  0.00     0.018 C 
HETATM   17  C   UNL     1     -45.715 -51.362  13.838  1.00  0.00     0.022 C 
HETATM   18  C   UNL     1     -46.438 -52.712  13.866  1.00  0.00     0.141 C 
HETATM   19  S   UNL     1     -45.190 -53.982  13.893  1.00  0.00     0.144 S 
HETATM   20  O   UNL     1     -45.428 -54.858  15.021  1.00  0.00    -0.228 OA
HETATM   21  O   UNL     1     -45.016 -54.486  12.546  1.00  0.00    -0.228 OA
HETATM   22  C   UNL     1     -43.831 -52.893  14.272  1.00  0.00     0.146 C 
ENDBRANCH  15  16
ENDBRANCH   4  15
TORSDOF 3
ENDMDL
MODEL 5
REMARK VINA RESULT:      -5.9      3.478      6.590
REMARK  3 active torsions:
REMARK  status: ('A' for Active; 'I' for Inactive)
REMARK    1  A    between atoms: C_8  and  N_9 
REMARK       I    between atoms: N_9  and  C_10 
REMARK       I    between atoms: C_10  and  N_12 
REMARK    2  A    between atoms: N_12  and  C_13 
REMARK    3  A    between atoms: C_13  and  C_14 
ROOT
HETATM    1  N   UNL     1     -41.129 -51.983  11.563  1.00  0.00    -0.294 N 
HETATM    2  C   UNL     1     -40.721 -50.716  11.855  1.00  0.00     0.321 C 
HETATM    3  O   UNL     1     -39.872 -50.179  11.146  1.00  0.00    -0.247 OA
HETATM    4  N   UNL     1     -41.336 -50.073  12.894  1.00  0.00    -0.342 N 
HETATM    5  H   UNL     1     -40.715 -52.331  10.712  1.00  0.00     0.172 HD
HETATM    6  H   UNL     1     -41.750 -50.715  13.569  1.00  0.00     0.164 HD
ENDROOT
BRANCH   1   7
HETATM    7  C   UNL     1     -42.014 -52.814  12.260  1.00  0.00     0.114 A 
HETATM    8  C   UNL     1     -41.530 -53.642  13.285  1.00  0.00    -0.018 A 
HETATM    9  C   UNL     1     -40.083 -53.728  13.684  1.00  0.00     0.052 C 
HETATM   10  C   UNL     1     -42.460 -54.445  13.964  1.00  0.00     0.012 A 
HETATM   11  C   UNL     1     -43.807 -54.400  13.625  1.00  0.00     0.018 A 
HETATM   12  C   UNL     1     -44.186 -53.547  12.604  1.00  0.00     0.089 A 
HETATM   13  N   UNL     1     -43.326 -52.767  11.918  1.00  0.00    -0.352 N 
ATOM     14  HN  UNL     1     -43.652 -52.161  11.165  1.00  0.00     0.166 HD
ENDBRANCH   1   7
BRANCH   4  15
HETATM   15  C   UNL     1     -40.923 -48.737  13.265  1.00  0.00     0.130 C 
BRANCH  15  16
HETATM   16  C   UNL     1     -41.715 -47.583  12.648  1.00  0.00     0.018 C 
HETATM   17  C   UNL     1     -42.913 -48.021  11.788  1.00  0.00     0.022 C 
HETATM   18  C   UNL     1     -43.352 -46.856  10.895  1.00  0.00     0.141 C 
HETATM   19  S   UNL     1     -42.098 -45.597  11.012  1.00  0.00     0.144 S 
HETATM   20  O   UNL     1     -41.642 -45.256   9.681  1.00  0.00    -0.228 OA
HETATM   21  O   UNL     1     -42.540 -44.593  11.959  1.00  0.00    -0.228 OA
HETATM   22  C   UNL     1     -40.879 -46.627  11.804  1.00  0.00     0.146 C 
ENDBRANCH  15  16
ENDBRANCH   4  15
TORSDOF 3
ENDMDL
MODEL 6
REMARK VINA RESULT:      -5.9      4.395      7.507
REMARK  3 active torsions:
REMARK  status: ('A' for Active; 'I' for Inactive)
REMARK    1  A    between atoms: C_8  and  N_9 
REMARK       I    between atoms: N_9  and  C_10 
REMARK       I    between atoms: C_10  and  N_12 
REMARK    2  A    between atoms: N_12  and  C_13 
REMARK    3  A    between atoms: C_13  and  C_14 
ROOT
HETATM    1  N   UNL     1     -40.997 -49.435  10.748  1.00  0.00    -0.294 N 
HETATM    2  C   UNL     1     -41.407 -48.199  10.347  1.00  0.00     0.321 C 
HETATM    3  O   UNL     1     -42.436 -48.094   9.682  1.00  0.00    -0.247 OA
HETATM    4  N   UNL     1     -40.682 -47.119  10.769  1.00  0.00    -0.342 N 
HETATM    5  H   UNL     1     -41.655 -50.157  10.498  1.00  0.00     0.172 HD
HETATM    6  H   UNL     1     -39.720 -47.356  11.010  1.00  0.00     0.164 HD
ENDROOT
BRANCH   1   7
HETATM    7  C   UNL     1     -39.836 -49.804  11.438  1.00  0.00     0.114 A 
HETATM    8  C   UNL     1     -39.905 -50.106  12.807  1.00  0.00    -0.018 A 
HETATM    9  C   UNL     1     -41.168 -50.032  13.621  1.00  0.00     0.052 C 
HETATM   10  C   UNL     1     -38.717 -50.484  13.449  1.00  0.00     0.012 A 
HETATM   11  C   UNL     1     -37.526 -50.560  12.736  1.00  0.00     0.018 A 
HETATM   12  C   UNL     1     -37.562 -50.249  11.389  1.00  0.00     0.089 A 
HETATM   13  N   UNL     1     -38.677 -49.870  10.734  1.00  0.00    -0.352 N 
ATOM     14  HN  UNL     1     -38.651 -49.640   9.741  1.00  0.00     0.166 HD
ENDBRANCH   1   7
BRANCH   4  15
HETATM   15  C   UNL     1     -41.058 -45.786  10.349  1.00  0.00     0.130 C 
BRANCH  15  16
HETATM   16  C   UNL     1     -41.141 -44.724  11.446  1.00  0.00     0.018 C 
HETATM   17  C   UNL     1     -40.315 -43.456  11.171  1.00  0.00     0.022 C 
HETATM   18  C   UNL     1     -40.122 -42.679  12.476  1.00  0.00     0.141 C 
HETATM   19  S   UNL     1     -40.672 -43.731  13.805  1.00  0.00     0.144 S 
HETATM   20  O   UNL     1     -39.612 -43.855  14.783  1.00  0.00    -0.228 OA
HETATM   21  O   UNL     1     -42.020 -43.344  14.170  1.00  0.00    -0.228 OA
HETATM   22  C   UNL     1     -40.753 -45.222  12.834  1.00  0.00     0.146 C 
ENDBRANCH  15  16
ENDBRANCH   4  15
TORSDOF 3
ENDMDL
MODEL 7
REMARK VINA RESULT:      -5.8      3.327      6.338
REMARK  3 active torsions:
REMARK  status: ('A' for Active; 'I' for Inactive)
REMARK    1  A    between atoms: C_8  and  N_9 
REMARK       I    between atoms: N_9  and  C_10 
REMARK       I    between atoms: C_10  and  N_12 
REMARK    2  A    between atoms: N_12  and  C_13 
REMARK    3  A    between atoms: C_13  and  C_14 
ROOT
HETATM    1  N   UNL     1     -42.538 -53.528  12.404  1.00  0.00    -0.294 N 
HETATM    2  C   UNL     1     -41.550 -52.593  12.494  1.00  0.00     0.321 C 
HETATM    3  O   UNL     1     -40.453 -52.828  11.991  1.00  0.00    -0.247 OA
HETATM    4  N   UNL     1     -41.856 -51.399  13.087  1.00  0.00    -0.342 N 
HETATM    5  H   UNL     1     -42.264 -54.322  11.846  1.00  0.00     0.172 HD
HETATM    6  H   UNL     1     -42.646 -51.464  13.727  1.00  0.00     0.164 HD
ENDROOT
BRANCH   1   7
HETATM    7  C   UNL     1     -43.824 -53.516  12.957  1.00  0.00     0.114 A 
HETATM    8  C   UNL     1     -44.080 -54.224  14.142  1.00  0.00    -0.018 A 
HETATM    9  C   UNL     1     -43.050 -55.044  14.869  1.00  0.00     0.052 C 
HETATM   10  C   UNL     1     -45.381 -54.168  14.663  1.00  0.00     0.012 A 
HETATM   11  C   UNL     1     -46.364 -53.426  14.020  1.00  0.00     0.018 A 
HETATM   12  C   UNL     1     -46.012 -52.758  12.861  1.00  0.00     0.089 A 
HETATM   13  N   UNL     1     -44.779 -52.793  12.318  1.00  0.00    -0.352 N 
ATOM     14  HN  UNL     1     -44.570 -52.292  11.455  1.00  0.00     0.166 HD
ENDBRANCH   1   7
BRANCH   4  15
HETATM   15  C   UNL     1     -40.836 -50.383  13.234  1.00  0.00     0.130 C 
BRANCH  15  16
HETATM   16  C   UNL     1     -41.119 -49.034  12.571  1.00  0.00     0.018 C 
HETATM   17  C   UNL     1     -42.399 -48.338  13.062  1.00  0.00     0.022 C 
HETATM   18  C   UNL     1     -42.807 -47.254  12.060  1.00  0.00     0.141 C 
HETATM   19  S   UNL     1     -41.801 -47.471  10.606  1.00  0.00     0.144 S 
HETATM   20  O   UNL     1     -42.661 -47.589   9.446  1.00  0.00    -0.228 OA
HETATM   21  O   UNL     1     -40.702 -46.529  10.661  1.00  0.00    -0.228 OA
HETATM   22  C   UNL     1     -41.189 -49.085  11.049  1.00  0.00     0.146 C 
ENDBRANCH  15  16
ENDBRANCH   4  15
TORSDOF 3
ENDMDL
MODEL 8
REMARK VINA RESULT:      -5.7      4.619      6.437
REMARK  3 active torsions:
REMARK  status: ('A' for Active; 'I' for Inactive)
REMARK    1  A    between atoms: C_8  and  N_9 
REMARK       I    between atoms: N_9  and  C_10 
REMARK       I    between atoms: C_10  and  N_12 
REMARK    2  A    between atoms: N_12  and  C_13 
REMARK    3  A    between atoms: C_13  and  C_14 
ROOT
HETATM    1  N   UNL     1     -44.834 -54.743  14.684  1.00  0.00    -0.294 N 
HETATM    2  C   UNL     1     -43.508 -54.906  14.956  1.00  0.00     0.321 C 
HETATM    3  O   UNL     1     -43.123 -55.961  15.457  1.00  0.00    -0.247 OA
HETATM    4  N   UNL     1     -42.655 -53.902  14.589  1.00  0.00    -0.342 N 
HETATM    5  H   UNL     1     -45.368 -55.578  14.872  1.00  0.00     0.172 HD
HETATM    6  H   UNL     1     -43.119 -52.998  14.505  1.00  0.00     0.164 HD
ENDROOT
BRANCH   1   7
HETATM    7  C   UNL     1     -45.508 -53.619  14.192  1.00  0.00     0.114 A 
HETATM    8  C   UNL     1     -46.022 -52.668  15.088  1.00  0.00    -0.018 A 
HETATM    9  C   UNL     1     -45.926 -52.784  16.584  1.00  0.00     0.052 C 
HETATM   10  C   UNL     1     -46.675 -51.552  14.544  1.00  0.00     0.012 A 
HETATM   11  C   UNL     1     -46.791 -51.407  13.167  1.00  0.00     0.018 A 
HETATM   12  C   UNL     1     -46.246 -52.396  12.368  1.00  0.00     0.089 A 
HETATM   13  N   UNL     1     -45.620 -53.490  12.846  1.00  0.00    -0.352 N 
ATOM     14  HN  UNL     1     -45.244 -54.198  12.216  1.00  0.00     0.166 HD
ENDBRANCH   1   7
BRANCH   4  15
HETATM   15  C   UNL     1     -41.242 -54.011  14.879  1.00  0.00     0.130 C 
BRANCH  15  16
HETATM   16  C   UNL     1     -40.397 -52.761  14.629  1.00  0.00     0.018 C 
HETATM   17  C   UNL     1     -41.013 -51.765  13.632  1.00  0.00     0.022 C 
HETATM   18  C   UNL     1     -39.928 -50.803  13.137  1.00  0.00     0.141 C 
HETATM   19  S   UNL     1     -38.360 -51.442  13.690  1.00  0.00     0.144 S 
HETATM   20  O   UNL     1     -37.477 -51.585  12.552  1.00  0.00    -0.228 OA
HETATM   21  O   UNL     1     -37.969 -50.728  14.888  1.00  0.00    -0.228 OA
HETATM   22  C   UNL     1     -38.975 -53.047  14.161  1.00  0.00     0.146 C 
ENDBRANCH  15  16
ENDBRANCH   4  15
TORSDOF 3
ENDMDL
MODEL 9
REMARK VINA RESULT:      -5.6      3.408      4.838
REMARK  3 active torsions:
REMARK  status: ('A' for Active; 'I' for Inactive)
REMARK    1  A    between atoms: C_8  and  N_9 
REMARK       I    between atoms: N_9  and  C_10 
REMARK       I    between atoms: C_10  and  N_12 
REMARK    2  A    between atoms: N_12  and  C_13 
REMARK    3  A    between atoms: C_13  and  C_14 
ROOT
HETATM    1  N   UNL     1     -41.955 -52.715  12.008  1.00  0.00    -0.294 N 
HETATM    2  C   UNL     1     -43.266 -52.601  12.365  1.00  0.00     0.321 C 
HETATM    3  O   UNL     1     -44.025 -53.550  12.175  1.00  0.00    -0.247 OA
HETATM    4  N   UNL     1     -43.658 -51.448  12.987  1.00  0.00    -0.342 N 
HETATM    5  H   UNL     1     -41.729 -53.639  11.673  1.00  0.00     0.172 HD
HETATM    6  H   UNL     1     -43.047 -50.659  12.784  1.00  0.00     0.164 HD
ENDROOT
BRANCH   1   7
HETATM    7  C   UNL     1     -40.936 -51.758  12.058  1.00  0.00     0.114 A 
HETATM    8  C   UNL     1     -39.939 -51.850  13.042  1.00  0.00    -0.018 A 
HETATM    9  C   UNL     1     -39.900 -52.919  14.100  1.00  0.00     0.052 C 
HETATM   10  C   UNL     1     -38.932 -50.874  13.040  1.00  0.00     0.012 A 
HETATM   11  C   UNL     1     -38.932 -49.866  12.084  1.00  0.00     0.018 A 
HETATM   12  C   UNL     1     -39.954 -49.863  11.152  1.00  0.00     0.089 A 
HETATM   13  N   UNL     1     -40.948 -50.773  11.123  1.00  0.00    -0.352 N 
ATOM     14  HN  UNL     1     -41.687 -50.724  10.421  1.00  0.00     0.166 HD
ENDBRANCH   1   7
BRANCH   4  15
HETATM   15  C   UNL     1     -45.044 -51.264  13.362  1.00  0.00     0.130 C 
BRANCH  15  16
HETATM   16  C   UNL     1     -45.396 -51.534  14.825  1.00  0.00     0.018 C 
HETATM   17  C   UNL     1     -44.206 -51.437  15.795  1.00  0.00     0.022 C 
HETATM   18  C   UNL     1     -44.564 -52.131  17.113  1.00  0.00     0.141 C 
HETATM   19  S   UNL     1     -46.085 -53.018  16.848  1.00  0.00     0.144 S 
HETATM   20  O   UNL     1     -45.897 -54.405  17.220  1.00  0.00    -0.228 OA
HETATM   21  O   UNL     1     -47.179 -52.221  17.363  1.00  0.00    -0.228 OA
HETATM   22  C   UNL     1     -46.069 -52.880  15.071  1.00  0.00     0.146 C 
ENDBRANCH  15  16
ENDBRANCH   4  15
TORSDOF 3
ENDMDL
