MODEL 1
REMARK VINA RESULT:      -6.4      0.000      0.000
REMARK  4 active torsions:
REMARK  status: ('A' for Active; 'I' for Inactive)
REMARK       I    between atoms: C_2  and  N_3 
REMARK       I    between atoms: C_2  and  N_16 
REMARK    1  A    between atoms: N_3  and  C_4 
REMARK    2  A    between atoms: C_4  and  C_5 
REMARK    3  A    between atoms: C_5  and  N_10 
REMARK    4  A    between atoms: N_16  and  C_17 
ROOT
HETATM    1  O   UNL     1     -40.833 -53.024  11.826  1.00  0.00    -0.247 OA
HETATM    2  C   UNL     1     -41.839 -52.356  12.065  1.00  0.00     0.321 C 
HETATM    3  N   UNL     1     -41.893 -51.011  11.880  1.00  0.00    -0.340 N 
HETATM    4  N   UNL     1     -42.960 -52.998  12.487  1.00  0.00    -0.295 N 
HETATM    5  H   UNL     1     -42.675 -50.563  12.358  1.00  0.00     0.164 HD
HETATM    6  H   UNL     1     -42.833 -53.999  12.513  1.00  0.00     0.172 HD
ENDROOT
BRANCH   3   7
HETATM    7  C   UNL     1     -40.749 -50.200  11.493  1.00  0.00     0.167 C 
BRANCH   7   8
HETATM    8  C   UNL     1     -40.221 -49.058  12.464  1.00  0.00     0.184 C 
HETATM    9  C   UNL     1     -41.352 -48.671  13.459  1.00  0.00     0.054 C 
HETATM   10  C   UNL     1     -41.079 -47.277  14.018  1.00  0.00     0.076 C 
HETATM   11  S   UNL     1     -40.337 -46.330  12.664  1.00  0.00    -0.166 SA
HETATM   12  C   UNL     1     -40.178 -47.768  11.567  1.00  0.00     0.117 C 
BRANCH   8  13
HETATM   13  N   UNL     1     -38.914 -49.187  13.196  1.00  0.00     0.104 N 
HETATM   14  C   UNL     1     -37.670 -49.226  12.412  1.00  0.00     0.299 C 
HETATM   15  C   UNL     1     -37.425 -50.592  11.776  1.00  0.00     0.198 C 
HETATM   16  O   UNL     1     -37.396 -51.652  12.735  1.00  0.00    -0.388 OA
HETATM   17  C   UNL     1     -38.434 -51.606  13.724  1.00  0.00     0.198 C 
HETATM   18  C   UNL     1     -38.777 -50.207  14.244  1.00  0.00     0.299 C 
ENDBRANCH   8  13
ENDBRANCH   7   8
ENDBRANCH   3   7
BRANCH   4  19
HETATM   19  C   UNL     1     -44.209 -52.511  12.891  1.00  0.00     0.108 A 
HETATM   20  C   UNL     1     -44.297 -51.985  14.180  1.00  0.00     0.049 A 
HETATM   21  C   UNL     1     -45.521 -51.486  14.632  1.00  0.00     0.005 A 
HETATM   22  C   UNL     1     -46.616 -51.524  13.785  1.00  0.00     0.017 A 
HETATM   23  C   UNL     1     -46.445 -52.063  12.523  1.00  0.00     0.089 A 
HETATM   24  N   UNL     1     -45.267 -52.562  12.060  1.00  0.00    -0.352 N 
ATOM     25  HN  UNL     1     -45.188 -52.958  11.123  1.00  0.00     0.166 HD
ENDBRANCH   4  19
TORSDOF 4
ENDMDL
MODEL 2
REMARK VINA RESULT:      -6.3      3.305      5.078
REMARK  4 active torsions:
REMARK  status: ('A' for Active; 'I' for Inactive)
REMARK       I    between atoms: C_2  and  N_3 
REMARK       I    between atoms: C_2  and  N_16 
REMARK    1  A    between atoms: N_3  and  C_4 
REMARK    2  A    between atoms: C_4  and  C_5 
REMARK    3  A    between atoms: C_5  and  N_10 
REMARK    4  A    between atoms: N_16  and  C_17 
ROOT
HETATM    1  O   UNL     1     -39.623 -49.401  11.629  1.00  0.00    -0.247 OA
HETATM    2  C   UNL     1     -40.778 -49.365  11.205  1.00  0.00     0.321 C 
HETATM    3  N   UNL     1     -41.677 -50.358  11.432  1.00  0.00    -0.340 N 
HETATM    4  N   UNL     1     -41.185 -48.265  10.521  1.00  0.00    -0.295 N 
HETATM    5  H   UNL     1     -42.489 -50.324  10.815  1.00  0.00     0.164 HD
HETATM    6  H   UNL     1     -40.464 -47.559  10.480  1.00  0.00     0.172 HD
ENDROOT
BRANCH   3   7
HETATM    7  C   UNL     1     -41.351 -51.611  12.095  1.00  0.00     0.167 C 
BRANCH   7   8
HETATM    8  C   UNL     1     -42.344 -52.218  13.177  1.00  0.00     0.184 C 
HETATM    9  C   UNL     1     -43.435 -53.059  12.455  1.00  0.00     0.054 C 
HETATM   10  C   UNL     1     -44.653 -53.198  13.366  1.00  0.00     0.076 C 
HETATM   11  S   UNL     1     -44.786 -51.631  14.266  1.00  0.00    -0.166 SA
HETATM   12  C   UNL     1     -43.202 -50.990  13.655  1.00  0.00     0.117 C 
BRANCH   8  13
HETATM   13  N   UNL     1     -41.839 -52.959  14.384  1.00  0.00     0.104 N 
HETATM   14  C   UNL     1     -41.015 -52.232  15.362  1.00  0.00     0.299 C 
HETATM   15  C   UNL     1     -39.573 -52.053  14.893  1.00  0.00     0.198 C 
HETATM   16  O   UNL     1     -38.933 -53.296  14.588  1.00  0.00    -0.388 OA
HETATM   17  C   UNL     1     -39.725 -54.216  13.824  1.00  0.00     0.198 C 
HETATM   18  C   UNL     1     -41.206 -54.273  14.205  1.00  0.00     0.299 C 
ENDBRANCH   8  13
ENDBRANCH   7   8
ENDBRANCH   3   7
BRANCH   4  19
HETATM   19  C   UNL     1     -42.392 -47.970   9.875  1.00  0.00     0.108 A 
HETATM   20  C   UNL     1     -43.460 -47.570  10.678  1.00  0.00     0.049 A 
HETATM   21  C   UNL     1     -44.686 -47.264  10.084  1.00  0.00     0.005 A 
HETATM   22  C   UNL     1     -44.807 -47.362   8.707  1.00  0.00     0.017 A 
HETATM   23  C   UNL     1     -43.701 -47.766   7.982  1.00  0.00     0.089 A 
HETATM   24  N   UNL     1     -42.498 -48.077   8.537  1.00  0.00    -0.352 N 
ATOM     25  HN  UNL     1     -41.710 -48.378   7.964  1.00  0.00     0.166 HD
ENDBRANCH   4  19
TORSDOF 4
ENDMDL
MODEL 3
REMARK VINA RESULT:      -6.2      1.863      3.243
REMARK  4 active torsions:
REMARK  status: ('A' for Active; 'I' for Inactive)
REMARK       I    between atoms: C_2  and  N_3 
REMARK       I    between atoms: C_2  and  N_16 
REMARK    1  A    between atoms: N_3  and  C_4 
REMARK    2  A    between atoms: C_4  and  C_5 
REMARK    3  A    between atoms: C_5  and  N_10 
REMARK    4  A    between atoms: N_16  and  C_17 
ROOT
HETATM    1  O   UNL     1     -40.684 -52.981  11.885  1.00  0.00    -0.247 OA
HETATM    2  C   UNL     1     -41.706 -52.325  12.084  1.00  0.00     0.321 C 
HETATM    3  N   UNL     1     -41.789 -50.993  11.829  1.00  0.00    -0.340 N 
HETATM    4  N   UNL     1     -42.815 -52.970  12.532  1.00  0.00    -0.295 N 
HETATM    5  H   UNL     1     -42.585 -50.539  12.279  1.00  0.00     0.164 HD
HETATM    6  H   UNL     1     -42.666 -53.965  12.610  1.00  0.00     0.172 HD
ENDROOT
BRANCH   3   7
HETATM    7  C   UNL     1     -40.661 -50.177  11.407  1.00  0.00     0.167 C 
BRANCH   7   8
HETATM    8  C   UNL     1     -40.004 -49.146  12.423  1.00  0.00     0.184 C 
HETATM    9  C   UNL     1     -38.455 -49.247  12.323  1.00  0.00     0.054 C 
HETATM   10  C   UNL     1     -37.829 -48.694  13.600  1.00  0.00     0.076 C 
HETATM   11  S   UNL     1     -38.947 -49.157  14.948  1.00  0.00    -0.166 SA
HETATM   12  C   UNL     1     -40.239 -49.786  13.839  1.00  0.00     0.117 C 
BRANCH   8  13
HETATM   13  N   UNL     1     -40.425 -47.703  12.464  1.00  0.00     0.104 N 
HETATM   14  C   UNL     1     -41.619 -47.341  13.242  1.00  0.00     0.299 C 
HETATM   15  C   UNL     1     -42.916 -47.677  12.511  1.00  0.00     0.198 C 
HETATM   16  O   UNL     1     -43.002 -47.058  11.224  1.00  0.00    -0.388 OA
HETATM   17  C   UNL     1     -41.808 -47.130  10.434  1.00  0.00     0.198 C 
HETATM   18  C   UNL     1     -40.501 -46.943  11.209  1.00  0.00     0.299 C 
ENDBRANCH   8  13
ENDBRANCH   7   8
ENDBRANCH   3   7
BRANCH   4  19
HETATM   19  C   UNL     1     -44.078 -52.492  12.903  1.00  0.00     0.108 A 
HETATM   20  C   UNL     1     -44.185 -51.894  14.159  1.00  0.00     0.049 A 
HETATM   21  C   UNL     1     -45.423 -51.400  14.578  1.00  0.00     0.005 A 
HETATM   22  C   UNL     1     -46.513 -51.514  13.730  1.00  0.00     0.017 A 
HETATM   23  C   UNL     1     -46.323 -52.121  12.501  1.00  0.00     0.089 A 
HETATM   24  N   UNL     1     -45.130 -52.617  12.073  1.00  0.00    -0.352 N 
ATOM     25  HN  UNL     1     -45.037 -53.063  11.161  1.00  0.00     0.166 HD
ENDBRANCH   4  19
TORSDOF 4
ENDMDL
MODEL 4
REMARK VINA RESULT:      -5.9      2.644      5.702
REMARK  4 active torsions:
REMARK  status: ('A' for Active; 'I' for Inactive)
REMARK       I    between atoms: C_2  and  N_3 
REMARK       I    between atoms: C_2  and  N_16 
REMARK    1  A    between atoms: N_3  and  C_4 
REMARK    2  A    between atoms: C_4  and  C_5 
REMARK    3  A    between atoms: C_5  and  N_10 
REMARK    4  A    between atoms: N_16  and  C_17 
ROOT
HETATM    1  O   UNL     1     -40.529 -53.019  11.958  1.00  0.00    -0.247 OA
HETATM    2  C   UNL     1     -41.106 -51.933  11.941  1.00  0.00     0.321 C 
HETATM    3  N   UNL     1     -42.426 -51.794  12.234  1.00  0.00    -0.340 N 
HETATM    4  N   UNL     1     -40.382 -50.817  11.665  1.00  0.00    -0.295 N 
HETATM    5  H   UNL     1     -42.821 -50.904  11.928  1.00  0.00     0.164 HD
HETATM    6  H   UNL     1     -39.402 -51.025  11.542  1.00  0.00     0.172 HD
ENDROOT
BRANCH   3   7
HETATM    7  C   UNL     1     -43.322 -52.912  12.484  1.00  0.00     0.167 C 
BRANCH   7   8
HETATM    8  C   UNL     1     -44.282 -52.891  13.751  1.00  0.00     0.184 C 
HETATM    9  C   UNL     1     -45.611 -53.616  13.398  1.00  0.00     0.054 C 
HETATM   10  C   UNL     1     -46.707 -53.163  14.360  1.00  0.00     0.076 C 
HETATM   11  S   UNL     1     -46.382 -51.413  14.699  1.00  0.00    -0.166 SA
HETATM   12  C   UNL     1     -44.785 -51.404  13.838  1.00  0.00     0.117 C 
BRANCH   8  13
HETATM   13  N   UNL     1     -43.804 -53.324  15.110  1.00  0.00     0.104 N 
HETATM   14  C   UNL     1     -43.093 -52.348  15.949  1.00  0.00     0.299 C 
HETATM   15  C   UNL     1     -41.639 -52.159  15.521  1.00  0.00     0.198 C 
HETATM   16  O   UNL     1     -40.901 -53.384  15.516  1.00  0.00    -0.388 OA
HETATM   17  C   UNL     1     -41.581 -54.502  14.928  1.00  0.00     0.198 C 
HETATM   18  C   UNL     1     -43.077 -54.593  15.243  1.00  0.00     0.299 C 
ENDBRANCH   8  13
ENDBRANCH   7   8
ENDBRANCH   3   7
BRANCH   4  19
HETATM   19  C   UNL     1     -40.766 -49.478  11.512  1.00  0.00     0.108 A 
HETATM   20  C   UNL     1     -40.502 -48.618  12.578  1.00  0.00     0.049 A 
HETATM   21  C   UNL     1     -40.863 -47.273  12.477  1.00  0.00     0.005 A 
HETATM   22  C   UNL     1     -41.473 -46.827  11.315  1.00  0.00     0.017 A 
HETATM   23  C   UNL     1     -41.699 -47.744  10.305  1.00  0.00     0.089 A 
HETATM   24  N   UNL     1     -41.363 -49.061  10.381  1.00  0.00    -0.352 N 
ATOM     25  HN  UNL     1     -41.556 -49.704   9.613  1.00  0.00     0.166 HD
ENDBRANCH   4  19
TORSDOF 4
ENDMDL
MODEL 5
REMARK VINA RESULT:      -5.7      3.986      6.475
REMARK  4 active torsions:
REMARK  status: ('A' for Active; 'I' for Inactive)
REMARK       I    between atoms: C_2  and  N_3 
REMARK       I    between atoms: C_2  and  N_16 
REMARK    1  A    between atoms: N_3  and  C_4 
REMARK    2  A    between atoms: C_4  and  C_5 
REMARK    3  A    between atoms: C_5  and  N_10 
REMARK    4  A    between atoms: N_16  and  C_17 
ROOT
HETATM    1  O   UNL     1     -42.453 -48.163   9.828  1.00  0.00    -0.247 OA
HETATM    2  C   UNL     1     -41.529 -48.341  10.622  1.00  0.00     0.321 C 
HETATM    3  N   UNL     1     -41.209 -47.445  11.593  1.00  0.00    -0.340 N 
HETATM    4  N   UNL     1     -40.831 -49.504  10.557  1.00  0.00    -0.295 N 
HETATM    5  H   UNL     1     -40.282 -47.591  11.994  1.00  0.00     0.164 HD
HETATM    6  H   UNL     1     -41.202 -50.127   9.855  1.00  0.00     0.172 HD
ENDROOT
BRANCH   3   7
HETATM    7  C   UNL     1     -41.837 -46.140  11.730  1.00  0.00     0.167 C 
BRANCH   7   8
HETATM    8  C   UNL     1     -41.817 -45.394  13.133  1.00  0.00     0.184 C 
HETATM    9  C   UNL     1     -40.790 -46.093  14.069  1.00  0.00     0.054 C 
HETATM   10  C   UNL     1     -41.121 -45.762  15.522  1.00  0.00     0.076 C 
HETATM   11  S   UNL     1     -42.928 -45.684  15.618  1.00  0.00    -0.166 SA
HETATM   12  C   UNL     1     -43.164 -45.818  13.824  1.00  0.00     0.117 C 
BRANCH   8  13
HETATM   13  N   UNL     1     -41.668 -43.901  13.231  1.00  0.00     0.104 N 
HETATM   14  C   UNL     1     -42.800 -43.054  12.826  1.00  0.00     0.299 C 
HETATM   15  C   UNL     1     -42.917 -42.922  11.309  1.00  0.00     0.198 C 
HETATM   16  O   UNL     1     -41.724 -42.415  10.704  1.00  0.00    -0.388 OA
HETATM   17  C   UNL     1     -40.504 -42.996  11.184  1.00  0.00     0.198 C 
HETATM   18  C   UNL     1     -40.459 -43.264  12.691  1.00  0.00     0.299 C 
ENDBRANCH   8  13
ENDBRANCH   7   8
ENDBRANCH   3   7
BRANCH   4  19
HETATM   19  C   UNL     1     -39.710 -49.953  11.268  1.00  0.00     0.108 A 
HETATM   20  C   UNL     1     -39.950 -50.681  12.433  1.00  0.00     0.049 A 
HETATM   21  C   UNL     1     -38.867 -51.152  13.179  1.00  0.00     0.005 A 
HETATM   22  C   UNL     1     -37.581 -50.886  12.737  1.00  0.00     0.017 A 
HETATM   23  C   UNL     1     -37.429 -50.156  11.572  1.00  0.00     0.089 A 
HETATM   24  N   UNL     1     -38.467 -49.680  10.831  1.00  0.00    -0.352 N 
ATOM     25  HN  UNL     1     -38.308 -49.140   9.981  1.00  0.00     0.166 HD
ENDBRANCH   4  19
TORSDOF 4
ENDMDL
MODEL 6
REMARK VINA RESULT:      -5.6      2.667      6.187
REMARK  4 active torsions:
REMARK  status: ('A' for Active; 'I' for Inactive)
REMARK       I    between atoms: C_2  and  N_3 
REMARK       I    between atoms: C_2  and  N_16 
REMARK    1  A    between atoms: N_3  and  C_4 
REMARK    2  A    between atoms: C_4  and  C_5 
REMARK    3  A    between atoms: C_5  and  N_10 
REMARK    4  A    between atoms: N_16  and  C_17 
ROOT
HETATM    1  O   UNL     1     -39.860 -53.086  12.832  1.00  0.00    -0.247 OA
HETATM    2  C   UNL     1     -40.384 -51.976  12.751  1.00  0.00     0.321 C 
HETATM    3  N   UNL     1     -41.478 -51.622  13.475  1.00  0.00    -0.340 N 
HETATM    4  N   UNL     1     -39.817 -51.048  11.938  1.00  0.00    -0.295 N 
HETATM    5  H   UNL     1     -41.952 -50.791  13.120  1.00  0.00     0.164 HD
HETATM    6  H   UNL     1     -38.968 -51.390  11.511  1.00  0.00     0.172 HD
ENDROOT
BRANCH   3   7
HETATM    7  C   UNL     1     -42.214 -52.538  14.332  1.00  0.00     0.167 C 
BRANCH   7   8
HETATM    8  C   UNL     1     -43.436 -52.006  15.198  1.00  0.00     0.184 C 
HETATM    9  C   UNL     1     -43.371 -50.454  15.273  1.00  0.00     0.054 C 
HETATM   10  C   UNL     1     -44.171 -49.971  16.481  1.00  0.00     0.076 C 
HETATM   11  S   UNL     1     -43.926 -51.217  17.773  1.00  0.00    -0.166 SA
HETATM   12  C   UNL     1     -43.060 -52.377  16.679  1.00  0.00     0.117 C 
BRANCH   8  13
HETATM   13  N   UNL     1     -44.847 -52.449  14.927  1.00  0.00     0.104 N 
HETATM   14  C   UNL     1     -45.204 -53.853  15.183  1.00  0.00     0.299 C 
HETATM   15  C   UNL     1     -44.720 -54.789  14.078  1.00  0.00     0.198 C 
HETATM   16  O   UNL     1     -45.209 -54.419  12.786  1.00  0.00    -0.388 OA
HETATM   17  C   UNL     1     -45.139 -53.018  12.487  1.00  0.00     0.198 C 
HETATM   18  C   UNL     1     -45.481 -52.086  13.653  1.00  0.00     0.299 C 
ENDBRANCH   8  13
ENDBRANCH   7   8
ENDBRANCH   3   7
BRANCH   4  19
HETATM   19  C   UNL     1     -40.213 -49.749  11.596  1.00  0.00     0.108 A 
HETATM   20  C   UNL     1     -39.461 -48.698  12.120  1.00  0.00     0.049 A 
HETATM   21  C   UNL     1     -39.814 -47.383  11.810  1.00  0.00     0.005 A 
HETATM   22  C   UNL     1     -40.903 -47.157  10.983  1.00  0.00     0.017 A 
HETATM   23  C   UNL     1     -41.597 -48.254  10.505  1.00  0.00     0.089 A 
HETATM   24  N   UNL     1     -41.278 -49.544  10.798  1.00  0.00    -0.352 N 
ATOM     25  HN  UNL     1     -41.823 -50.323  10.428  1.00  0.00     0.166 HD
ENDBRANCH   4  19
TORSDOF 4
ENDMDL
MODEL 7
REMARK VINA RESULT:      -5.4      2.445      3.349
REMARK  4 active torsions:
REMARK  status: ('A' for Active; 'I' for Inactive)
REMARK       I    between atoms: C_2  and  N_3 
REMARK       I    between atoms: C_2  and  N_16 
REMARK    1  A    between atoms: N_3  and  C_4 
REMARK    2  A    between atoms: C_4  and  C_5 
REMARK    3  A    between atoms: C_5  and  N_10 
REMARK    4  A    between atoms: N_16  and  C_17 
ROOT
HETATM    1  O   UNL     1     -39.105 -51.739  12.482  1.00  0.00    -0.247 OA
HETATM    2  C   UNL     1     -40.264 -51.923  12.852  1.00  0.00     0.321 C 
HETATM    3  N   UNL     1     -41.059 -50.920  13.310  1.00  0.00    -0.340 N 
HETATM    4  N   UNL     1     -40.788 -53.172  12.754  1.00  0.00    -0.295 N 
HETATM    5  H   UNL     1     -41.880 -51.249  13.819  1.00  0.00     0.164 HD
HETATM    6  H   UNL     1     -40.140 -53.819  12.328  1.00  0.00     0.172 HD
ENDROOT
BRANCH   3   7
HETATM    7  C   UNL     1     -40.602 -49.555  13.521  1.00  0.00     0.167 C 
BRANCH   7   8
HETATM    8  C   UNL     1     -41.312 -48.354  12.759  1.00  0.00     0.184 C 
HETATM    9  C   UNL     1     -42.827 -48.670  12.607  1.00  0.00     0.054 C 
HETATM   10  C   UNL     1     -43.405 -47.839  11.464  1.00  0.00     0.076 C 
HETATM   11  S   UNL     1     -42.100 -47.731  10.212  1.00  0.00    -0.166 SA
HETATM   12  C   UNL     1     -40.840 -48.502  11.266  1.00  0.00     0.117 C 
BRANCH   8  13
HETATM   13  N   UNL     1     -41.125 -46.926  13.190  1.00  0.00     0.104 N 
HETATM   14  C   UNL     1     -39.833 -46.275  12.926  1.00  0.00     0.299 C 
HETATM   15  C   UNL     1     -38.753 -46.695  13.920  1.00  0.00     0.198 C 
HETATM   16  O   UNL     1     -39.124 -46.443  15.278  1.00  0.00    -0.388 OA
HETATM   17  C   UNL     1     -40.464 -46.819  15.622  1.00  0.00     0.198 C 
HETATM   18  C   UNL     1     -41.518 -46.531  14.549  1.00  0.00     0.299 C 
ENDBRANCH   8  13
ENDBRANCH   7   8
ENDBRANCH   3   7
BRANCH   4  19
HETATM   19  C   UNL     1     -42.028 -53.690  13.148  1.00  0.00     0.108 A 
HETATM   20  C   UNL     1     -42.063 -54.413  14.340  1.00  0.00     0.049 A 
HETATM   21  C   UNL     1     -43.275 -54.951  14.778  1.00  0.00     0.005 A 
HETATM   22  C   UNL     1     -44.414 -54.748  14.016  1.00  0.00     0.017 A 
HETATM   23  C   UNL     1     -44.295 -54.020  12.846  1.00  0.00     0.089 A 
HETATM   24  N   UNL     1     -43.125 -53.491  12.393  1.00  0.00    -0.352 N 
ATOM     25  HN  UNL     1     -43.082 -52.967  11.520  1.00  0.00     0.166 HD
ENDBRANCH   4  19
TORSDOF 4
ENDMDL
MODEL 8
REMARK VINA RESULT:      -5.3      2.780      5.418
REMARK  4 active torsions:
REMARK  status: ('A' for Active; 'I' for Inactive)
REMARK       I    between atoms: C_2  and  N_3 
REMARK       I    between atoms: C_2  and  N_16 
REMARK    1  A    between atoms: N_3  and  C_4 
REMARK    2  A    between atoms: C_4  and  C_5 
REMARK    3  A    between atoms: C_5  and  N_10 
REMARK    4  A    between atoms: N_16  and  C_17 
ROOT
HETATM    1  O   UNL     1     -39.075 -49.244  13.206  1.00  0.00    -0.247 OA
HETATM    2  C   UNL     1     -40.151 -48.851  12.754  1.00  0.00     0.321 C 
HETATM    3  N   UNL     1     -41.343 -49.127  13.345  1.00  0.00    -0.340 N 
HETATM    4  N   UNL     1     -40.142 -48.068  11.644  1.00  0.00    -0.295 N 
HETATM    5  H   UNL     1     -42.147 -48.972  12.735  1.00  0.00     0.164 HD
HETATM    6  H   UNL     1     -39.203 -47.861  11.336  1.00  0.00     0.172 HD
ENDROOT
BRANCH   3   7
HETATM    7  C   UNL     1     -41.494 -50.001  14.498  1.00  0.00     0.167 C 
BRANCH   7   8
HETATM    8  C   UNL     1     -42.680 -51.058  14.542  1.00  0.00     0.184 C 
HETATM    9  C   UNL     1     -43.988 -50.378  14.047  1.00  0.00     0.054 C 
HETATM   10  C   UNL     1     -45.193 -51.162  14.563  1.00  0.00     0.076 C 
HETATM   11  S   UNL     1     -44.734 -51.756  16.212  1.00  0.00    -0.166 SA
HETATM   12  C   UNL     1     -43.006 -51.219  16.072  1.00  0.00     0.117 C 
BRANCH   8  13
HETATM   13  N   UNL     1     -42.544 -52.423  13.926  1.00  0.00     0.104 N 
HETATM   14  C   UNL     1     -41.509 -53.329  14.447  1.00  0.00     0.299 C 
HETATM   15  C   UNL     1     -40.115 -52.980  13.932  1.00  0.00     0.198 C 
HETATM   16  O   UNL     1     -40.039 -52.970  12.504  1.00  0.00    -0.388 OA
HETATM   17  C   UNL     1     -41.127 -52.311  11.842  1.00  0.00     0.198 C 
HETATM   18  C   UNL     1     -42.507 -52.548  12.463  1.00  0.00     0.299 C 
ENDBRANCH   8  13
ENDBRANCH   7   8
ENDBRANCH   3   7
BRANCH   4  19
HETATM   19  C   UNL     1     -41.187 -47.536  10.878  1.00  0.00     0.108 A 
HETATM   20  C   UNL     1     -41.545 -46.211  11.128  1.00  0.00     0.049 A 
HETATM   21  C   UNL     1     -42.581 -45.632  10.391  1.00  0.00     0.005 A 
HETATM   22  C   UNL     1     -43.223 -46.391   9.426  1.00  0.00     0.017 A 
HETATM   23  C   UNL     1     -42.808 -47.697   9.240  1.00  0.00     0.089 A 
HETATM   24  N   UNL     1     -41.807 -48.287   9.949  1.00  0.00    -0.352 N 
ATOM     25  HN  UNL     1     -41.539 -49.256   9.783  1.00  0.00     0.166 HD
ENDBRANCH   4  19
TORSDOF 4
ENDMDL
MODEL 9
REMARK VINA RESULT:      -5.3      1.844      1.916
REMARK  4 active torsions:
REMARK  status: ('A' for Active; 'I' for Inactive)
REMARK       I    between atoms: C_2  and  N_3 
REMARK       I    between atoms: C_2  and  N_16 
REMARK    1  A    between atoms: N_3  and  C_4 
REMARK    2  A    between atoms: C_4  and  C_5 
REMARK    3  A    between atoms: C_5  and  N_10 
REMARK    4  A    between atoms: N_16  and  C_17 
ROOT
HETATM    1  O   UNL     1     -40.116 -53.785  12.927  1.00  0.00    -0.247 OA
HETATM    2  C   UNL     1     -41.301 -53.514  13.122  1.00  0.00     0.321 C 
HETATM    3  N   UNL     1     -41.887 -52.385  12.645  1.00  0.00    -0.340 N 
HETATM    4  N   UNL     1     -42.068 -54.406  13.802  1.00  0.00    -0.295 N 
HETATM    5  H   UNL     1     -42.776 -52.164  13.096  1.00  0.00     0.164 HD
HETATM    6  H   UNL     1     -41.553 -55.241  14.039  1.00  0.00     0.172 HD
ENDROOT
BRANCH   3   7
HETATM    7  C   UNL     1     -41.166 -51.325  11.958  1.00  0.00     0.167 C 
BRANCH   7   8
HETATM    8  C   UNL     1     -41.151 -49.855  12.562  1.00  0.00     0.184 C 
HETATM    9  C   UNL     1     -42.282 -49.726  13.621  1.00  0.00     0.054 C 
HETATM   10  C   UNL     1     -42.628 -48.252  13.816  1.00  0.00     0.076 C 
HETATM   11  S   UNL     1     -42.456 -47.478  12.187  1.00  0.00    -0.166 SA
HETATM   12  C   UNL     1     -41.733 -48.952  11.414  1.00  0.00     0.117 C 
BRANCH   8  13
HETATM   13  N   UNL     1     -39.886 -49.228  13.082  1.00  0.00     0.104 N 
HETATM   14  C   UNL     1     -38.881 -48.767  12.112  1.00  0.00     0.299 C 
HETATM   15  C   UNL     1     -38.053 -49.914  11.539  1.00  0.00     0.198 C 
HETATM   16  O   UNL     1     -37.396 -50.682  12.552  1.00  0.00    -0.388 OA
HETATM   17  C   UNL     1     -38.206 -51.009  13.689  1.00  0.00     0.198 C 
HETATM   18  C   UNL     1     -39.146 -49.897  14.161  1.00  0.00     0.299 C 
ENDBRANCH   8  13
ENDBRANCH   7   8
ENDBRANCH   3   7
BRANCH   4  19
HETATM   19  C   UNL     1     -43.402 -54.347  14.226  1.00  0.00     0.108 A 
HETATM   20  C   UNL     1     -43.630 -53.976  15.551  1.00  0.00     0.049 A 
HETATM   21  C   UNL     1     -44.942 -53.901  16.023  1.00  0.00     0.005 A 
HETATM   22  C   UNL     1     -45.985 -54.196  15.159  1.00  0.00     0.017 A 
HETATM   23  C   UNL     1     -45.673 -54.556  13.861  1.00  0.00     0.089 A 
HETATM   24  N   UNL     1     -44.404 -54.643  13.377  1.00  0.00    -0.352 N 
ATOM     25  HN  UNL     1     -44.220 -54.920  12.413  1.00  0.00     0.166 HD
ENDBRANCH   4  19
TORSDOF 4
ENDMDL
