MODEL 1
REMARK VINA RESULT:      -5.7      0.000      0.000
REMARK  4 active torsions:
REMARK  status: ('A' for Active; 'I' for Inactive)
REMARK    1  A    between atoms: C_2  and  N_3 
REMARK       I    between atoms: N_3  and  C_4 
REMARK       I    between atoms: C_4  and  N_6 
REMARK    2  A    between atoms: N_6  and  C_7 
REMARK    3  A    between atoms: C_7  and  C_8 
REMARK    4  A    between atoms: C_14  and  N_15 
ROOT
HETATM    1  C   UNL     1     -43.564 -47.436  10.722  1.00  0.00     0.004 A 
HETATM    2  C   UNL     1     -44.697 -47.743   9.940  1.00  0.00     0.014 A 
HETATM    3  C   UNL     1     -45.204 -46.821   9.040  1.00  0.00     0.018 A 
HETATM    4  C   UNL     1     -44.549 -45.617   8.941  1.00  0.00     0.089 A 
HETATM    5  N   UNL     1     -43.461 -45.288   9.675  1.00  0.00    -0.352 N 
ATOM      6  HN  UNL     1     -43.013 -44.381   9.548  1.00  0.00     0.166 HD
HETATM    7  C   UNL     1     -42.967 -46.170  10.582  1.00  0.00     0.111 A 
ENDROOT
BRANCH   1   8
HETATM    8  C   UNL     1     -43.040 -48.545  11.597  1.00  0.00     0.166 C 
BRANCH   8   9
HETATM    9  N   UNL     1     -41.888 -49.200  11.028  1.00  0.00    -0.339 N 
HETATM   10  C   UNL     1     -40.724 -49.222  11.751  1.00  0.00     0.316 C 
HETATM   11  N   UNL     1     -39.699 -49.789  11.042  1.00  0.00    -0.343 N 
HETATM   12  O   UNL     1     -40.624 -48.798  12.895  1.00  0.00    -0.247 OA
HETATM   13  H   UNL     1     -39.990 -50.417  10.309  1.00  0.00     0.164 HD
HETATM   14  H   UNL     1     -41.790 -49.145  10.024  1.00  0.00     0.164 HD
BRANCH  11  15
HETATM   15  C   UNL     1     -38.474 -50.105  11.747  1.00  0.00     0.120 C 
HETATM   16  C   UNL     1     -37.264 -50.046  10.839  1.00  0.00     0.026 C 
ENDBRANCH  11  15
ENDBRANCH   8   9
ENDBRANCH   1   8
BRANCH   7  17
HETATM   17  N   UNL     1     -41.866 -45.745  11.291  1.00  0.00    -0.363 N 
HETATM   18  C   UNL     1     -41.907 -45.224  12.659  1.00  0.00     0.150 C 
HETATM   19  C   UNL     1     -41.065 -43.949  12.812  1.00  0.00     0.187 C 
HETATM   20  O   UNL     1     -39.739 -44.114  12.297  1.00  0.00    -0.388 OA
HETATM   21  C   UNL     1     -39.806 -44.416  10.894  1.00  0.00     0.187 C 
HETATM   22  C   UNL     1     -40.544 -45.738  10.643  1.00  0.00     0.150 C 
ENDBRANCH   7  17
TORSDOF 4
ENDMDL
MODEL 2
REMARK VINA RESULT:      -5.6      1.705      2.133
REMARK  4 active torsions:
REMARK  status: ('A' for Active; 'I' for Inactive)
REMARK    1  A    between atoms: C_2  and  N_3 
REMARK       I    between atoms: N_3  and  C_4 
REMARK       I    between atoms: C_4  and  N_6 
REMARK    2  A    between atoms: N_6  and  C_7 
REMARK    3  A    between atoms: C_7  and  C_8 
REMARK    4  A    between atoms: C_14  and  N_15 
ROOT
HETATM    1  C   UNL     1     -42.238 -46.963  10.258  1.00  0.00     0.004 A 
HETATM    2  C   UNL     1     -42.958 -47.697   9.292  1.00  0.00     0.014 A 
HETATM    3  C   UNL     1     -44.010 -47.115   8.605  1.00  0.00     0.018 A 
HETATM    4  C   UNL     1     -44.302 -45.805   8.901  1.00  0.00     0.089 A 
HETATM    5  N   UNL     1     -43.634 -45.072   9.822  1.00  0.00    -0.352 N 
ATOM      6  HN  UNL     1     -43.894 -44.100   9.988  1.00  0.00     0.166 HD
HETATM    7  C   UNL     1     -42.617 -45.636  10.523  1.00  0.00     0.111 A 
ENDROOT
BRANCH   1   8
HETATM    8  C   UNL     1     -41.053 -47.661  10.875  1.00  0.00     0.166 C 
BRANCH   8   9
HETATM    9  N   UNL     1     -41.032 -49.074  10.587  1.00  0.00    -0.339 N 
HETATM   10  C   UNL     1     -41.015 -49.955  11.635  1.00  0.00     0.316 C 
HETATM   11  N   UNL     1     -40.896 -51.250  11.207  1.00  0.00    -0.343 N 
HETATM   12  O   UNL     1     -41.110 -49.621  12.809  1.00  0.00    -0.247 OA
HETATM   13  H   UNL     1     -41.206 -51.411  10.261  1.00  0.00     0.164 HD
HETATM   14  H   UNL     1     -40.528 -49.356   9.757  1.00  0.00     0.164 HD
BRANCH  11  15
HETATM   15  C   UNL     1     -41.105 -52.312  12.169  1.00  0.00     0.120 C 
HETATM   16  C   UNL     1     -42.571 -52.647  12.338  1.00  0.00     0.026 C 
ENDBRANCH  11  15
ENDBRANCH   8   9
ENDBRANCH   1   8
BRANCH   7  17
HETATM   17  N   UNL     1     -42.004 -44.819  11.446  1.00  0.00    -0.363 N 
HETATM   18  C   UNL     1     -42.459 -44.633  12.826  1.00  0.00     0.150 C 
HETATM   19  C   UNL     1     -42.469 -43.153  13.232  1.00  0.00     0.187 C 
HETATM   20  O   UNL     1     -41.224 -42.506  12.943  1.00  0.00    -0.388 OA
HETATM   21  C   UNL     1     -40.976 -42.560  11.529  1.00  0.00     0.187 C 
HETATM   22  C   UNL     1     -40.843 -44.009  11.041  1.00  0.00     0.150 C 
ENDBRANCH   7  17
TORSDOF 4
ENDMDL
MODEL 3
REMARK VINA RESULT:      -5.3      2.973      7.137
REMARK  4 active torsions:
REMARK  status: ('A' for Active; 'I' for Inactive)
REMARK    1  A    between atoms: C_2  and  N_3 
REMARK       I    between atoms: N_3  and  C_4 
REMARK       I    between atoms: C_4  and  N_6 
REMARK    2  A    between atoms: N_6  and  C_7 
REMARK    3  A    between atoms: C_7  and  C_8 
REMARK    4  A    between atoms: C_14  and  N_15 
ROOT
HETATM    1  C   UNL     1     -39.864 -50.478  12.113  1.00  0.00     0.004 A 
HETATM    2  C   UNL     1     -38.813 -49.704  11.578  1.00  0.00     0.014 A 
HETATM    3  C   UNL     1     -37.501 -49.941  11.951  1.00  0.00     0.018 A 
HETATM    4  C   UNL     1     -37.280 -50.962  12.846  1.00  0.00     0.089 A 
HETATM    5  N   UNL     1     -38.263 -51.723  13.380  1.00  0.00    -0.352 N 
ATOM      6  HN  UNL     1     -38.033 -52.473  14.031  1.00  0.00     0.166 HD
HETATM    7  C   UNL     1     -39.557 -51.485  13.045  1.00  0.00     0.111 A 
ENDROOT
BRANCH   1   8
HETATM    8  C   UNL     1     -41.240 -50.198  11.566  1.00  0.00     0.166 C 
BRANCH   8   9
HETATM    9  N   UNL     1     -41.240 -49.146  10.580  1.00  0.00    -0.339 N 
HETATM   10  C   UNL     1     -42.195 -48.168  10.667  1.00  0.00     0.316 C 
HETATM   11  N   UNL     1     -42.128 -47.301   9.610  1.00  0.00    -0.343 N 
HETATM   12  O   UNL     1     -42.997 -48.079  11.586  1.00  0.00    -0.247 OA
HETATM   13  H   UNL     1     -41.228 -47.255   9.157  1.00  0.00     0.164 HD
HETATM   14  H   UNL     1     -40.947 -49.404   9.648  1.00  0.00     0.164 HD
BRANCH  11  15
HETATM   15  C   UNL     1     -42.905 -46.079   9.677  1.00  0.00     0.120 C 
HETATM   16  C   UNL     1     -44.178 -46.169   8.862  1.00  0.00     0.026 C 
ENDBRANCH  11  15
ENDBRANCH   8   9
ENDBRANCH   1   8
BRANCH   7  17
HETATM   17  N   UNL     1     -40.489 -52.301  13.646  1.00  0.00    -0.363 N 
HETATM   18  C   UNL     1     -40.940 -53.586  13.108  1.00  0.00     0.150 C 
HETATM   19  C   UNL     1     -42.467 -53.730  13.169  1.00  0.00     0.187 C 
HETATM   20  O   UNL     1     -42.984 -53.436  14.472  1.00  0.00    -0.388 OA
HETATM   21  C   UNL     1     -42.668 -52.077  14.816  1.00  0.00     0.187 C 
HETATM   22  C   UNL     1     -41.150 -51.858  14.884  1.00  0.00     0.150 C 
ENDBRANCH   7  17
TORSDOF 4
ENDMDL
MODEL 4
REMARK VINA RESULT:      -5.1      3.819      6.896
REMARK  4 active torsions:
REMARK  status: ('A' for Active; 'I' for Inactive)
REMARK    1  A    between atoms: C_2  and  N_3 
REMARK       I    between atoms: N_3  and  C_4 
REMARK       I    between atoms: C_4  and  N_6 
REMARK    2  A    between atoms: N_6  and  C_7 
REMARK    3  A    between atoms: C_7  and  C_8 
REMARK    4  A    between atoms: C_14  and  N_15 
ROOT
HETATM    1  C   UNL     1     -42.232 -50.693  12.819  1.00  0.00     0.004 A 
HETATM    2  C   UNL     1     -41.071 -51.246  12.239  1.00  0.00     0.014 A 
HETATM    3  C   UNL     1     -40.868 -52.615  12.236  1.00  0.00     0.018 A 
HETATM    4  C   UNL     1     -41.846 -53.395  12.807  1.00  0.00     0.089 A 
HETATM    5  N   UNL     1     -42.970 -52.899  13.374  1.00  0.00    -0.352 N 
ATOM      6  HN  UNL     1     -43.664 -53.531  13.773  1.00  0.00     0.166 HD
HETATM    7  C   UNL     1     -43.172 -51.556  13.409  1.00  0.00     0.111 A 
ENDROOT
BRANCH   1   8
HETATM    8  C   UNL     1     -42.398 -49.202  12.682  1.00  0.00     0.166 C 
BRANCH   8   9
HETATM    9  N   UNL     1     -43.331 -48.843  11.643  1.00  0.00    -0.339 N 
HETATM   10  C   UNL     1     -42.898 -48.038  10.623  1.00  0.00     0.316 C 
HETATM   11  N   UNL     1     -43.917 -47.704   9.773  1.00  0.00    -0.343 N 
HETATM   12  O   UNL     1     -41.736 -47.675  10.487  1.00  0.00    -0.247 OA
HETATM   13  H   UNL     1     -44.693 -48.348   9.772  1.00  0.00     0.164 HD
HETATM   14  H   UNL     1     -44.295 -48.727  11.925  1.00  0.00     0.164 HD
BRANCH  11  15
HETATM   15  C   UNL     1     -43.580 -47.063   8.518  1.00  0.00     0.120 C 
HETATM   16  C   UNL     1     -43.439 -48.061   7.388  1.00  0.00     0.026 C 
ENDBRANCH  11  15
ENDBRANCH   8   9
ENDBRANCH   1   8
BRANCH   7  17
HETATM   17  N   UNL     1     -44.337 -51.143  14.015  1.00  0.00    -0.363 N 
HETATM   18  C   UNL     1     -44.425 -50.622  15.381  1.00  0.00     0.150 C 
HETATM   19  C   UNL     1     -45.595 -51.242  16.157  1.00  0.00     0.187 C 
HETATM   20  O   UNL     1     -46.826 -51.164  15.430  1.00  0.00    -0.388 OA
HETATM   21  C   UNL     1     -46.698 -51.891  14.197  1.00  0.00     0.187 C 
HETATM   22  C   UNL     1     -45.616 -51.278  13.298  1.00  0.00     0.150 C 
ENDBRANCH   7  17
TORSDOF 4
ENDMDL
MODEL 5
REMARK VINA RESULT:      -5.1      5.405      8.135
REMARK  4 active torsions:
REMARK  status: ('A' for Active; 'I' for Inactive)
REMARK    1  A    between atoms: C_2  and  N_3 
REMARK       I    between atoms: N_3  and  C_4 
REMARK       I    between atoms: C_4  and  N_6 
REMARK    2  A    between atoms: N_6  and  C_7 
REMARK    3  A    between atoms: C_7  and  C_8 
REMARK    4  A    between atoms: C_14  and  N_15 
ROOT
HETATM    1  C   UNL     1     -42.314 -54.108  13.650  1.00  0.00     0.004 A 
HETATM    2  C   UNL     1     -43.501 -54.051  12.891  1.00  0.00     0.014 A 
HETATM    3  C   UNL     1     -44.737 -54.029  13.515  1.00  0.00     0.018 A 
HETATM    4  C   UNL     1     -44.745 -54.052  14.890  1.00  0.00     0.089 A 
HETATM    5  N   UNL     1     -43.626 -54.109  15.649  1.00  0.00    -0.352 N 
ATOM      6  HN  UNL     1     -43.698 -54.113  16.666  1.00  0.00     0.166 HD
HETATM    7  C   UNL     1     -42.407 -54.158  15.053  1.00  0.00     0.111 A 
ENDROOT
BRANCH   1   8
HETATM    8  C   UNL     1     -41.025 -54.031  12.874  1.00  0.00     0.166 C 
BRANCH   8   9
HETATM    9  N   UNL     1     -41.065 -53.034  11.833  1.00  0.00    -0.339 N 
HETATM   10  C   UNL     1     -40.708 -51.749  12.143  1.00  0.00     0.316 C 
HETATM   11  N   UNL     1     -40.892 -50.903  11.083  1.00  0.00    -0.343 N 
HETATM   12  O   UNL     1     -40.266 -51.408  13.232  1.00  0.00    -0.247 OA
HETATM   13  H   UNL     1     -40.887 -51.351  10.179  1.00  0.00     0.164 HD
HETATM   14  H   UNL     1     -41.789 -53.142  11.136  1.00  0.00     0.164 HD
BRANCH  11  15
HETATM   15  C   UNL     1     -40.339 -49.567  11.169  1.00  0.00     0.120 C 
HETATM   16  C   UNL     1     -41.372 -48.502  10.870  1.00  0.00     0.026 C 
ENDBRANCH  11  15
ENDBRANCH   8   9
ENDBRANCH   1   8
BRANCH   7  17
HETATM   17  N   UNL     1     -41.328 -54.226  15.904  1.00  0.00    -0.363 N 
HETATM   18  C   UNL     1     -40.598 -53.064  16.416  1.00  0.00     0.150 C 
HETATM   19  C   UNL     1     -39.078 -53.256  16.325  1.00  0.00     0.187 C 
HETATM   20  O   UNL     1     -38.656 -54.500  16.897  1.00  0.00    -0.388 OA
HETATM   21  C   UNL     1     -39.268 -55.585  16.181  1.00  0.00     0.187 C 
HETATM   22  C   UNL     1     -40.798 -55.541  16.301  1.00  0.00     0.150 C 
ENDBRANCH   7  17
TORSDOF 4
ENDMDL
MODEL 6
REMARK VINA RESULT:      -5.1      2.269      5.726
REMARK  4 active torsions:
REMARK  status: ('A' for Active; 'I' for Inactive)
REMARK    1  A    between atoms: C_2  and  N_3 
REMARK       I    between atoms: N_3  and  C_4 
REMARK       I    between atoms: C_4  and  N_6 
REMARK    2  A    between atoms: N_6  and  C_7 
REMARK    3  A    between atoms: C_7  and  C_8 
REMARK    4  A    between atoms: C_14  and  N_15 
ROOT
HETATM    1  C   UNL     1     -40.191 -46.470  12.437  1.00  0.00     0.004 A 
HETATM    2  C   UNL     1     -40.656 -45.178  12.762  1.00  0.00     0.014 A 
HETATM    3  C   UNL     1     -40.694 -44.753  14.079  1.00  0.00     0.018 A 
HETATM    4  C   UNL     1     -40.252 -45.637  15.035  1.00  0.00     0.089 A 
HETATM    5  N   UNL     1     -39.801 -46.882  14.760  1.00  0.00    -0.352 N 
ATOM      6  HN  UNL     1     -39.476 -47.487  15.514  1.00  0.00     0.166 HD
HETATM    7  C   UNL     1     -39.781 -47.325  13.476  1.00  0.00     0.111 A 
ENDROOT
BRANCH   1   8
HETATM    8  C   UNL     1     -40.100 -46.793  10.968  1.00  0.00     0.166 C 
BRANCH   8   9
HETATM    9  N   UNL     1     -41.222 -47.571  10.503  1.00  0.00    -0.339 N 
HETATM   10  C   UNL     1     -42.266 -46.919   9.901  1.00  0.00     0.316 C 
HETATM   11  N   UNL     1     -43.293 -47.774   9.606  1.00  0.00    -0.343 N 
HETATM   12  O   UNL     1     -42.266 -45.722   9.648  1.00  0.00    -0.247 OA
HETATM   13  H   UNL     1     -43.024 -48.741   9.511  1.00  0.00     0.164 HD
HETATM   14  H   UNL     1     -41.460 -48.387  11.049  1.00  0.00     0.164 HD
BRANCH  11  15
HETATM   15  C   UNL     1     -44.362 -47.292   8.754  1.00  0.00     0.120 C 
HETATM   16  C   UNL     1     -45.721 -47.768   9.220  1.00  0.00     0.026 C 
ENDBRANCH  11  15
ENDBRANCH   8   9
ENDBRANCH   1   8
BRANCH   7  17
HETATM   17  N   UNL     1     -39.318 -48.608  13.293  1.00  0.00    -0.363 N 
HETATM   18  C   UNL     1     -37.918 -48.959  13.042  1.00  0.00     0.150 C 
HETATM   19  C   UNL     1     -37.778 -49.974  11.899  1.00  0.00     0.187 C 
HETATM   20  O   UNL     1     -38.635 -51.108  12.077  1.00  0.00    -0.388 OA
HETATM   21  C   UNL     1     -40.004 -50.673  12.097  1.00  0.00     0.187 C 
HETATM   22  C   UNL     1     -40.272 -49.729  13.277  1.00  0.00     0.150 C 
ENDBRANCH   7  17
TORSDOF 4
ENDMDL
MODEL 7
REMARK VINA RESULT:      -5.1      5.744      8.398
REMARK  4 active torsions:
REMARK  status: ('A' for Active; 'I' for Inactive)
REMARK    1  A    between atoms: C_2  and  N_3 
REMARK       I    between atoms: N_3  and  C_4 
REMARK       I    between atoms: C_4  and  N_6 
REMARK    2  A    between atoms: N_6  and  C_7 
REMARK    3  A    between atoms: C_7  and  C_8 
REMARK    4  A    between atoms: C_14  and  N_15 
ROOT
HETATM    1  C   UNL     1     -40.371 -52.109  12.844  1.00  0.00     0.004 A 
HETATM    2  C   UNL     1     -40.110 -50.855  12.254  1.00  0.00     0.014 A 
HETATM    3  C   UNL     1     -39.247 -49.957  12.857  1.00  0.00     0.018 A 
HETATM    4  C   UNL     1     -38.658 -50.350  14.036  1.00  0.00     0.089 A 
HETATM    5  N   UNL     1     -38.886 -51.544  14.631  1.00  0.00    -0.352 N 
ATOM      6  HN  UNL     1     -38.411 -51.781  15.502  1.00  0.00     0.166 HD
HETATM    7  C   UNL     1     -39.751 -52.425  14.066  1.00  0.00     0.111 A 
ENDROOT
BRANCH   1   8
HETATM    8  C   UNL     1     -41.249 -53.046  12.055  1.00  0.00     0.166 C 
BRANCH   8   9
HETATM    9  N   UNL     1     -42.565 -52.504  11.820  1.00  0.00    -0.339 N 
HETATM   10  C   UNL     1     -43.623 -53.035  12.510  1.00  0.00     0.316 C 
HETATM   11  N   UNL     1     -44.813 -52.489  12.109  1.00  0.00    -0.343 N 
HETATM   12  O   UNL     1     -43.510 -53.882  13.385  1.00  0.00    -0.247 OA
HETATM   13  H   UNL     1     -44.737 -51.576  11.688  1.00  0.00     0.164 HD
HETATM   14  H   UNL     1     -42.758 -52.184  10.882  1.00  0.00     0.164 HD
BRANCH  11  15
HETATM   15  C   UNL     1     -45.993 -52.763  12.903  1.00  0.00     0.120 C 
HETATM   16  C   UNL     1     -46.459 -51.545  13.672  1.00  0.00     0.026 C 
ENDBRANCH  11  15
ENDBRANCH   8   9
ENDBRANCH   1   8
BRANCH   7  17
HETATM   17  N   UNL     1     -39.930 -53.608  14.748  1.00  0.00    -0.363 N 
HETATM   18  C   UNL     1     -40.933 -53.823  15.793  1.00  0.00     0.150 C 
HETATM   19  C   UNL     1     -40.343 -54.542  17.014  1.00  0.00     0.187 C 
HETATM   20  O   UNL     1     -39.627 -55.727  16.649  1.00  0.00    -0.388 OA
HETATM   21  C   UNL     1     -38.531 -55.377  15.788  1.00  0.00     0.187 C 
HETATM   22  C   UNL     1     -39.028 -54.742  14.482  1.00  0.00     0.150 C 
ENDBRANCH   7  17
TORSDOF 4
ENDMDL
MODEL 8
REMARK VINA RESULT:      -5.0      4.162      6.894
REMARK  4 active torsions:
REMARK  status: ('A' for Active; 'I' for Inactive)
REMARK    1  A    between atoms: C_2  and  N_3 
REMARK       I    between atoms: N_3  and  C_4 
REMARK       I    between atoms: C_4  and  N_6 
REMARK    2  A    between atoms: N_6  and  C_7 
REMARK    3  A    between atoms: C_7  and  C_8 
REMARK    4  A    between atoms: C_14  and  N_15 
ROOT
HETATM    1  C   UNL     1     -44.549 -51.437  14.132  1.00  0.00     0.004 A 
HETATM    2  C   UNL     1     -45.926 -51.257  14.382  1.00  0.00     0.014 A 
HETATM    3  C   UNL     1     -46.737 -52.341  14.674  1.00  0.00     0.018 A 
HETATM    4  C   UNL     1     -46.138 -53.578  14.718  1.00  0.00     0.089 A 
HETATM    5  N   UNL     1     -44.822 -53.787  14.482  1.00  0.00    -0.352 N 
ATOM      6  HN  UNL     1     -44.435 -54.728  14.540  1.00  0.00     0.166 HD
HETATM    7  C   UNL     1     -44.018 -52.738  14.168  1.00  0.00     0.111 A 
ENDROOT
BRANCH   1   8
HETATM    8  C   UNL     1     -43.743 -50.182  13.920  1.00  0.00     0.166 C 
BRANCH   8   9
HETATM    9  N   UNL     1     -43.451 -49.940  12.528  1.00  0.00    -0.339 N 
HETATM   10  C   UNL     1     -43.062 -48.682  12.150  1.00  0.00     0.316 C 
HETATM   11  N   UNL     1     -42.919 -48.584  10.793  1.00  0.00    -0.343 N 
HETATM   12  O   UNL     1     -42.857 -47.767  12.937  1.00  0.00    -0.247 OA
HETATM   13  H   UNL     1     -42.744 -49.458  10.323  1.00  0.00     0.164 HD
HETATM   14  H   UNL     1     -44.000 -50.459  11.858  1.00  0.00     0.164 HD
BRANCH  11  15
HETATM   15  C   UNL     1     -42.283 -47.398  10.256  1.00  0.00     0.120 C 
HETATM   16  C   UNL     1     -43.166 -46.681   9.257  1.00  0.00     0.026 C 
ENDBRANCH  11  15
ENDBRANCH   8   9
ENDBRANCH   1   8
BRANCH   7  17
HETATM   17  N   UNL     1     -42.697 -53.048  13.933  1.00  0.00    -0.363 N 
HETATM   18  C   UNL     1     -41.642 -53.019  14.948  1.00  0.00     0.150 C 
HETATM   19  C   UNL     1     -40.375 -52.319  14.439  1.00  0.00     0.187 C 
HETATM   20  O   UNL     1     -39.944 -52.836  13.174  1.00  0.00    -0.388 OA
HETATM   21  C   UNL     1     -40.974 -52.620  12.196  1.00  0.00     0.187 C 
HETATM   22  C   UNL     1     -42.260 -53.373  12.565  1.00  0.00     0.150 C 
ENDBRANCH   7  17
TORSDOF 4
ENDMDL
MODEL 9
REMARK VINA RESULT:      -5.0      4.369      6.962
REMARK  4 active torsions:
REMARK  status: ('A' for Active; 'I' for Inactive)
REMARK    1  A    between atoms: C_2  and  N_3 
REMARK       I    between atoms: N_3  and  C_4 
REMARK       I    between atoms: C_4  and  N_6 
REMARK    2  A    between atoms: N_6  and  C_7 
REMARK    3  A    between atoms: C_7  and  C_8 
REMARK    4  A    between atoms: C_14  and  N_15 
ROOT
HETATM    1  C   UNL     1     -40.457 -52.645  12.983  1.00  0.00     0.004 A 
HETATM    2  C   UNL     1     -40.655 -54.019  13.233  1.00  0.00     0.014 A 
HETATM    3  C   UNL     1     -39.991 -54.651  14.270  1.00  0.00     0.018 A 
HETATM    4  C   UNL     1     -39.151 -53.879  15.038  1.00  0.00     0.089 A 
HETATM    5  N   UNL     1     -38.936 -52.560  14.827  1.00  0.00    -0.352 N 
ATOM      6  HN  UNL     1     -38.308 -52.039  15.439  1.00  0.00     0.166 HD
HETATM    7  C   UNL     1     -39.559 -51.931  13.797  1.00  0.00     0.111 A 
ENDROOT
BRANCH   1   8
HETATM    8  C   UNL     1     -41.302 -52.039  11.893  1.00  0.00     0.166 C 
BRANCH   8   9
HETATM    9  N   UNL     1     -42.586 -52.682  11.766  1.00  0.00    -0.339 N 
HETATM   10  C   UNL     1     -43.627 -52.221  12.528  1.00  0.00     0.316 C 
HETATM   11  N   UNL     1     -44.748 -52.991  12.372  1.00  0.00    -0.343 N 
HETATM   12  O   UNL     1     -43.560 -51.232  13.246  1.00  0.00    -0.247 OA
HETATM   13  H   UNL     1     -44.789 -53.507  11.507  1.00  0.00     0.164 HD
HETATM   14  H   UNL     1     -42.574 -53.675  11.579  1.00  0.00     0.164 HD
BRANCH  11  15
HETATM   15  C   UNL     1     -45.997 -52.500  12.917  1.00  0.00     0.120 C 
HETATM   16  C   UNL     1     -46.826 -51.776  11.877  1.00  0.00     0.026 C 
ENDBRANCH  11  15
ENDBRANCH   8   9
ENDBRANCH   1   8
BRANCH   7  17
HETATM   17  N   UNL     1     -39.271 -50.592  13.652  1.00  0.00    -0.363 N 
HETATM   18  C   UNL     1     -40.030 -49.505  14.275  1.00  0.00     0.150 C 
HETATM   19  C   UNL     1     -40.325 -48.371  13.284  1.00  0.00     0.187 C 
HETATM   20  O   UNL     1     -39.146 -47.933  12.599  1.00  0.00    -0.388 OA
HETATM   21  C   UNL     1     -38.598 -49.027  11.845  1.00  0.00     0.187 C 
HETATM   22  C   UNL     1     -38.171 -50.179  12.765  1.00  0.00     0.150 C 
ENDBRANCH   7  17
TORSDOF 4
ENDMDL
