MODEL 1
REMARK VINA RESULT:      -5.7      0.000      0.000
REMARK  3 active torsions:
REMARK  status: ('A' for Active; 'I' for Inactive)
REMARK    1  A    between atoms: O_1  and  C_2 
REMARK    2  A    between atoms: C_5  and  N_8 
REMARK       I    between atoms: N_8  and  C_9 
REMARK       I    between atoms: C_9  and  N_11 
REMARK    3  A    between atoms: N_11  and  C_12 
ROOT
HETATM    1  N   UNL     1     -42.642 -45.090  11.370  1.00  0.00    -0.338 N 
HETATM    2  C   UNL     1     -43.286 -45.469  10.214  1.00  0.00     0.321 C 
HETATM    3  O   UNL     1     -43.513 -44.685   9.301  1.00  0.00    -0.247 OA
HETATM    4  N   UNL     1     -43.680 -46.789  10.251  1.00  0.00    -0.306 N 
HETATM    5  H   UNL     1     -42.096 -45.804  11.830  1.00  0.00     0.164 HD
HETATM    6  H   UNL     1     -43.650 -47.272  11.137  1.00  0.00     0.171 HD
ENDROOT
BRANCH   1   7
HETATM    7  C   UNL     1     -42.238 -43.695  11.551  1.00  0.00     0.086 C 
HETATM    8  C   UNL     1     -40.767 -43.470  11.176  1.00  0.00     0.028 C 
HETATM    9  C   UNL     1     -39.806 -44.073  12.203  1.00  0.00     0.034 C 
HETATM   10  C   UNL     1     -40.105 -43.587  13.620  1.00  0.00     0.118 C 
HETATM   11  C   UNL     1     -41.567 -43.817  14.005  1.00  0.00     0.034 C 
HETATM   12  C   UNL     1     -42.534 -43.226  12.977  1.00  0.00     0.028 C 
BRANCH  10  13
HETATM   13  O   UNL     1     -39.831 -42.192  13.715  1.00  0.00    -0.396 OA
HETATM   14  H   UNL     1     -39.720 -41.974  14.656  1.00  0.00     0.210 HD
ENDBRANCH  10  13
ENDBRANCH   1   7
BRANCH   4  15
HETATM   15  C   UNL     1     -44.409 -47.371   9.230  1.00  0.00     0.070 A 
HETATM   16  C   UNL     1     -45.782 -47.692   9.142  1.00  0.00     0.138 A 
HETATM   17  N   UNL     1     -46.093 -48.297   7.990  1.00  0.00    -0.310 N 
HETATM   18  N   UNL     1     -44.914 -48.379   7.354  1.00  0.00    -0.310 N 
ATOM     19  HN  UNL     1     -47.008 -48.619   7.672  1.00  0.00     0.186 HD
HETATM   20  C   UNL     1     -43.882 -47.797   8.032  1.00  0.00     0.138 A 
HETATM   21  H   UNL     1     -44.892 -48.854   6.459  1.00  0.00     0.186 HD
ENDBRANCH   4  15
TORSDOF 3
ENDMDL
MODEL 2
REMARK VINA RESULT:      -5.6      5.699      7.877
REMARK  3 active torsions:
REMARK  status: ('A' for Active; 'I' for Inactive)
REMARK    1  A    between atoms: O_1  and  C_2 
REMARK    2  A    between atoms: C_5  and  N_8 
REMARK       I    between atoms: N_8  and  C_9 
REMARK       I    between atoms: C_9  and  N_11 
REMARK    3  A    between atoms: N_11  and  C_12 
ROOT
HETATM    1  N   UNL     1     -43.362 -50.905  12.710  1.00  0.00    -0.338 N 
HETATM    2  C   UNL     1     -42.886 -49.623  12.548  1.00  0.00     0.321 C 
HETATM    3  O   UNL     1     -43.173 -48.714  13.316  1.00  0.00    -0.247 OA
HETATM    4  N   UNL     1     -42.121 -49.496  11.408  1.00  0.00    -0.306 N 
HETATM    5  H   UNL     1     -42.764 -51.647  12.375  1.00  0.00     0.164 HD
HETATM    6  H   UNL     1     -42.144 -50.245  10.732  1.00  0.00     0.171 HD
ENDROOT
BRANCH   1   7
HETATM    7  C   UNL     1     -44.274 -51.205  13.814  1.00  0.00     0.086 C 
HETATM    8  C   UNL     1     -43.885 -52.496  14.546  1.00  0.00     0.028 C 
HETATM    9  C   UNL     1     -44.182 -53.747  13.718  1.00  0.00     0.034 C 
HETATM   10  C   UNL     1     -45.633 -53.787  13.243  1.00  0.00     0.118 C 
HETATM   11  C   UNL     1     -46.026 -52.509  12.503  1.00  0.00     0.034 C 
HETATM   12  C   UNL     1     -45.723 -51.252  13.321  1.00  0.00     0.028 C 
BRANCH  10  13
HETATM   13  O   UNL     1     -46.500 -53.940  14.364  1.00  0.00    -0.396 OA
HETATM   14  H   UNL     1     -46.489 -53.106  14.864  1.00  0.00     0.210 HD
ENDBRANCH  10  13
ENDBRANCH   1   7
BRANCH   4  15
HETATM   15  C   UNL     1     -41.598 -48.283  11.002  1.00  0.00     0.070 A 
HETATM   16  C   UNL     1     -42.156 -47.257  10.206  1.00  0.00     0.138 A 
HETATM   17  N   UNL     1     -41.301 -46.249   9.999  1.00  0.00    -0.310 N 
HETATM   18  N   UNL     1     -40.193 -46.642  10.646  1.00  0.00    -0.310 N 
ATOM     19  HN  UNL     1     -41.454 -45.387   9.474  1.00  0.00     0.186 HD
HETATM   20  C   UNL     1     -40.333 -47.831  11.303  1.00  0.00     0.138 A 
HETATM   21  H   UNL     1     -39.375 -46.047  10.588  1.00  0.00     0.186 HD
ENDBRANCH   4  15
TORSDOF 3
ENDMDL
MODEL 3
REMARK VINA RESULT:      -5.4      5.110      6.320
REMARK  3 active torsions:
REMARK  status: ('A' for Active; 'I' for Inactive)
REMARK    1  A    between atoms: O_1  and  C_2 
REMARK    2  A    between atoms: C_5  and  N_8 
REMARK       I    between atoms: N_8  and  C_9 
REMARK       I    between atoms: C_9  and  N_11 
REMARK    3  A    between atoms: N_11  and  C_12 
ROOT
HETATM    1  N   UNL     1     -42.092 -49.763  11.654  1.00  0.00    -0.338 N 
HETATM    2  C   UNL     1     -42.814 -48.604  11.476  1.00  0.00     0.321 C 
HETATM    3  O   UNL     1     -43.307 -47.987  12.412  1.00  0.00    -0.247 OA
HETATM    4  N   UNL     1     -42.952 -48.281  10.143  1.00  0.00    -0.306 N 
HETATM    5  H   UNL     1     -41.365 -49.943  10.976  1.00  0.00     0.164 HD
HETATM    6  H   UNL     1     -42.709 -48.978   9.455  1.00  0.00     0.171 HD
ENDROOT
BRANCH   1   7
HETATM    7  C   UNL     1     -41.927 -50.314  13.000  1.00  0.00     0.086 C 
HETATM    8  C   UNL     1     -40.564 -50.995  13.178  1.00  0.00     0.028 C 
HETATM    9  C   UNL     1     -40.474 -52.323  12.424  1.00  0.00     0.034 C 
HETATM   10  C   UNL     1     -41.623 -53.264  12.783  1.00  0.00     0.118 C 
HETATM   11  C   UNL     1     -42.985 -52.596  12.598  1.00  0.00     0.034 C 
HETATM   12  C   UNL     1     -43.079 -51.261  13.341  1.00  0.00     0.028 C 
BRANCH  10  13
HETATM   13  O   UNL     1     -41.503 -53.667  14.145  1.00  0.00    -0.396 OA
HETATM   14  H   UNL     1     -42.322 -53.415  14.603  1.00  0.00     0.210 HD
ENDBRANCH  10  13
ENDBRANCH   1   7
BRANCH   4  15
HETATM   15  C   UNL     1     -43.700 -47.198   9.720  1.00  0.00     0.070 A 
HETATM   16  C   UNL     1     -45.028 -47.123   9.243  1.00  0.00     0.138 A 
HETATM   17  N   UNL     1     -45.373 -45.881   8.884  1.00  0.00    -0.310 N 
HETATM   18  N   UNL     1     -44.258 -45.170   9.114  1.00  0.00    -0.310 N 
ATOM     19  HN  UNL     1     -46.269 -45.553   8.522  1.00  0.00     0.186 HD
HETATM   20  C   UNL     1     -43.242 -45.902   9.659  1.00  0.00     0.138 A 
HETATM   21  H   UNL     1     -44.265 -44.187   8.867  1.00  0.00     0.186 HD
ENDBRANCH   4  15
TORSDOF 3
ENDMDL
MODEL 4
REMARK VINA RESULT:      -5.4      4.677      5.126
REMARK  3 active torsions:
REMARK  status: ('A' for Active; 'I' for Inactive)
REMARK    1  A    between atoms: O_1  and  C_2 
REMARK    2  A    between atoms: C_5  and  N_8 
REMARK       I    between atoms: N_8  and  C_9 
REMARK       I    between atoms: C_9  and  N_11 
REMARK    3  A    between atoms: N_11  and  C_12 
ROOT
HETATM    1  N   UNL     1     -40.283 -48.641  11.042  1.00  0.00    -0.338 N 
HETATM    2  C   UNL     1     -41.310 -47.739  10.868  1.00  0.00     0.321 C 
HETATM    3  O   UNL     1     -41.445 -46.753  11.580  1.00  0.00    -0.247 OA
HETATM    4  N   UNL     1     -42.167 -48.120   9.858  1.00  0.00    -0.306 N 
HETATM    5  H   UNL     1     -39.961 -49.115  10.210  1.00  0.00     0.164 HD
HETATM    6  H   UNL     1     -42.092 -49.061   9.498  1.00  0.00     0.171 HD
ENDROOT
BRANCH   1   7
HETATM    7  C   UNL     1     -39.330 -48.451  12.136  1.00  0.00     0.086 C 
HETATM    8  C   UNL     1     -37.945 -49.016  11.795  1.00  0.00     0.028 C 
HETATM    9  C   UNL     1     -37.924 -50.546  11.797  1.00  0.00     0.034 C 
HETATM   10  C   UNL     1     -38.460 -51.123  13.106  1.00  0.00     0.118 C 
HETATM   11  C   UNL     1     -39.844 -50.572  13.448  1.00  0.00     0.034 C 
HETATM   12  C   UNL     1     -39.875 -49.043  13.437  1.00  0.00     0.028 C 
BRANCH  10  13
HETATM   13  O   UNL     1     -37.571 -50.796  14.172  1.00  0.00    -0.396 OA
HETATM   14  H   UNL     1     -38.108 -50.490  14.923  1.00  0.00     0.210 HD
ENDBRANCH  10  13
ENDBRANCH   1   7
BRANCH   4  15
HETATM   15  C   UNL     1     -43.310 -47.407   9.552  1.00  0.00     0.070 A 
HETATM   16  C   UNL     1     -43.495 -46.257   8.752  1.00  0.00     0.138 A 
HETATM   17  N   UNL     1     -44.766 -45.838   8.745  1.00  0.00    -0.310 N 
HETATM   18  N   UNL     1     -45.386 -46.710   9.555  1.00  0.00    -0.310 N 
ATOM     19  HN  UNL     1     -45.167 -45.045   8.243  1.00  0.00     0.186 HD
HETATM   20  C   UNL     1     -44.569 -47.697  10.027  1.00  0.00     0.138 A 
HETATM   21  H   UNL     1     -46.370 -46.562   9.744  1.00  0.00     0.186 HD
ENDBRANCH   4  15
TORSDOF 3
ENDMDL
MODEL 5
REMARK VINA RESULT:      -5.3      7.907      9.778
REMARK  3 active torsions:
REMARK  status: ('A' for Active; 'I' for Inactive)
REMARK    1  A    between atoms: O_1  and  C_2 
REMARK    2  A    between atoms: C_5  and  N_8 
REMARK       I    between atoms: N_8  and  C_9 
REMARK       I    between atoms: C_9  and  N_11 
REMARK    3  A    between atoms: N_11  and  C_12 
ROOT
HETATM    1  N   UNL     1     -42.253 -52.839  13.634  1.00  0.00    -0.338 N 
HETATM    2  C   UNL     1     -41.192 -52.505  12.823  1.00  0.00     0.321 C 
HETATM    3  O   UNL     1     -40.799 -53.234  11.921  1.00  0.00    -0.247 OA
HETATM    4  N   UNL     1     -40.615 -51.309  13.194  1.00  0.00    -0.306 N 
HETATM    5  H   UNL     1     -42.794 -52.069  14.000  1.00  0.00     0.164 HD
HETATM    6  H   UNL     1     -40.869 -50.913  14.087  1.00  0.00     0.171 HD
ENDROOT
BRANCH   1   7
HETATM    7  C   UNL     1     -42.927 -54.125  13.452  1.00  0.00     0.086 C 
HETATM    8  C   UNL     1     -44.131 -54.014  12.506  1.00  0.00     0.028 C 
HETATM    9  C   UNL     1     -45.309 -53.279  13.149  1.00  0.00     0.034 C 
HETATM   10  C   UNL     1     -45.704 -53.894  14.490  1.00  0.00     0.118 C 
HETATM   11  C   UNL     1     -44.512 -54.000  15.442  1.00  0.00     0.034 C 
HETATM   12  C   UNL     1     -43.326 -54.724  14.802  1.00  0.00     0.028 C 
BRANCH  10  13
HETATM   13  O   UNL     1     -46.227 -55.204  14.280  1.00  0.00    -0.396 OA
HETATM   14  H   UNL     1     -45.676 -55.639  13.608  1.00  0.00     0.210 HD
ENDBRANCH  10  13
ENDBRANCH   1   7
BRANCH   4  15
HETATM   15  C   UNL     1     -39.488 -50.808  12.569  1.00  0.00     0.070 A 
HETATM   16  C   UNL     1     -39.353 -50.003  11.415  1.00  0.00     0.138 A 
HETATM   17  N   UNL     1     -38.073 -49.769  11.103  1.00  0.00    -0.310 N 
HETATM   18  N   UNL     1     -37.395 -50.440  12.046  1.00  0.00    -0.310 N 
ATOM     19  HN  UNL     1     -37.702 -49.212  10.332  1.00  0.00     0.186 HD
HETATM   20  C   UNL     1     -38.194 -51.041  12.975  1.00  0.00     0.138 A 
HETATM   21  H   UNL     1     -36.383 -50.448  11.985  1.00  0.00     0.186 HD
ENDBRANCH   4  15
TORSDOF 3
ENDMDL
MODEL 6
REMARK VINA RESULT:      -5.3      1.237      2.042
REMARK  3 active torsions:
REMARK  status: ('A' for Active; 'I' for Inactive)
REMARK    1  A    between atoms: O_1  and  C_2 
REMARK    2  A    between atoms: C_5  and  N_8 
REMARK       I    between atoms: N_8  and  C_9 
REMARK       I    between atoms: C_9  and  N_11 
REMARK    3  A    between atoms: N_11  and  C_12 
ROOT
HETATM    1  N   UNL     1     -42.421 -44.632  11.329  1.00  0.00    -0.338 N 
HETATM    2  C   UNL     1     -42.743 -45.822  10.716  1.00  0.00     0.321 C 
HETATM    3  O   UNL     1     -42.157 -46.868  10.964  1.00  0.00    -0.247 OA
HETATM    4  N   UNL     1     -43.737 -45.666   9.774  1.00  0.00    -0.306 N 
HETATM    5  H   UNL     1     -43.177 -43.972  11.446  1.00  0.00     0.164 HD
HETATM    6  H   UNL     1     -43.981 -44.729   9.488  1.00  0.00     0.171 HD
ENDROOT
BRANCH   1   7
HETATM    7  C   UNL     1     -41.317 -44.586  12.288  1.00  0.00     0.086 C 
HETATM    8  C   UNL     1     -41.795 -44.201  13.695  1.00  0.00     0.028 C 
HETATM    9  C   UNL     1     -42.184 -42.725  13.794  1.00  0.00     0.034 C 
HETATM   10  C   UNL     1     -41.064 -41.805  13.309  1.00  0.00     0.118 C 
HETATM   11  C   UNL     1     -40.590 -42.176  11.904  1.00  0.00     0.034 C 
HETATM   12  C   UNL     1     -40.209 -43.653  11.795  1.00  0.00     0.028 C 
BRANCH  10  13
HETATM   13  O   UNL     1     -39.952 -41.897  14.196  1.00  0.00    -0.396 OA
HETATM   14  H   UNL     1     -39.523 -42.756  14.047  1.00  0.00     0.210 HD
ENDBRANCH  10  13
ENDBRANCH   1   7
BRANCH   4  15
HETATM   15  C   UNL     1     -44.173 -46.710   8.981  1.00  0.00     0.070 A 
HETATM   16  C   UNL     1     -43.547 -47.374   7.901  1.00  0.00     0.138 A 
HETATM   17  N   UNL     1     -44.328 -48.314   7.358  1.00  0.00    -0.310 N 
HETATM   18  N   UNL     1     -45.458 -48.236   8.079  1.00  0.00    -0.310 N 
ATOM     19  HN  UNL     1     -44.116 -48.941   6.581  1.00  0.00     0.186 HD
HETATM   20  C   UNL     1     -45.400 -47.324   9.093  1.00  0.00     0.138 A 
HETATM   21  H   UNL     1     -46.231 -48.835   7.813  1.00  0.00     0.186 HD
ENDBRANCH   4  15
TORSDOF 3
ENDMDL
MODEL 7
REMARK VINA RESULT:      -4.9      6.846      8.389
REMARK  3 active torsions:
REMARK  status: ('A' for Active; 'I' for Inactive)
REMARK    1  A    between atoms: O_1  and  C_2 
REMARK    2  A    between atoms: C_5  and  N_8 
REMARK       I    between atoms: N_8  and  C_9 
REMARK       I    between atoms: C_9  and  N_11 
REMARK    3  A    between atoms: N_11  and  C_12 
ROOT
HETATM    1  N   UNL     1     -42.682 -51.695  13.035  1.00  0.00    -0.338 N 
HETATM    2  C   UNL     1     -41.935 -50.896  12.198  1.00  0.00     0.321 C 
HETATM    3  O   UNL     1     -40.914 -51.292  11.651  1.00  0.00    -0.247 OA
HETATM    4  N   UNL     1     -42.443 -49.618  12.114  1.00  0.00    -0.306 N 
HETATM    5  H   UNL     1     -43.673 -51.505  13.064  1.00  0.00     0.164 HD
HETATM    6  H   UNL     1     -43.145 -49.339  12.784  1.00  0.00     0.171 HD
ENDROOT
BRANCH   1   7
HETATM    7  C   UNL     1     -42.236 -53.059  13.322  1.00  0.00     0.086 C 
HETATM    8  C   UNL     1     -43.310 -54.099  12.977  1.00  0.00     0.028 C 
HETATM    9  C   UNL     1     -44.480 -54.077  13.963  1.00  0.00     0.034 C 
HETATM   10  C   UNL     1     -44.011 -54.214  15.410  1.00  0.00     0.118 C 
HETATM   11  C   UNL     1     -42.948 -53.175  15.765  1.00  0.00     0.034 C 
HETATM   12  C   UNL     1     -41.779 -53.184  14.778  1.00  0.00     0.028 C 
BRANCH  10  13
HETATM   13  O   UNL     1     -43.455 -55.511  15.611  1.00  0.00    -0.396 OA
HETATM   14  H   UNL     1     -43.003 -55.510  16.472  1.00  0.00     0.210 HD
ENDBRANCH  10  13
ENDBRANCH   1   7
BRANCH   4  15
HETATM   15  C   UNL     1     -41.817 -48.620  11.390  1.00  0.00     0.070 A 
HETATM   16  C   UNL     1     -40.574 -47.979  11.586  1.00  0.00     0.138 A 
HETATM   17  N   UNL     1     -40.346 -47.019  10.681  1.00  0.00    -0.310 N 
HETATM   18  N   UNL     1     -41.453 -47.038   9.923  1.00  0.00    -0.310 N 
ATOM     19  HN  UNL     1     -39.526 -46.418  10.590  1.00  0.00     0.186 HD
HETATM   20  C   UNL     1     -42.345 -48.009  10.276  1.00  0.00     0.138 A 
HETATM   21  H   UNL     1     -41.531 -46.349   9.184  1.00  0.00     0.186 HD
ENDBRANCH   4  15
TORSDOF 3
ENDMDL
MODEL 8
REMARK VINA RESULT:      -4.8      7.586      8.209
REMARK  3 active torsions:
REMARK  status: ('A' for Active; 'I' for Inactive)
REMARK    1  A    between atoms: O_1  and  C_2 
REMARK    2  A    between atoms: C_5  and  N_8 
REMARK       I    between atoms: N_8  and  C_9 
REMARK       I    between atoms: C_9  and  N_11 
REMARK    3  A    between atoms: N_11  and  C_12 
ROOT
HETATM    1  N   UNL     1     -37.800 -50.200  15.276  1.00  0.00    -0.338 N 
HETATM    2  C   UNL     1     -38.181 -50.921  14.167  1.00  0.00     0.321 C 
HETATM    3  O   UNL     1     -37.450 -51.066  13.195  1.00  0.00    -0.247 OA
HETATM    4  N   UNL     1     -39.474 -51.387  14.272  1.00  0.00    -0.306 N 
HETATM    5  H   UNL     1     -38.198 -50.494  16.157  1.00  0.00     0.164 HD
HETATM    6  H   UNL     1     -40.057 -51.013  15.006  1.00  0.00     0.171 HD
ENDROOT
BRANCH   1   7
HETATM    7  C   UNL     1     -36.492 -49.544  15.300  1.00  0.00     0.086 C 
HETATM    8  C   UNL     1     -35.556 -50.168  16.343  1.00  0.00     0.028 C 
HETATM    9  C   UNL     1     -35.963 -49.815  17.775  1.00  0.00     0.034 C 
HETATM   10  C   UNL     1     -36.102 -48.307  17.975  1.00  0.00     0.118 C 
HETATM   11  C   UNL     1     -37.041 -47.680  16.946  1.00  0.00     0.034 C 
HETATM   12  C   UNL     1     -36.646 -48.036  15.511  1.00  0.00     0.028 C 
BRANCH  10  13
HETATM   13  O   UNL     1     -34.823 -47.689  17.851  1.00  0.00    -0.396 OA
HETATM   14  H   UNL     1     -34.767 -46.986  18.521  1.00  0.00     0.210 HD
ENDBRANCH  10  13
ENDBRANCH   1   7
BRANCH   4  15
HETATM   15  C   UNL     1     -40.096 -52.075  13.248  1.00  0.00     0.070 A 
HETATM   16  C   UNL     1     -40.711 -51.610  12.063  1.00  0.00     0.138 A 
HETATM   17  N   UNL     1     -41.248 -52.602  11.343  1.00  0.00    -0.310 N 
HETATM   18  N   UNL     1     -40.991 -53.695  12.079  1.00  0.00    -0.310 N 
ATOM     19  HN  UNL     1     -41.735 -52.542  10.448  1.00  0.00     0.186 HD
HETATM   20  C   UNL     1     -40.264 -53.441  13.206  1.00  0.00     0.138 A 
HETATM   21  H   UNL     1     -41.353 -54.582  11.749  1.00  0.00     0.186 HD
ENDBRANCH   4  15
TORSDOF 3
ENDMDL
MODEL 9
REMARK VINA RESULT:      -4.8      9.478     10.664
REMARK  3 active torsions:
REMARK  status: ('A' for Active; 'I' for Inactive)
REMARK    1  A    between atoms: O_1  and  C_2 
REMARK    2  A    between atoms: C_5  and  N_8 
REMARK       I    between atoms: N_8  and  C_9 
REMARK       I    between atoms: C_9  and  N_11 
REMARK    3  A    between atoms: N_11  and  C_12 
ROOT
HETATM    1  N   UNL     1     -43.980 -52.979  15.389  1.00  0.00    -0.338 N 
HETATM    2  C   UNL     1     -42.988 -53.888  15.094  1.00  0.00     0.321 C 
HETATM    3  O   UNL     1     -43.196 -55.094  15.048  1.00  0.00    -0.247 OA
HETATM    4  N   UNL     1     -41.763 -53.280  14.926  1.00  0.00    -0.306 N 
HETATM    5  H   UNL     1     -43.883 -52.064  14.972  1.00  0.00     0.164 HD
HETATM    6  H   UNL     1     -41.664 -52.318  15.215  1.00  0.00     0.171 HD
ENDROOT
BRANCH   1   7
HETATM    7  C   UNL     1     -45.329 -53.453  15.697  1.00  0.00     0.086 C 
HETATM    8  C   UNL     1     -46.376 -52.868  14.741  1.00  0.00     0.028 C 
HETATM    9  C   UNL     1     -46.639 -51.383  15.004  1.00  0.00     0.034 C 
HETATM   10  C   UNL     1     -47.001 -51.117  16.464  1.00  0.00     0.118 C 
HETATM   11  C   UNL     1     -45.958 -51.689  17.423  1.00  0.00     0.034 C 
HETATM   12  C   UNL     1     -45.681 -53.171  17.159  1.00  0.00     0.028 C 
BRANCH  10  13
HETATM   13  O   UNL     1     -48.260 -51.717  16.762  1.00  0.00    -0.396 OA
HETATM   14  H   UNL     1     -48.618 -52.082  15.935  1.00  0.00     0.210 HD
ENDBRANCH  10  13
ENDBRANCH   1   7
BRANCH   4  15
HETATM   15  C   UNL     1     -40.606 -54.001  14.695  1.00  0.00     0.070 A 
HETATM   16  C   UNL     1     -39.697 -54.601  15.595  1.00  0.00     0.138 A 
HETATM   17  N   UNL     1     -38.663 -55.175  14.970  1.00  0.00    -0.310 N 
HETATM   18  N   UNL     1     -38.904 -54.923  13.674  1.00  0.00    -0.310 N 
ATOM     19  HN  UNL     1     -37.879 -55.683  15.381  1.00  0.00     0.186 HD
HETATM   20  C   UNL     1     -40.078 -54.264  13.452  1.00  0.00     0.138 A 
HETATM   21  H   UNL     1     -38.213 -55.227  12.997  1.00  0.00     0.186 HD
ENDBRANCH   4  15
TORSDOF 3
ENDMDL
