MODEL 1
REMARK VINA RESULT:      -7.4      0.000      0.000
REMARK  5 active torsions:
REMARK  status: ('A' for Active; 'I' for Inactive)
REMARK       I    between atoms: C_2  and  N_3 
REMARK       I    between atoms: C_2  and  N_14 
REMARK    1  A    between atoms: N_3  and  C_4 
REMARK    2  A    between atoms: C_4  and  C_5 
REMARK    3  A    between atoms: C_5  and  N_6 
REMARK    4  A    between atoms: N_14  and  C_15 
REMARK    5  A    between atoms: C_21  and  N_22 
ROOT
HETATM    1  O   UNL     1     -42.030 -50.732  13.167  1.00  0.00    -0.254 OA
HETATM    2  C   UNL     1     -41.665 -51.262  12.127  1.00  0.00     0.298 C 
HETATM    3  N   UNL     1     -41.876 -52.594  11.844  1.00  0.00    -0.346 N 
HETATM    4  N   UNL     1     -41.013 -50.630  11.084  1.00  0.00    -0.207 NA
HETATM    5  H   UNL     1     -41.170 -53.021  11.261  1.00  0.00     0.163 HD
HETATM    6  H   UNL     1     -41.408 -50.929  10.201  1.00  0.00     0.138 HD
ENDROOT
BRANCH   3   7
HETATM    7  C   UNL     1     -42.511 -53.450  12.840  1.00  0.00     0.143 C 
BRANCH   7   8
HETATM    8  C   UNL     1     -43.965 -53.768  12.478  1.00  0.00     0.145 C 
BRANCH   8   9
HETATM    9  N   UNL     1     -44.963 -53.225  13.395  1.00  0.00    -0.351 N 
HETATM   10  C   UNL     1     -44.805 -53.507  14.820  1.00  0.00     0.126 C 
HETATM   11  C   UNL     1     -44.497 -52.253  15.620  1.00  0.00     0.020 C 
HETATM   12  C   UNL     1     -45.745 -51.482  16.047  1.00  0.00     0.002 C 
HETATM   13  C   UNL     1     -46.914 -51.516  15.062  1.00  0.00     0.009 C 
HETATM   14  C   UNL     1     -46.509 -51.301  13.616  1.00  0.00     0.103 C 
HETATM   15  C   UNL     1     -46.015 -52.517  12.850  1.00  0.00     0.219 C 
HETATM   16  O   UNL     1     -46.408 -52.725  11.700  1.00  0.00    -0.273 OA
ENDBRANCH   8   9
ENDBRANCH   7   8
ENDBRANCH   3   7
BRANCH   4  17
HETATM   17  C   UNL     1     -40.830 -49.222  11.156  1.00  0.00     0.060 A 
HETATM   18  C   UNL     1     -41.751 -48.406  10.483  1.00  0.00     0.029 A 
HETATM   19  C   UNL     1     -41.630 -47.028  10.555  1.00  0.00     0.019 A 
HETATM   20  C   UNL     1     -40.582 -46.518  11.289  1.00  0.00     0.090 A 
HETATM   21  N   UNL     1     -39.659 -47.282  11.917  1.00  0.00    -0.351 N 
HETATM   22  C   UNL     1     -39.754 -48.636  11.858  1.00  0.00     0.125 A 
ATOM     23  HN  UNL     1     -38.896 -46.843  12.433  1.00  0.00     0.166 HD
BRANCH  22  24
HETATM   24  N   UNL     1     -38.744 -49.340  12.466  1.00  0.00    -0.366 N 
HETATM   25  C   UNL     1     -38.571 -49.588  13.885  1.00  0.00     0.124 C 
HETATM   26  C   UNL     1     -37.357 -50.516  13.979  1.00  0.00     0.021 C 
HETATM   27  C   UNL     1     -37.135 -51.017  12.560  1.00  0.00     0.021 C 
HETATM   28  C   UNL     1     -37.633 -49.869  11.691  1.00  0.00     0.124 C 
ENDBRANCH  22  24
ENDBRANCH   4  17
TORSDOF 5
ENDMDL
MODEL 2
REMARK VINA RESULT:      -7.0      2.421      3.517
REMARK  5 active torsions:
REMARK  status: ('A' for Active; 'I' for Inactive)
REMARK       I    between atoms: C_2  and  N_3 
REMARK       I    between atoms: C_2  and  N_14 
REMARK    1  A    between atoms: N_3  and  C_4 
REMARK    2  A    between atoms: C_4  and  C_5 
REMARK    3  A    between atoms: C_5  and  N_6 
REMARK    4  A    between atoms: N_14  and  C_15 
REMARK    5  A    between atoms: C_21  and  N_22 
ROOT
HETATM    1  O   UNL     1     -43.387 -48.656  12.443  1.00  0.00    -0.254 OA
HETATM    2  C   UNL     1     -42.580 -49.086  11.630  1.00  0.00     0.298 C 
HETATM    3  N   UNL     1     -41.876 -50.256  11.813  1.00  0.00    -0.346 N 
HETATM    4  N   UNL     1     -42.261 -48.497  10.420  1.00  0.00    -0.207 NA
HETATM    5  H   UNL     1     -40.959 -50.270  11.388  1.00  0.00     0.163 HD
HETATM    6  H   UNL     1     -42.209 -49.204   9.698  1.00  0.00     0.138 HD
ENDROOT
BRANCH   3   7
HETATM    7  C   UNL     1     -42.037 -51.008  13.052  1.00  0.00     0.143 C 
BRANCH   7   8
HETATM    8  C   UNL     1     -42.965 -52.213  12.874  1.00  0.00     0.145 C 
BRANCH   8   9
HETATM    9  N   UNL     1     -44.147 -52.214  13.731  1.00  0.00    -0.351 N 
HETATM   10  C   UNL     1     -43.943 -52.120  15.175  1.00  0.00     0.126 C 
HETATM   11  C   UNL     1     -44.469 -50.814  15.743  1.00  0.00     0.020 C 
HETATM   12  C   UNL     1     -45.956 -50.855  16.089  1.00  0.00     0.002 C 
HETATM   13  C   UNL     1     -46.825 -51.720  15.175  1.00  0.00     0.009 C 
HETATM   14  C   UNL     1     -46.533 -51.543  13.698  1.00  0.00     0.103 C 
HETATM   15  C   UNL     1     -45.379 -52.348  13.122  1.00  0.00     0.219 C 
HETATM   16  O   UNL     1     -45.506 -52.926  12.040  1.00  0.00    -0.273 OA
ENDBRANCH   8   9
ENDBRANCH   7   8
ENDBRANCH   3   7
BRANCH   4  17
HETATM   17  C   UNL     1     -42.993 -47.348  10.015  1.00  0.00     0.060 A 
HETATM   18  C   UNL     1     -44.086 -47.536   9.158  1.00  0.00     0.029 A 
HETATM   19  C   UNL     1     -44.848 -46.447   8.765  1.00  0.00     0.019 A 
HETATM   20  C   UNL     1     -44.476 -45.207   9.235  1.00  0.00     0.090 A 
HETATM   21  N   UNL     1     -43.404 -44.994  10.032  1.00  0.00    -0.351 N 
HETATM   22  C   UNL     1     -42.640 -46.045  10.428  1.00  0.00     0.125 A 
ATOM     23  HN  UNL     1     -43.170 -44.047  10.333  1.00  0.00     0.166 HD
BRANCH  22  24
HETATM   24  N   UNL     1     -41.533 -45.738  11.181  1.00  0.00    -0.366 N 
HETATM   25  C   UNL     1     -40.164 -45.595  10.719  1.00  0.00     0.124 C 
HETATM   26  C   UNL     1     -39.379 -45.136  11.950  1.00  0.00     0.021 C 
HETATM   27  C   UNL     1     -40.437 -44.710  12.956  1.00  0.00     0.021 C 
HETATM   28  C   UNL     1     -41.627 -45.602  12.625  1.00  0.00     0.124 C 
ENDBRANCH  22  24
ENDBRANCH   4  17
TORSDOF 5
ENDMDL
MODEL 3
REMARK VINA RESULT:      -6.9      2.260      3.612
REMARK  5 active torsions:
REMARK  status: ('A' for Active; 'I' for Inactive)
REMARK       I    between atoms: C_2  and  N_3 
REMARK       I    between atoms: C_2  and  N_14 
REMARK    1  A    between atoms: N_3  and  C_4 
REMARK    2  A    between atoms: C_4  and  C_5 
REMARK    3  A    between atoms: C_5  and  N_6 
REMARK    4  A    between atoms: N_14  and  C_15 
REMARK    5  A    between atoms: C_21  and  N_22 
ROOT
HETATM    1  O   UNL     1     -42.312 -50.105  13.262  1.00  0.00    -0.254 OA
HETATM    2  C   UNL     1     -42.055 -50.710  12.230  1.00  0.00     0.298 C 
HETATM    3  N   UNL     1     -42.442 -52.013  12.004  1.00  0.00    -0.346 N 
HETATM    4  N   UNL     1     -41.371 -50.199  11.143  1.00  0.00    -0.207 NA
HETATM    5  H   UNL     1     -41.818 -52.544  11.413  1.00  0.00     0.163 HD
HETATM    6  H   UNL     1     -41.833 -50.474  10.286  1.00  0.00     0.138 HD
ENDROOT
BRANCH   3   7
HETATM    7  C   UNL     1     -43.140 -52.750  13.051  1.00  0.00     0.143 C 
BRANCH   7   8
HETATM    8  C   UNL     1     -42.498 -54.115  13.318  1.00  0.00     0.145 C 
BRANCH   8   9
HETATM    9  N   UNL     1     -41.451 -54.117  14.334  1.00  0.00    -0.351 N 
HETATM   10  C   UNL     1     -41.857 -54.239  15.732  1.00  0.00     0.126 C 
HETATM   11  C   UNL     1     -41.400 -55.550  16.348  1.00  0.00     0.020 C 
HETATM   12  C   UNL     1     -39.978 -55.498  16.904  1.00  0.00     0.002 C 
HETATM   13  C   UNL     1     -39.000 -54.608  16.138  1.00  0.00     0.009 C 
HETATM   14  C   UNL     1     -39.076 -54.761  14.631  1.00  0.00     0.103 C 
HETATM   15  C   UNL     1     -40.146 -53.958  13.910  1.00  0.00     0.219 C 
HETATM   16  O   UNL     1     -39.874 -53.360  12.867  1.00  0.00    -0.273 OA
ENDBRANCH   8   9
ENDBRANCH   7   8
ENDBRANCH   3   7
BRANCH   4  17
HETATM   17  C   UNL     1     -41.011 -48.823  11.157  1.00  0.00     0.060 A 
HETATM   18  C   UNL     1     -41.871 -47.915  10.525  1.00  0.00     0.029 A 
HETATM   19  C   UNL     1     -41.577 -46.561  10.544  1.00  0.00     0.019 A 
HETATM   20  C   UNL     1     -40.422 -46.170  11.185  1.00  0.00     0.090 A 
HETATM   21  N   UNL     1     -39.556 -47.029  11.770  1.00  0.00    -0.351 N 
HETATM   22  C   UNL     1     -39.822 -48.361  11.762  1.00  0.00     0.125 A 
ATOM     23  HN  UNL     1     -38.709 -46.678  12.216  1.00  0.00     0.166 HD
BRANCH  22  24
HETATM   24  N   UNL     1     -38.863 -49.173  12.318  1.00  0.00    -0.366 N 
HETATM   25  C   UNL     1     -38.757 -49.590  13.703  1.00  0.00     0.124 C 
HETATM   26  C   UNL     1     -37.583 -50.572  13.730  1.00  0.00     0.021 C 
HETATM   27  C   UNL     1     -37.322 -50.914  12.271  1.00  0.00     0.021 C 
HETATM   28  C   UNL     1     -37.742 -49.653  11.526  1.00  0.00     0.124 C 
ENDBRANCH  22  24
ENDBRANCH   4  17
TORSDOF 5
ENDMDL
MODEL 4
REMARK VINA RESULT:      -6.7      2.410      7.557
REMARK  5 active torsions:
REMARK  status: ('A' for Active; 'I' for Inactive)
REMARK       I    between atoms: C_2  and  N_3 
REMARK       I    between atoms: C_2  and  N_14 
REMARK    1  A    between atoms: N_3  and  C_4 
REMARK    2  A    between atoms: C_4  and  C_5 
REMARK    3  A    between atoms: C_5  and  N_6 
REMARK    4  A    between atoms: N_14  and  C_15 
REMARK    5  A    between atoms: C_21  and  N_22 
ROOT
HETATM    1  O   UNL     1     -41.113 -50.206  13.268  1.00  0.00    -0.254 OA
HETATM    2  C   UNL     1     -41.547 -50.571  12.184  1.00  0.00     0.298 C 
HETATM    3  N   UNL     1     -41.500 -49.789  11.051  1.00  0.00    -0.346 N 
HETATM    4  N   UNL     1     -42.124 -51.798  11.917  1.00  0.00    -0.207 NA
HETATM    5  H   UNL     1     -42.256 -49.941  10.399  1.00  0.00     0.163 HD
HETATM    6  H   UNL     1     -41.775 -52.158  11.038  1.00  0.00     0.138 HD
ENDROOT
BRANCH   3   7
HETATM    7  C   UNL     1     -40.966 -48.434  11.132  1.00  0.00     0.143 C 
BRANCH   7   8
HETATM    8  C   UNL     1     -42.045 -47.413  11.507  1.00  0.00     0.145 C 
BRANCH   8   9
HETATM    9  N   UNL     1     -41.550 -46.073  11.808  1.00  0.00    -0.351 N 
HETATM   10  C   UNL     1     -41.279 -45.745  13.207  1.00  0.00     0.126 C 
HETATM   11  C   UNL     1     -39.799 -45.524  13.465  1.00  0.00     0.020 C 
HETATM   12  C   UNL     1     -39.338 -44.096  13.179  1.00  0.00     0.002 C 
HETATM   13  C   UNL     1     -40.046 -43.391  12.022  1.00  0.00     0.009 C 
HETATM   14  C   UNL     1     -40.216 -44.252  10.786  1.00  0.00     0.103 C 
HETATM   15  C   UNL     1     -41.412 -45.189  10.757  1.00  0.00     0.219 C 
HETATM   16  O   UNL     1     -42.100 -45.285   9.738  1.00  0.00    -0.273 OA
ENDBRANCH   8   9
ENDBRANCH   7   8
ENDBRANCH   3   7
BRANCH   4  17
HETATM   17  C   UNL     1     -42.136 -52.778  12.947  1.00  0.00     0.060 A 
HETATM   18  C   UNL     1     -40.971 -53.534  13.145  1.00  0.00     0.029 A 
HETATM   19  C   UNL     1     -40.927 -54.476  14.160  1.00  0.00     0.019 A 
HETATM   20  C   UNL     1     -42.058 -54.635  14.931  1.00  0.00     0.090 A 
HETATM   21  N   UNL     1     -43.205 -53.946  14.737  1.00  0.00    -0.351 N 
HETATM   22  C   UNL     1     -43.275 -53.019  13.746  1.00  0.00     0.125 A 
ATOM     23  HN  UNL     1     -44.015 -54.121  15.332  1.00  0.00     0.166 HD
BRANCH  22  24
HETATM   24  N   UNL     1     -44.493 -52.410  13.571  1.00  0.00    -0.366 N 
HETATM   25  C   UNL     1     -45.496 -52.715  12.567  1.00  0.00     0.124 C 
HETATM   26  C   UNL     1     -46.686 -51.817  12.914  1.00  0.00     0.021 C 
HETATM   27  C   UNL     1     -46.400 -51.309  14.318  1.00  0.00     0.021 C 
HETATM   28  C   UNL     1     -44.879 -51.268  14.383  1.00  0.00     0.124 C 
ENDBRANCH  22  24
ENDBRANCH   4  17
TORSDOF 5
ENDMDL
MODEL 5
REMARK VINA RESULT:      -6.7      1.922      7.406
REMARK  5 active torsions:
REMARK  status: ('A' for Active; 'I' for Inactive)
REMARK       I    between atoms: C_2  and  N_3 
REMARK       I    between atoms: C_2  and  N_14 
REMARK    1  A    between atoms: N_3  and  C_4 
REMARK    2  A    between atoms: C_4  and  C_5 
REMARK    3  A    between atoms: C_5  and  N_6 
REMARK    4  A    between atoms: N_14  and  C_15 
REMARK    5  A    between atoms: C_21  and  N_22 
ROOT
HETATM    1  O   UNL     1     -41.213 -51.002  13.606  1.00  0.00    -0.254 OA
HETATM    2  C   UNL     1     -41.346 -51.633  12.567  1.00  0.00     0.298 C 
HETATM    3  N   UNL     1     -40.932 -51.163  11.340  1.00  0.00    -0.346 N 
HETATM    4  N   UNL     1     -41.901 -52.895  12.453  1.00  0.00    -0.207 NA
HETATM    5  H   UNL     1     -41.482 -51.483  10.555  1.00  0.00     0.163 HD
HETATM    6  H   UNL     1     -41.341 -53.461  11.829  1.00  0.00     0.138 HD
ENDROOT
BRANCH   3   7
HETATM    7  C   UNL     1     -40.358 -49.825  11.236  1.00  0.00     0.143 C 
BRANCH   7   8
HETATM    8  C   UNL     1     -38.828 -49.852  11.292  1.00  0.00     0.145 C 
BRANCH   8   9
HETATM    9  N   UNL     1     -38.254 -49.658  12.620  1.00  0.00    -0.351 N 
HETATM   10  C   UNL     1     -38.347 -48.326  13.215  1.00  0.00     0.126 C 
HETATM   11  C   UNL     1     -39.250 -48.308  14.436  1.00  0.00     0.020 C 
HETATM   12  C   UNL     1     -38.533 -48.690  15.729  1.00  0.00     0.002 C 
HETATM   13  C   UNL     1     -37.425 -49.735  15.588  1.00  0.00     0.009 C 
HETATM   14  C   UNL     1     -37.796 -50.912  14.707  1.00  0.00     0.103 C 
HETATM   15  C   UNL     1     -37.621 -50.734  13.208  1.00  0.00     0.219 C 
HETATM   16  O   UNL     1     -37.109 -51.631  12.534  1.00  0.00    -0.273 OA
ENDBRANCH   8   9
ENDBRANCH   7   8
ENDBRANCH   3   7
BRANCH   4  17
HETATM   17  C   UNL     1     -42.263 -53.582  13.644  1.00  0.00     0.060 A 
HETATM   18  C   UNL     1     -41.305 -54.416  14.236  1.00  0.00     0.029 A 
HETATM   19  C   UNL     1     -41.604 -55.079  15.416  1.00  0.00     0.019 A 
HETATM   20  C   UNL     1     -42.860 -54.891  15.950  1.00  0.00     0.090 A 
HETATM   21  N   UNL     1     -43.815 -54.122  15.380  1.00  0.00    -0.351 N 
HETATM   22  C   UNL     1     -43.546 -53.465  14.221  1.00  0.00     0.125 A 
ATOM     23  HN  UNL     1     -44.732 -54.036  15.817  1.00  0.00     0.166 HD
BRANCH  22  24
HETATM   24  N   UNL     1     -44.587 -52.758  13.671  1.00  0.00    -0.366 N 
HETATM   25  C   UNL     1     -45.355 -53.097  12.487  1.00  0.00     0.124 C 
HETATM   26  C   UNL     1     -46.452 -52.032  12.410  1.00  0.00     0.021 C 
HETATM   27  C   UNL     1     -46.440 -51.356  13.772  1.00  0.00     0.021 C 
HETATM   28  C   UNL     1     -44.988 -51.473  14.219  1.00  0.00     0.124 C 
ENDBRANCH  22  24
ENDBRANCH   4  17
TORSDOF 5
ENDMDL
MODEL 6
REMARK VINA RESULT:      -6.7      1.905      7.288
REMARK  5 active torsions:
REMARK  status: ('A' for Active; 'I' for Inactive)
REMARK       I    between atoms: C_2  and  N_3 
REMARK       I    between atoms: C_2  and  N_14 
REMARK    1  A    between atoms: N_3  and  C_4 
REMARK    2  A    between atoms: C_4  and  C_5 
REMARK    3  A    between atoms: C_5  and  N_6 
REMARK    4  A    between atoms: N_14  and  C_15 
REMARK    5  A    between atoms: C_21  and  N_22 
ROOT
HETATM    1  O   UNL     1     -42.023 -49.849  13.562  1.00  0.00    -0.254 OA
HETATM    2  C   UNL     1     -42.230 -50.205  12.410  1.00  0.00     0.298 C 
HETATM    3  N   UNL     1     -42.321 -49.325  11.353  1.00  0.00    -0.346 N 
HETATM    4  N   UNL     1     -42.386 -51.511  11.984  1.00  0.00    -0.207 NA
HETATM    5  H   UNL     1     -42.936 -49.620  10.608  1.00  0.00     0.163 HD
HETATM    6  H   UNL     1     -41.869 -51.657  11.126  1.00  0.00     0.138 HD
ENDROOT
BRANCH   3   7
HETATM    7  C   UNL     1     -42.227 -47.891  11.599  1.00  0.00     0.143 C 
BRANCH   7   8
HETATM    8  C   UNL     1     -40.919 -47.301  11.063  1.00  0.00     0.145 C 
BRANCH   8   9
HETATM    9  N   UNL     1     -39.865 -47.129  12.059  1.00  0.00    -0.351 N 
HETATM   10  C   UNL     1     -39.655 -45.790  12.606  1.00  0.00     0.126 C 
HETATM   11  C   UNL     1     -40.010 -45.713  14.081  1.00  0.00     0.020 C 
HETATM   12  C   UNL     1     -38.866 -46.126  15.004  1.00  0.00     0.002 C 
HETATM   13  C   UNL     1     -37.952 -47.231  14.474  1.00  0.00     0.009 C 
HETATM   14  C   UNL     1     -38.693 -48.393  13.839  1.00  0.00     0.103 C 
HETATM   15  C   UNL     1     -39.107 -48.235  12.385  1.00  0.00     0.219 C 
HETATM   16  O   UNL     1     -38.941 -49.163  11.591  1.00  0.00    -0.273 OA
ENDBRANCH   8   9
ENDBRANCH   7   8
ENDBRANCH   3   7
BRANCH   4  17
HETATM   17  C   UNL     1     -42.194 -52.557  12.927  1.00  0.00     0.060 A 
HETATM   18  C   UNL     1     -40.933 -53.168  12.979  1.00  0.00     0.029 A 
HETATM   19  C   UNL     1     -40.691 -54.168  13.907  1.00  0.00     0.019 A 
HETATM   20  C   UNL     1     -41.727 -54.528  14.740  1.00  0.00     0.090 A 
HETATM   21  N   UNL     1     -42.963 -53.981  14.686  1.00  0.00    -0.351 N 
HETATM   22  C   UNL     1     -43.225 -53.001  13.783  1.00  0.00     0.125 A 
ATOM     23  HN  UNL     1     -43.693 -54.302  15.321  1.00  0.00     0.166 HD
BRANCH  22  24
HETATM   24  N   UNL     1     -44.520 -52.543  13.746  1.00  0.00    -0.366 N 
HETATM   25  C   UNL     1     -45.159 -51.632  14.678  1.00  0.00     0.124 C 
HETATM   26  C   UNL     1     -46.550 -51.380  14.090  1.00  0.00     0.021 C 
HETATM   27  C   UNL     1     -46.475 -51.901  12.663  1.00  0.00     0.021 C 
HETATM   28  C   UNL     1     -45.455 -53.029  12.746  1.00  0.00     0.124 C 
ENDBRANCH  22  24
ENDBRANCH   4  17
TORSDOF 5
ENDMDL
MODEL 7
REMARK VINA RESULT:      -6.6      2.572      4.399
REMARK  5 active torsions:
REMARK  status: ('A' for Active; 'I' for Inactive)
REMARK       I    between atoms: C_2  and  N_3 
REMARK       I    between atoms: C_2  and  N_14 
REMARK    1  A    between atoms: N_3  and  C_4 
REMARK    2  A    between atoms: C_4  and  C_5 
REMARK    3  A    between atoms: C_5  and  N_6 
REMARK    4  A    between atoms: N_14  and  C_15 
REMARK    5  A    between atoms: C_21  and  N_22 
ROOT
HETATM    1  O   UNL     1     -42.505 -48.810  12.155  1.00  0.00    -0.254 OA
HETATM    2  C   UNL     1     -41.526 -48.867  11.423  1.00  0.00     0.298 C 
HETATM    3  N   UNL     1     -40.487 -49.750  11.621  1.00  0.00    -0.346 N 
HETATM    4  N   UNL     1     -41.312 -48.091  10.299  1.00  0.00    -0.207 NA
HETATM    5  H   UNL     1     -39.584 -49.418  11.312  1.00  0.00     0.163 HD
HETATM    6  H   UNL     1     -40.954 -48.666   9.548  1.00  0.00     0.138 HD
ENDROOT
BRANCH   3   7
HETATM    7  C   UNL     1     -40.501 -50.631  12.784  1.00  0.00     0.143 C 
BRANCH   7   8
HETATM    8  C   UNL     1     -40.863 -52.071  12.408  1.00  0.00     0.145 C 
BRANCH   8   9
HETATM    9  N   UNL     1     -41.925 -52.669  13.211  1.00  0.00    -0.351 N 
HETATM   10  C   UNL     1     -43.306 -52.305  12.898  1.00  0.00     0.126 C 
HETATM   11  C   UNL     1     -44.098 -53.480  12.352  1.00  0.00     0.020 C 
HETATM   12  C   UNL     1     -44.716 -54.355  13.441  1.00  0.00     0.002 C 
HETATM   13  C   UNL     1     -43.899 -54.488  14.726  1.00  0.00     0.009 C 
HETATM   14  C   UNL     1     -42.420 -54.730  14.496  1.00  0.00     0.103 C 
HETATM   15  C   UNL     1     -41.553 -53.508  14.243  1.00  0.00     0.219 C 
HETATM   16  O   UNL     1     -40.461 -53.397  14.804  1.00  0.00    -0.273 OA
ENDBRANCH   8   9
ENDBRANCH   7   8
ENDBRANCH   3   7
BRANCH   4  17
HETATM   17  C   UNL     1     -42.348 -47.214   9.876  1.00  0.00     0.060 A 
HETATM   18  C   UNL     1     -43.256 -47.688   8.918  1.00  0.00     0.029 A 
HETATM   19  C   UNL     1     -44.302 -46.879   8.503  1.00  0.00     0.019 A 
HETATM   20  C   UNL     1     -44.390 -45.620   9.053  1.00  0.00     0.090 A 
HETATM   21  N   UNL     1     -43.507 -45.125   9.950  1.00  0.00    -0.351 N 
HETATM   22  C   UNL     1     -42.471 -45.898  10.371  1.00  0.00     0.125 A 
ATOM     23  HN  UNL     1     -43.618 -44.177  10.309  1.00  0.00     0.166 HD
BRANCH  22  24
HETATM   24  N   UNL     1     -41.582 -45.302  11.231  1.00  0.00    -0.366 N 
HETATM   25  C   UNL     1     -41.677 -45.213  12.676  1.00  0.00     0.124 C 
HETATM   26  C   UNL     1     -40.367 -44.556  13.118  1.00  0.00     0.021 C 
HETATM   27  C   UNL     1     -39.457 -44.635  11.902  1.00  0.00     0.021 C 
HETATM   28  C   UNL     1     -40.424 -44.582  10.726  1.00  0.00     0.124 C 
ENDBRANCH  22  24
ENDBRANCH   4  17
TORSDOF 5
ENDMDL
MODEL 8
REMARK VINA RESULT:      -6.6      2.353      6.774
REMARK  5 active torsions:
REMARK  status: ('A' for Active; 'I' for Inactive)
REMARK       I    between atoms: C_2  and  N_3 
REMARK       I    between atoms: C_2  and  N_14 
REMARK    1  A    between atoms: N_3  and  C_4 
REMARK    2  A    between atoms: C_4  and  C_5 
REMARK    3  A    between atoms: C_5  and  N_6 
REMARK    4  A    between atoms: N_14  and  C_15 
REMARK    5  A    between atoms: C_21  and  N_22 
ROOT
HETATM    1  O   UNL     1     -42.117 -50.562  13.161  1.00  0.00    -0.254 OA
HETATM    2  C   UNL     1     -41.786 -51.147  12.139  1.00  0.00     0.298 C 
HETATM    3  N   UNL     1     -40.905 -50.620  11.220  1.00  0.00    -0.346 N 
HETATM    4  N   UNL     1     -42.213 -52.404  11.753  1.00  0.00    -0.207 NA
HETATM    5  H   UNL     1     -41.065 -50.907  10.265  1.00  0.00     0.163 HD
HETATM    6  H   UNL     1     -41.430 -52.939  11.400  1.00  0.00     0.138 HD
ENDROOT
BRANCH   3   7
HETATM    7  C   UNL     1     -40.370 -49.277  11.421  1.00  0.00     0.143 C 
BRANCH   7   8
HETATM    8  C   UNL     1     -41.321 -48.197  10.896  1.00  0.00     0.145 C 
BRANCH   8   9
HETATM    9  N   UNL     1     -41.098 -46.861  11.440  1.00  0.00    -0.351 N 
HETATM   10  C   UNL     1     -40.795 -46.745  12.865  1.00  0.00     0.126 C 
HETATM   11  C   UNL     1     -39.380 -46.253  13.111  1.00  0.00     0.020 C 
HETATM   12  C   UNL     1     -39.253 -44.731  13.096  1.00  0.00     0.002 C 
HETATM   13  C   UNL     1     -40.181 -43.999  12.126  1.00  0.00     0.009 C 
HETATM   14  C   UNL     1     -40.261 -44.632  10.751  1.00  0.00     0.103 C 
HETATM   15  C   UNL     1     -41.231 -45.789  10.580  1.00  0.00     0.219 C 
HETATM   16  O   UNL     1     -41.959 -45.844   9.586  1.00  0.00    -0.273 OA
ENDBRANCH   8   9
ENDBRANCH   7   8
ENDBRANCH   3   7
BRANCH   4  17
HETATM   17  C   UNL     1     -43.028 -53.145  12.651  1.00  0.00     0.060 A 
HETATM   18  C   UNL     1     -44.407 -53.188  12.402  1.00  0.00     0.029 A 
HETATM   19  C   UNL     1     -45.234 -53.927  13.232  1.00  0.00     0.019 A 
HETATM   20  C   UNL     1     -44.648 -54.585  14.291  1.00  0.00     0.090 A 
HETATM   21  N   UNL     1     -43.327 -54.530  14.576  1.00  0.00    -0.351 N 
HETATM   22  C   UNL     1     -42.497 -53.809  13.778  1.00  0.00     0.125 A 
ATOM     23  HN  UNL     1     -42.957 -55.027  15.386  1.00  0.00     0.166 HD
BRANCH  22  24
HETATM   24  N   UNL     1     -41.182 -53.749  14.171  1.00  0.00    -0.366 N 
HETATM   25  C   UNL     1     -40.616 -52.945  15.238  1.00  0.00     0.124 C 
HETATM   26  C   UNL     1     -39.145 -53.360  15.307  1.00  0.00     0.021 C 
HETATM   27  C   UNL     1     -39.059 -54.642  14.492  1.00  0.00     0.021 C 
HETATM   28  C   UNL     1     -40.153 -54.477  13.446  1.00  0.00     0.124 C 
ENDBRANCH  22  24
ENDBRANCH   4  17
TORSDOF 5
ENDMDL
MODEL 9
REMARK VINA RESULT:      -6.5      2.911      5.188
REMARK  5 active torsions:
REMARK  status: ('A' for Active; 'I' for Inactive)
REMARK       I    between atoms: C_2  and  N_3 
REMARK       I    between atoms: C_2  and  N_14 
REMARK    1  A    between atoms: N_3  and  C_4 
REMARK    2  A    between atoms: C_4  and  C_5 
REMARK    3  A    between atoms: C_5  and  N_6 
REMARK    4  A    between atoms: N_14  and  C_15 
REMARK    5  A    between atoms: C_21  and  N_22 
ROOT
HETATM    1  O   UNL     1     -42.379 -49.083  13.094  1.00  0.00    -0.254 OA
HETATM    2  C   UNL     1     -42.073 -49.782  12.138  1.00  0.00     0.298 C 
HETATM    3  N   UNL     1     -42.361 -51.127  12.065  1.00  0.00    -0.346 N 
HETATM    4  N   UNL     1     -41.422 -49.350  10.998  1.00  0.00    -0.207 NA
HETATM    5  H   UNL     1     -41.696 -51.675  11.538  1.00  0.00     0.163 HD
HETATM    6  H   UNL     1     -41.858 -49.756  10.179  1.00  0.00     0.138 HD
ENDROOT
BRANCH   3   7
HETATM    7  C   UNL     1     -43.009 -51.788  13.192  1.00  0.00     0.143 C 
BRANCH   7   8
HETATM    8  C   UNL     1     -42.650 -53.276  13.269  1.00  0.00     0.145 C 
BRANCH   8   9
HETATM    9  N   UNL     1     -41.507 -53.592  14.120  1.00  0.00    -0.351 N 
HETATM   10  C   UNL     1     -41.752 -53.789  15.547  1.00  0.00     0.126 C 
HETATM   11  C   UNL     1     -41.502 -55.223  15.978  1.00  0.00     0.020 C 
HETATM   12  C   UNL     1     -40.042 -55.508  16.325  1.00  0.00     0.002 C 
HETATM   13  C   UNL     1     -39.004 -54.743  15.503  1.00  0.00     0.009 C 
HETATM   14  C   UNL     1     -39.298 -54.710  14.015  1.00  0.00     0.103 C 
HETATM   15  C   UNL     1     -40.261 -53.641  13.527  1.00  0.00     0.219 C 
HETATM   16  O   UNL     1     -40.004 -52.994  12.509  1.00  0.00    -0.273 OA
ENDBRANCH   8   9
ENDBRANCH   7   8
ENDBRANCH   3   7
BRANCH   4  17
HETATM   17  C   UNL     1     -41.165 -47.960  10.852  1.00  0.00     0.060 A 
HETATM   18  C   UNL     1     -39.987 -47.449  11.417  1.00  0.00     0.029 A 
HETATM   19  C   UNL     1     -39.680 -46.106  11.269  1.00  0.00     0.019 A 
HETATM   20  C   UNL     1     -40.573 -45.322  10.573  1.00  0.00     0.090 A 
HETATM   21  N   UNL     1     -41.733 -45.781  10.051  1.00  0.00    -0.351 N 
HETATM   22  C   UNL     1     -42.058 -47.093  10.185  1.00  0.00     0.125 A 
ATOM     23  HN  UNL     1     -42.360 -45.145   9.559  1.00  0.00     0.166 HD
BRANCH  22  24
HETATM   24  N   UNL     1     -43.281 -47.468   9.686  1.00  0.00    -0.366 N 
HETATM   25  C   UNL     1     -44.529 -47.596  10.415  1.00  0.00     0.124 C 
HETATM   26  C   UNL     1     -45.577 -47.922   9.348  1.00  0.00     0.021 C 
HETATM   27  C   UNL     1     -44.900 -47.609   8.023  1.00  0.00     0.021 C 
HETATM   28  C   UNL     1     -43.427 -47.878   8.299  1.00  0.00     0.124 C 
ENDBRANCH  22  24
ENDBRANCH   4  17
TORSDOF 5
ENDMDL
