MODEL 1
REMARK VINA RESULT:      -6.5      0.000      0.000
REMARK  3 active torsions:
REMARK  status: ('A' for Active; 'I' for Inactive)
REMARK    1  A    between atoms: O_2  and  C_3 
REMARK    2  A    between atoms: C_9  and  N_10 
REMARK       I    between atoms: N_10  and  C_11 
REMARK       I    between atoms: C_11  and  N_13 
REMARK    3  A    between atoms: N_13  and  C_14 
ROOT
HETATM    1  N   UNL     1     -42.103 -48.184   9.402  1.00  0.00    -0.310 N 
HETATM    2  C   UNL     1     -41.566 -48.449  10.645  1.00  0.00     0.299 C 
HETATM    3  O   UNL     1     -41.959 -47.961  11.700  1.00  0.00    -0.254 OA
HETATM    4  N   UNL     1     -40.481 -49.307  10.614  1.00  0.00    -0.231 NA
HETATM    5  H   UNL     1     -41.494 -48.283   8.598  1.00  0.00     0.170 HD
HETATM    6  H   UNL     1     -40.597 -50.071   9.960  1.00  0.00     0.133 HD
ENDROOT
BRANCH   1   7
HETATM    7  C   UNL     1     -43.250 -47.351   9.214  1.00  0.00     0.087 A 
HETATM    8  C   UNL     1     -43.184 -45.959   9.366  1.00  0.00     0.169 A 
HETATM    9  N   UNL     1     -44.273 -45.143   9.312  1.00  0.00    -0.345 N 
HETATM   10  C   UNL     1     -45.464 -45.715   9.044  1.00  0.00     0.090 A 
ATOM     11  HN  UNL     1     -44.191 -44.139   9.468  1.00  0.00     0.167 HD
HETATM   12  C   UNL     1     -45.618 -47.061   8.786  1.00  0.00     0.019 A 
HETATM   13  C   UNL     1     -44.495 -47.880   8.863  1.00  0.00     0.035 A 
BRANCH   8  14
HETATM   14  O   UNL     1     -41.952 -45.376   9.600  1.00  0.00    -0.339 OA
HETATM   15  C   UNL     1     -41.949 -44.637  10.827  1.00  0.00     0.211 C 
ENDBRANCH   8  14
ENDBRANCH   1   7
BRANCH   4  16
HETATM   16  C   UNL     1     -39.922 -49.683  11.929  1.00  0.00     0.151 C 
HETATM   17  C   UNL     1     -38.402 -49.529  11.984  1.00  0.00     0.029 C 
HETATM   18  C   UNL     1     -37.927 -49.413  13.439  1.00  0.00     0.003 C 
HETATM   19  C   UNL     1     -37.739 -50.734  14.178  1.00  0.00     0.015 C 
HETATM   20  C   UNL     1     -38.650 -51.891  13.793  1.00  0.00     0.095 C 
HETATM   21  N   UNL     1     -40.041 -51.563  13.563  1.00  0.00    -0.262 NA
HETATM   22  C   UNL     1     -40.408 -51.092  12.321  1.00  0.00     0.215 C 
HETATM   23  H   UNL     1     -40.634 -52.361  13.763  1.00  0.00     0.130 HD
HETATM   24  O   UNL     1     -41.139 -51.783  11.611  1.00  0.00    -0.278 OA
ENDBRANCH   4  16
TORSDOF 3
ENDMDL
MODEL 2
REMARK VINA RESULT:      -6.5      4.215      6.058
REMARK  3 active torsions:
REMARK  status: ('A' for Active; 'I' for Inactive)
REMARK    1  A    between atoms: O_2  and  C_3 
REMARK    2  A    between atoms: C_9  and  N_10 
REMARK       I    between atoms: N_10  and  C_11 
REMARK       I    between atoms: C_11  and  N_13 
REMARK    3  A    between atoms: N_13  and  C_14 
ROOT
HETATM    1  N   UNL     1     -43.762 -52.861  12.091  1.00  0.00    -0.310 N 
HETATM    2  C   UNL     1     -42.760 -52.086  12.639  1.00  0.00     0.299 C 
HETATM    3  O   UNL     1     -42.695 -51.750  13.818  1.00  0.00    -0.254 OA
HETATM    4  N   UNL     1     -41.817 -51.661  11.721  1.00  0.00    -0.231 NA
HETATM    5  H   UNL     1     -43.959 -52.741  11.104  1.00  0.00     0.170 HD
HETATM    6  H   UNL     1     -41.568 -52.374  11.048  1.00  0.00     0.133 HD
ENDROOT
BRANCH   1   7
HETATM    7  C   UNL     1     -44.816 -53.431  12.872  1.00  0.00     0.087 A 
HETATM    8  C   UNL     1     -46.016 -52.744  13.104  1.00  0.00     0.169 A 
HETATM    9  N   UNL     1     -46.995 -53.199  13.935  1.00  0.00    -0.345 N 
HETATM   10  C   UNL     1     -46.807 -54.401  14.515  1.00  0.00     0.090 A 
ATOM     11  HN  UNL     1     -47.837 -52.652  14.112  1.00  0.00     0.167 HD
HETATM   12  C   UNL     1     -45.704 -55.195  14.275  1.00  0.00     0.019 A 
HETATM   13  C   UNL     1     -44.709 -54.704  13.436  1.00  0.00     0.035 A 
BRANCH   8  14
HETATM   14  O   UNL     1     -46.218 -51.530  12.474  1.00  0.00    -0.339 OA
HETATM   15  C   UNL     1     -47.158 -51.650  11.399  1.00  0.00     0.211 C 
ENDBRANCH   8  14
ENDBRANCH   1   7
BRANCH   4  16
HETATM   16  C   UNL     1     -40.681 -50.895  12.275  1.00  0.00     0.151 C 
HETATM   17  C   UNL     1     -40.108 -49.892  11.274  1.00  0.00     0.029 C 
HETATM   18  C   UNL     1     -39.327 -48.792  12.005  1.00  0.00     0.003 C 
HETATM   19  C   UNL     1     -37.885 -49.134  12.364  1.00  0.00     0.015 C 
HETATM   20  C   UNL     1     -37.564 -50.590  12.671  1.00  0.00     0.095 C 
HETATM   21  N   UNL     1     -38.532 -51.305  13.474  1.00  0.00    -0.262 NA
HETATM   22  C   UNL     1     -39.624 -51.863  12.844  1.00  0.00     0.215 C 
HETATM   23  H   UNL     1     -38.084 -52.048  13.998  1.00  0.00     0.130 HD
HETATM   24  O   UNL     1     -39.734 -53.088  12.808  1.00  0.00    -0.278 OA
ENDBRANCH   4  16
TORSDOF 3
ENDMDL
MODEL 3
REMARK VINA RESULT:      -6.4      4.221      6.142
REMARK  3 active torsions:
REMARK  status: ('A' for Active; 'I' for Inactive)
REMARK    1  A    between atoms: O_2  and  C_3 
REMARK    2  A    between atoms: C_9  and  N_10 
REMARK       I    between atoms: N_10  and  C_11 
REMARK       I    between atoms: C_11  and  N_13 
REMARK    3  A    between atoms: N_13  and  C_14 
ROOT
HETATM    1  N   UNL     1     -44.095 -51.966  12.531  1.00  0.00    -0.310 N 
HETATM    2  C   UNL     1     -42.904 -51.401  12.940  1.00  0.00     0.299 C 
HETATM    3  O   UNL     1     -42.650 -51.048  14.088  1.00  0.00    -0.254 OA
HETATM    4  N   UNL     1     -41.994 -51.212  11.915  1.00  0.00    -0.231 NA
HETATM    5  H   UNL     1     -44.364 -51.840  11.563  1.00  0.00     0.170 HD
HETATM    6  H   UNL     1     -41.968 -51.983  11.261  1.00  0.00     0.133 HD
ENDROOT
BRANCH   1   7
HETATM    7  C   UNL     1     -45.157 -52.278  13.437  1.00  0.00     0.087 A 
HETATM    8  C   UNL     1     -45.432 -53.596  13.826  1.00  0.00     0.169 A 
HETATM    9  N   UNL     1     -46.502 -53.948  14.592  1.00  0.00    -0.345 N 
HETATM   10  C   UNL     1     -47.300 -52.956  15.035  1.00  0.00     0.090 A 
ATOM     11  HN  UNL     1     -46.693 -54.923  14.820  1.00  0.00     0.167 HD
HETATM   12  C   UNL     1     -47.060 -51.621  14.785  1.00  0.00     0.019 A 
HETATM   13  C   UNL     1     -45.970 -51.285  13.988  1.00  0.00     0.035 A 
BRANCH   8  14
HETATM   14  O   UNL     1     -44.585 -54.603  13.400  1.00  0.00    -0.339 OA
HETATM   15  C   UNL     1     -43.682 -55.000  14.439  1.00  0.00     0.211 C 
ENDBRANCH   8  14
ENDBRANCH   1   7
BRANCH   4  16
HETATM   16  C   UNL     1     -40.675 -50.683  12.318  1.00  0.00     0.151 C 
HETATM   17  C   UNL     1     -40.102 -49.700  11.297  1.00  0.00     0.029 C 
HETATM   18  C   UNL     1     -39.045 -48.801  11.952  1.00  0.00     0.003 C 
HETATM   19  C   UNL     1     -37.643 -49.394  12.046  1.00  0.00     0.015 C 
HETATM   20  C   UNL     1     -37.527 -50.902  12.209  1.00  0.00     0.095 C 
HETATM   21  N   UNL     1     -38.467 -51.524  13.118  1.00  0.00    -0.262 NA
HETATM   22  C   UNL     1     -39.720 -51.848  12.646  1.00  0.00     0.215 C 
HETATM   23  H   UNL     1     -38.074 -52.369  13.516  1.00  0.00     0.130 HD
HETATM   24  O   UNL     1     -40.038 -53.034  12.556  1.00  0.00    -0.278 OA
ENDBRANCH   4  16
TORSDOF 3
ENDMDL
MODEL 4
REMARK VINA RESULT:      -6.2      3.348      6.913
REMARK  3 active torsions:
REMARK  status: ('A' for Active; 'I' for Inactive)
REMARK    1  A    between atoms: O_2  and  C_3 
REMARK    2  A    between atoms: C_9  and  N_10 
REMARK       I    between atoms: N_10  and  C_11 
REMARK       I    between atoms: C_11  and  N_13 
REMARK    3  A    between atoms: N_13  and  C_14 
ROOT
HETATM    1  N   UNL     1     -42.012 -52.538  12.111  1.00  0.00    -0.310 N 
HETATM    2  C   UNL     1     -42.036 -51.175  12.327  1.00  0.00     0.299 C 
HETATM    3  O   UNL     1     -42.508 -50.628  13.319  1.00  0.00    -0.254 OA
HETATM    4  N   UNL     1     -41.507 -50.435  11.284  1.00  0.00    -0.231 NA
HETATM    5  H   UNL     1     -41.997 -52.859  11.150  1.00  0.00     0.170 HD
HETATM    6  H   UNL     1     -40.675 -50.850  10.884  1.00  0.00     0.133 HD
ENDROOT
BRANCH   1   7
HETATM    7  C   UNL     1     -42.477 -53.485  13.077  1.00  0.00     0.087 A 
HETATM    8  C   UNL     1     -43.811 -53.914  13.104  1.00  0.00     0.169 A 
HETATM    9  N   UNL     1     -44.322 -54.722  14.075  1.00  0.00    -0.345 N 
HETATM   10  C   UNL     1     -43.473 -55.165  15.023  1.00  0.00     0.090 A 
ATOM     11  HN  UNL     1     -45.309 -54.980  14.085  1.00  0.00     0.167 HD
HETATM   12  C   UNL     1     -42.124 -54.875  15.029  1.00  0.00     0.019 A 
HETATM   13  C   UNL     1     -41.626 -54.035  14.038  1.00  0.00     0.035 A 
BRANCH   8  14
HETATM   14  O   UNL     1     -44.666 -53.487  12.105  1.00  0.00    -0.339 OA
HETATM   15  C   UNL     1     -45.685 -52.624  12.623  1.00  0.00     0.211 C 
ENDBRANCH   8  14
ENDBRANCH   1   7
BRANCH   4  16
HETATM   16  C   UNL     1     -41.437 -48.975  11.504  1.00  0.00     0.151 C 
HETATM   17  C   UNL     1     -42.169 -48.185  10.419  1.00  0.00     0.029 C 
HETATM   18  C   UNL     1     -42.528 -46.782  10.927  1.00  0.00     0.003 C 
HETATM   19  C   UNL     1     -41.418 -45.740  10.824  1.00  0.00     0.015 C 
HETATM   20  C   UNL     1     -39.983 -46.226  10.962  1.00  0.00     0.095 C 
HETATM   21  N   UNL     1     -39.736 -47.217  11.989  1.00  0.00    -0.262 NA
HETATM   22  C   UNL     1     -39.970 -48.542  11.692  1.00  0.00     0.215 C 
HETATM   23  H   UNL     1     -38.782 -47.154  12.324  1.00  0.00     0.130 HD
HETATM   24  O   UNL     1     -39.018 -49.321  11.641  1.00  0.00    -0.278 OA
ENDBRANCH   4  16
TORSDOF 3
ENDMDL
MODEL 5
REMARK VINA RESULT:      -6.2      1.477      7.398
REMARK  3 active torsions:
REMARK  status: ('A' for Active; 'I' for Inactive)
REMARK    1  A    between atoms: O_2  and  C_3 
REMARK    2  A    between atoms: C_9  and  N_10 
REMARK       I    between atoms: N_10  and  C_11 
REMARK       I    between atoms: C_11  and  N_13 
REMARK    3  A    between atoms: N_13  and  C_14 
ROOT
HETATM    1  N   UNL     1     -38.948 -48.499  11.883  1.00  0.00    -0.310 N 
HETATM    2  C   UNL     1     -40.270 -48.112  11.804  1.00  0.00     0.299 C 
HETATM    3  O   UNL     1     -41.102 -48.262  12.694  1.00  0.00    -0.254 OA
HETATM    4  N   UNL     1     -40.618 -47.557  10.585  1.00  0.00    -0.231 NA
HETATM    5  H   UNL     1     -38.472 -48.716  11.015  1.00  0.00     0.170 HD
HETATM    6  H   UNL     1     -39.907 -46.942  10.211  1.00  0.00     0.133 HD
ENDROOT
BRANCH   1   7
HETATM    7  C   UNL     1     -38.374 -49.063  13.066  1.00  0.00     0.087 A 
HETATM    8  C   UNL     1     -38.429 -50.438  13.329  1.00  0.00     0.169 A 
HETATM    9  N   UNL     1     -38.001 -50.999  14.494  1.00  0.00    -0.345 N 
HETATM   10  C   UNL     1     -37.448 -50.180  15.410  1.00  0.00     0.090 A 
ATOM     11  HN  UNL     1     -38.095 -52.000  14.666  1.00  0.00     0.167 HD
HETATM   12  C   UNL     1     -37.263 -48.828  15.206  1.00  0.00     0.019 A 
HETATM   13  C   UNL     1     -37.723 -48.273  14.016  1.00  0.00     0.035 A 
BRANCH   8  14
HETATM   14  O   UNL     1     -38.961 -51.277  12.367  1.00  0.00    -0.339 OA
HETATM   15  C   UNL     1     -40.172 -51.892  12.821  1.00  0.00     0.211 C 
ENDBRANCH   8  14
ENDBRANCH   1   7
BRANCH   4  16
HETATM   16  C   UNL     1     -42.004 -47.053  10.481  1.00  0.00     0.151 C 
HETATM   17  C   UNL     1     -42.834 -47.832   9.461  1.00  0.00     0.029 C 
HETATM   18  C   UNL     1     -44.332 -47.657   9.743  1.00  0.00     0.003 C 
HETATM   19  C   UNL     1     -44.967 -46.392   9.173  1.00  0.00     0.015 C 
HETATM   20  C   UNL     1     -44.090 -45.153   9.066  1.00  0.00     0.095 C 
HETATM   21  N   UNL     1     -43.210 -44.890  10.186  1.00  0.00    -0.262 NA
HETATM   22  C   UNL     1     -41.992 -45.533  10.228  1.00  0.00     0.215 C 
HETATM   23  H   UNL     1     -43.023 -43.898  10.269  1.00  0.00     0.130 HD
HETATM   24  O   UNL     1     -40.961 -44.870  10.114  1.00  0.00    -0.278 OA
ENDBRANCH   4  16
TORSDOF 3
ENDMDL
MODEL 6
REMARK VINA RESULT:      -6.2      4.076      5.467
REMARK  3 active torsions:
REMARK  status: ('A' for Active; 'I' for Inactive)
REMARK    1  A    between atoms: O_2  and  C_3 
REMARK    2  A    between atoms: C_9  and  N_10 
REMARK       I    between atoms: N_10  and  C_11 
REMARK       I    between atoms: C_11  and  N_13 
REMARK    3  A    between atoms: N_13  and  C_14 
ROOT
HETATM    1  N   UNL     1     -41.777 -49.886  11.803  1.00  0.00    -0.310 N 
HETATM    2  C   UNL     1     -42.957 -50.087  12.490  1.00  0.00     0.299 C 
HETATM    3  O   UNL     1     -43.594 -49.210  13.065  1.00  0.00    -0.254 OA
HETATM    4  N   UNL     1     -43.366 -51.408  12.523  1.00  0.00    -0.231 NA
HETATM    5  H   UNL     1     -41.138 -50.670  11.731  1.00  0.00     0.170 HD
HETATM    6  H   UNL     1     -43.226 -51.889  11.645  1.00  0.00     0.133 HD
ENDROOT
BRANCH   1   7
HETATM    7  C   UNL     1     -41.197 -48.592  11.619  1.00  0.00     0.087 A 
HETATM    8  C   UNL     1     -41.551 -47.771  10.540  1.00  0.00     0.169 A 
HETATM    9  N   UNL     1     -40.941 -46.585  10.263  1.00  0.00    -0.345 N 
HETATM   10  C   UNL     1     -39.982 -46.169  11.114  1.00  0.00     0.090 A 
ATOM     11  HN  UNL     1     -41.198 -46.035   9.444  1.00  0.00     0.167 HD
HETATM   12  C   UNL     1     -39.627 -46.858  12.254  1.00  0.00     0.019 A 
HETATM   13  C   UNL     1     -40.252 -48.075  12.509  1.00  0.00     0.035 A 
BRANCH   8  14
HETATM   14  O   UNL     1     -42.564 -48.187   9.695  1.00  0.00    -0.339 OA
HETATM   15  C   UNL     1     -43.745 -47.396   9.867  1.00  0.00     0.211 C 
ENDBRANCH   8  14
ENDBRANCH   1   7
BRANCH   4  16
HETATM   16  C   UNL     1     -44.666 -51.660  13.179  1.00  0.00     0.151 C 
HETATM   17  C   UNL     1     -44.613 -51.434  14.690  1.00  0.00     0.029 C 
HETATM   18  C   UNL     1     -46.021 -51.189  15.246  1.00  0.00     0.003 C 
HETATM   19  C   UNL     1     -46.839 -52.442  15.545  1.00  0.00     0.015 C 
HETATM   20  C   UNL     1     -46.596 -53.664  14.671  1.00  0.00     0.095 C 
HETATM   21  N   UNL     1     -46.434 -53.418  13.254  1.00  0.00    -0.262 NA
HETATM   22  C   UNL     1     -45.188 -53.057  12.789  1.00  0.00     0.215 C 
HETATM   23  H   UNL     1     -46.727 -54.225  12.715  1.00  0.00     0.130 HD
HETATM   24  O   UNL     1     -44.577 -53.831  12.051  1.00  0.00    -0.278 OA
ENDBRANCH   4  16
TORSDOF 3
ENDMDL
MODEL 7
REMARK VINA RESULT:      -6.0      4.257      5.529
REMARK  3 active torsions:
REMARK  status: ('A' for Active; 'I' for Inactive)
REMARK    1  A    between atoms: O_2  and  C_3 
REMARK    2  A    between atoms: C_9  and  N_10 
REMARK       I    between atoms: N_10  and  C_11 
REMARK       I    between atoms: C_11  and  N_13 
REMARK    3  A    between atoms: N_13  and  C_14 
ROOT
HETATM    1  N   UNL     1     -43.493 -48.884  12.018  1.00  0.00    -0.310 N 
HETATM    2  C   UNL     1     -43.455 -50.113  12.645  1.00  0.00     0.299 C 
HETATM    3  O   UNL     1     -42.438 -50.660  13.061  1.00  0.00    -0.254 OA
HETATM    4  N   UNL     1     -44.690 -50.731  12.737  1.00  0.00    -0.231 NA
HETATM    5  H   UNL     1     -44.252 -48.712  11.369  1.00  0.00     0.170 HD
HETATM    6  H   UNL     1     -45.438 -50.090  12.966  1.00  0.00     0.133 HD
ENDROOT
BRANCH   1   7
HETATM    7  C   UNL     1     -42.334 -48.063  11.850  1.00  0.00     0.087 A 
HETATM    8  C   UNL     1     -41.917 -47.624  10.585  1.00  0.00     0.169 A 
HETATM    9  N   UNL     1     -40.759 -46.942  10.369  1.00  0.00    -0.345 N 
HETATM   10  C   UNL     1     -40.010 -46.634  11.447  1.00  0.00     0.090 A 
ATOM     11  HN  UNL     1     -40.468 -46.675   9.429  1.00  0.00     0.167 HD
HETATM   12  C   UNL     1     -40.381 -46.938  12.740  1.00  0.00     0.019 A 
HETATM   13  C   UNL     1     -41.560 -47.650  12.937  1.00  0.00     0.035 A 
BRANCH   8  14
HETATM   14  O   UNL     1     -42.712 -47.909   9.490  1.00  0.00    -0.339 OA
HETATM   15  C   UNL     1     -43.259 -46.716   8.917  1.00  0.00     0.211 C 
ENDBRANCH   8  14
ENDBRANCH   1   7
BRANCH   4  16
HETATM   16  C   UNL     1     -44.712 -52.013  13.472  1.00  0.00     0.151 C 
HETATM   17  C   UNL     1     -44.559 -53.220  12.546  1.00  0.00     0.029 C 
HETATM   18  C   UNL     1     -44.068 -54.441  13.335  1.00  0.00     0.003 C 
HETATM   19  C   UNL     1     -45.150 -55.236  14.059  1.00  0.00     0.015 C 
HETATM   20  C   UNL     1     -46.362 -54.470  14.570  1.00  0.00     0.095 C 
HETATM   21  N   UNL     1     -46.097 -53.186  15.183  1.00  0.00    -0.262 NA
HETATM   22  C   UNL     1     -45.966 -52.083  14.365  1.00  0.00     0.215 C 
HETATM   23  H   UNL     1     -46.811 -52.961  15.867  1.00  0.00     0.130 HD
HETATM   24  O   UNL     1     -46.814 -51.192  14.421  1.00  0.00    -0.278 OA
ENDBRANCH   4  16
TORSDOF 3
ENDMDL
MODEL 8
REMARK VINA RESULT:      -5.9      2.513      7.257
REMARK  3 active torsions:
REMARK  status: ('A' for Active; 'I' for Inactive)
REMARK    1  A    between atoms: O_2  and  C_3 
REMARK    2  A    between atoms: C_9  and  N_10 
REMARK       I    between atoms: N_10  and  C_11 
REMARK       I    between atoms: C_11  and  N_13 
REMARK    3  A    between atoms: N_13  and  C_14 
ROOT
HETATM    1  N   UNL     1     -39.579 -48.717  11.060  1.00  0.00    -0.310 N 
HETATM    2  C   UNL     1     -40.014 -47.539  11.633  1.00  0.00     0.299 C 
HETATM    3  O   UNL     1     -40.107 -47.335  12.840  1.00  0.00    -0.254 OA
HETATM    4  N   UNL     1     -40.396 -46.578  10.714  1.00  0.00    -0.231 NA
HETATM    5  H   UNL     1     -39.917 -48.937  10.130  1.00  0.00     0.170 HD
HETATM    6  H   UNL     1     -39.783 -46.531   9.910  1.00  0.00     0.133 HD
ENDROOT
BRANCH   1   7
HETATM    7  C   UNL     1     -39.107 -49.826  11.830  1.00  0.00     0.087 A 
HETATM    8  C   UNL     1     -39.974 -50.827  12.289  1.00  0.00     0.169 A 
HETATM    9  N   UNL     1     -39.586 -51.835  13.120  1.00  0.00    -0.345 N 
HETATM   10  C   UNL     1     -38.285 -51.886  13.468  1.00  0.00     0.090 A 
ATOM     11  HN  UNL     1     -40.255 -52.522  13.467  1.00  0.00     0.167 HD
HETATM   12  C   UNL     1     -37.338 -51.003  12.994  1.00  0.00     0.019 A 
HETATM   13  C   UNL     1     -37.757 -49.972  12.159  1.00  0.00     0.035 A 
BRANCH   8  14
HETATM   14  O   UNL     1     -41.298 -50.790  11.894  1.00  0.00    -0.339 OA
HETATM   15  C   UNL     1     -41.977 -52.006  12.229  1.00  0.00     0.211 C 
ENDBRANCH   8  14
ENDBRANCH   1   7
BRANCH   4  16
HETATM   16  C   UNL     1     -40.793 -45.271  11.279  1.00  0.00     0.151 C 
HETATM   17  C   UNL     1     -42.300 -45.171  11.517  1.00  0.00     0.029 C 
HETATM   18  C   UNL     1     -42.608 -44.077  12.547  1.00  0.00     0.003 C 
HETATM   19  C   UNL     1     -42.683 -42.656  11.997  1.00  0.00     0.015 C 
HETATM   20  C   UNL     1     -41.797 -42.316  10.807  1.00  0.00     0.095 C 
HETATM   21  N   UNL     1     -40.449 -42.840  10.840  1.00  0.00    -0.262 NA
HETATM   22  C   UNL     1     -40.235 -44.131  10.405  1.00  0.00     0.215 C 
HETATM   23  H   UNL     1     -39.820 -42.245  10.313  1.00  0.00     0.130 HD
HETATM   24  O   UNL     1     -39.576 -44.317   9.382  1.00  0.00    -0.278 OA
ENDBRANCH   4  16
TORSDOF 3
ENDMDL
MODEL 9
REMARK VINA RESULT:      -5.9      3.052      6.795
REMARK  3 active torsions:
REMARK  status: ('A' for Active; 'I' for Inactive)
REMARK    1  A    between atoms: O_2  and  C_3 
REMARK    2  A    between atoms: C_9  and  N_10 
REMARK       I    between atoms: N_10  and  C_11 
REMARK       I    between atoms: C_11  and  N_13 
REMARK    3  A    between atoms: N_13  and  C_14 
ROOT
HETATM    1  N   UNL     1     -42.128 -52.118  11.919  1.00  0.00    -0.310 N 
HETATM    2  C   UNL     1     -42.185 -50.752  12.107  1.00  0.00     0.299 C 
HETATM    3  O   UNL     1     -42.835 -50.187  12.982  1.00  0.00    -0.254 OA
HETATM    4  N   UNL     1     -41.461 -50.029  11.175  1.00  0.00    -0.231 NA
HETATM    5  H   UNL     1     -41.932 -52.454  10.984  1.00  0.00     0.170 HD
HETATM    6  H   UNL     1     -40.571 -50.453  10.947  1.00  0.00     0.133 HD
ENDROOT
BRANCH   1   7
HETATM    7  C   UNL     1     -42.776 -53.048  12.791  1.00  0.00     0.087 A 
HETATM    8  C   UNL     1     -42.106 -53.633  13.875  1.00  0.00     0.169 A 
HETATM    9  N   UNL     1     -42.648 -54.607  14.657  1.00  0.00    -0.345 N 
HETATM   10  C   UNL     1     -43.917 -54.980  14.395  1.00  0.00     0.090 A 
ATOM     11  HN  UNL     1     -42.115 -55.039  15.412  1.00  0.00     0.167 HD
HETATM   12  C   UNL     1     -44.690 -54.398  13.412  1.00  0.00     0.019 A 
HETATM   13  C   UNL     1     -44.112 -53.416  12.614  1.00  0.00     0.035 A 
BRANCH   8  14
HETATM   14  O   UNL     1     -40.820 -53.216  14.163  1.00  0.00    -0.339 OA
HETATM   15  C   UNL     1     -39.867 -54.256  13.916  1.00  0.00     0.211 C 
ENDBRANCH   8  14
ENDBRANCH   1   7
BRANCH   4  16
HETATM   16  C   UNL     1     -41.426 -48.567  11.383  1.00  0.00     0.151 C 
HETATM   17  C   UNL     1     -42.076 -47.796  10.233  1.00  0.00     0.029 C 
HETATM   18  C   UNL     1     -42.491 -46.393  10.694  1.00  0.00     0.003 C 
HETATM   19  C   UNL     1     -41.388 -45.339  10.669  1.00  0.00     0.015 C 
HETATM   20  C   UNL     1     -39.963 -45.806  10.929  1.00  0.00     0.095 C 
HETATM   21  N   UNL     1     -39.790 -46.782  11.983  1.00  0.00    -0.262 NA
HETATM   22  C   UNL     1     -39.984 -48.114  11.684  1.00  0.00     0.215 C 
HETATM   23  H   UNL     1     -38.867 -46.705  12.395  1.00  0.00     0.130 HD
HETATM   24  O   UNL     1     -39.023 -48.882  11.719  1.00  0.00    -0.278 OA
ENDBRANCH   4  16
TORSDOF 3
ENDMDL
