MODEL 1
REMARK VINA RESULT:      -6.8      0.000      0.000
REMARK  6 active torsions:
REMARK  status: ('A' for Active; 'I' for Inactive)
REMARK    1  A    between atoms: C_2  and  C_3 
REMARK    2  A    between atoms: C_3  and  C_5 
REMARK    3  A    between atoms: C_3  and  N_7 
REMARK    4  A    between atoms: C_5  and  O_6 
REMARK       I    between atoms: N_7  and  C_8 
REMARK       I    between atoms: C_8  and  N_10 
REMARK    5  A    between atoms: N_10  and  C_11 
REMARK    6  A    between atoms: N_15  and  C_18 
ROOT
HETATM    1  C   UNL     1     -42.337 -52.628  12.347  1.00  0.00     0.702 C 
HETATM    2  N   UNL     1     -42.047 -53.682  13.162  1.00  0.00    -0.185 N 
ATOM      3  HN  UNL     1     -41.129 -54.041  13.425  1.00  0.00     0.185 HD
HETATM    4  C   UNL     1     -43.221 -54.126  13.527  1.00  0.00     0.218 C 
HETATM    5  N   UNL     1     -44.188 -53.354  12.969  1.00  0.00    -0.268 N 
HETATM    6  N   UNL     1     -43.637 -52.320  12.290  1.00  0.00    -0.128 N 
ATOM      7  HN  UNL     1     -44.091 -51.519  11.852  1.00  0.00     0.206 HD
ENDROOT
BRANCH   1   8
HETATM    8  N   UNL     1     -41.380 -51.948  11.636  1.00  0.00    -0.140 N 
HETATM    9  C   UNL     1     -40.326 -51.363  12.281  1.00  0.00     0.335 C 
HETATM   10  N   UNL     1     -39.440 -50.740  11.421  1.00  0.00    -0.332 N 
HETATM   11  O   UNL     1     -40.116 -51.405  13.489  1.00  0.00    -0.246 OA
HETATM   12  H   UNL     1     -39.858 -50.338  10.594  1.00  0.00     0.165 HD
HETATM   13  H   UNL     1     -41.272 -52.257  10.687  1.00  0.00     0.189 HD
BRANCH  10  14
HETATM   14  C   UNL     1     -38.205 -50.099  11.938  1.00  0.00     0.051 C 
HETATM   15  C   UNL     1     -37.260 -49.751  10.764  1.00  0.00     0.041 C 
BRANCH  14  16
HETATM   16  C   UNL     1     -38.567 -48.789  12.697  1.00  0.00     0.028 C 
HETATM   17  C   UNL     1     -37.678 -48.446  13.886  1.00  0.00     0.007 C 
ENDBRANCH  14  16
BRANCH  14  18
HETATM   18  C   UNL     1     -37.475 -51.041  12.952  1.00  0.00     0.194 C 
BRANCH  18  19
HETATM   19  O   UNL     1     -36.744 -52.079  12.302  1.00  0.00    -0.398 OA
HETATM   20  H   UNL     1     -36.300 -51.666  11.539  1.00  0.00     0.209 HD
ENDBRANCH  18  19
ENDBRANCH  14  18
ENDBRANCH  10  14
ENDBRANCH   1   8
BRANCH   5  21
HETATM   21  C   UNL     1     -45.636 -53.530  13.071  1.00  0.00     0.109 C 
HETATM   22  C   UNL     1     -46.425 -52.208  12.941  1.00  0.00     0.027 C 
HETATM   23  C   UNL     1     -46.263 -51.306  14.167  1.00  0.00     0.002 C 
HETATM   24  C   UNL     1     -46.640 -52.032  15.454  1.00  0.00     0.000 C 
HETATM   25  C   UNL     1     -45.907 -53.362  15.601  1.00  0.00     0.002 C 
HETATM   26  C   UNL     1     -46.082 -54.244  14.362  1.00  0.00     0.027 C 
ENDBRANCH   5  21
TORSDOF 6
ENDMDL
MODEL 2
REMARK VINA RESULT:      -6.3      1.723      2.284
REMARK  6 active torsions:
REMARK  status: ('A' for Active; 'I' for Inactive)
REMARK    1  A    between atoms: C_2  and  C_3 
REMARK    2  A    between atoms: C_3  and  C_5 
REMARK    3  A    between atoms: C_3  and  N_7 
REMARK    4  A    between atoms: C_5  and  O_6 
REMARK       I    between atoms: N_7  and  C_8 
REMARK       I    between atoms: C_8  and  N_10 
REMARK    5  A    between atoms: N_10  and  C_11 
REMARK    6  A    between atoms: N_15  and  C_18 
ROOT
HETATM    1  C   UNL     1     -43.245 -52.874  12.391  1.00  0.00     0.702 C 
HETATM    2  N   UNL     1     -43.349 -54.213  12.625  1.00  0.00    -0.185 N 
ATOM      3  HN  UNL     1     -42.661 -54.941  12.433  1.00  0.00     0.185 HD
HETATM    4  C   UNL     1     -44.539 -54.345  13.153  1.00  0.00     0.218 C 
HETATM    5  N   UNL     1     -45.125 -53.125  13.254  1.00  0.00    -0.268 N 
HETATM    6  N   UNL     1     -44.266 -52.152  12.865  1.00  0.00    -0.128 N 
ATOM      7  HN  UNL     1     -44.370 -51.139  12.920  1.00  0.00     0.206 HD
ENDROOT
BRANCH   1   8
HETATM    8  N   UNL     1     -42.190 -52.312  11.716  1.00  0.00    -0.140 N 
HETATM    9  C   UNL     1     -41.630 -51.146  12.159  1.00  0.00     0.335 C 
HETATM   10  N   UNL     1     -40.563 -50.727  11.385  1.00  0.00    -0.332 N 
HETATM   11  O   UNL     1     -41.969 -50.526  13.162  1.00  0.00    -0.246 OA
HETATM   12  H   UNL     1     -40.631 -50.956  10.403  1.00  0.00     0.165 HD
HETATM   13  H   UNL     1     -41.629 -52.969  11.204  1.00  0.00     0.189 HD
BRANCH  10  14
HETATM   14  C   UNL     1     -39.795 -49.509  11.747  1.00  0.00     0.051 C 
HETATM   15  C   UNL     1     -39.624 -49.429  13.282  1.00  0.00     0.041 C 
BRANCH  14  16
HETATM   16  C   UNL     1     -38.386 -49.558  11.087  1.00  0.00     0.028 C 
HETATM   17  C   UNL     1     -37.357 -50.438  11.787  1.00  0.00     0.007 C 
ENDBRANCH  14  16
BRANCH  14  18
HETATM   18  C   UNL     1     -40.514 -48.224  11.219  1.00  0.00     0.194 C 
BRANCH  18  19
HETATM   19  O   UNL     1     -41.278 -48.472  10.041  1.00  0.00    -0.398 OA
HETATM   20  H   UNL     1     -41.654 -49.366  10.141  1.00  0.00     0.209 HD
ENDBRANCH  18  19
ENDBRANCH  14  18
ENDBRANCH  10  14
ENDBRANCH   1   8
BRANCH   5  21
HETATM   21  C   UNL     1     -46.472 -52.823  13.735  1.00  0.00     0.109 C 
HETATM   22  C   UNL     1     -46.643 -51.358  14.197  1.00  0.00     0.027 C 
HETATM   23  C   UNL     1     -45.909 -51.068  15.508  1.00  0.00     0.002 C 
HETATM   24  C   UNL     1     -46.327 -52.032  16.614  1.00  0.00     0.000 C 
HETATM   25  C   UNL     1     -46.206 -53.490  16.183  1.00  0.00     0.002 C 
HETATM   26  C   UNL     1     -46.945 -53.754  14.868  1.00  0.00     0.027 C 
ENDBRANCH   5  21
TORSDOF 6
ENDMDL
MODEL 3
REMARK VINA RESULT:      -6.2      4.110      6.021
REMARK  6 active torsions:
REMARK  status: ('A' for Active; 'I' for Inactive)
REMARK    1  A    between atoms: C_2  and  C_3 
REMARK    2  A    between atoms: C_3  and  C_5 
REMARK    3  A    between atoms: C_3  and  N_7 
REMARK    4  A    between atoms: C_5  and  O_6 
REMARK       I    between atoms: N_7  and  C_8 
REMARK       I    between atoms: C_8  and  N_10 
REMARK    5  A    between atoms: N_10  and  C_11 
REMARK    6  A    between atoms: N_15  and  C_18 
ROOT
HETATM    1  C   UNL     1     -39.996 -50.145  11.677  1.00  0.00     0.702 C 
HETATM    2  N   UNL     1     -38.672 -50.466  11.715  1.00  0.00    -0.185 N 
ATOM      3  HN  UNL     1     -37.953 -50.260  11.020  1.00  0.00     0.185 HD
HETATM    4  C   UNL     1     -38.538 -51.100  12.850  1.00  0.00     0.218 C 
HETATM    5  N   UNL     1     -39.736 -51.142  13.487  1.00  0.00    -0.268 N 
HETATM    6  N   UNL     1     -40.665 -50.441  12.795  1.00  0.00    -0.128 N 
ATOM      7  HN  UNL     1     -41.621 -50.203  13.058  1.00  0.00     0.206 HD
ENDROOT
BRANCH   1   8
HETATM    8  N   UNL     1     -40.596 -49.577  10.581  1.00  0.00    -0.140 N 
HETATM    9  C   UNL     1     -41.557 -48.617  10.741  1.00  0.00     0.335 C 
HETATM   10  N   UNL     1     -42.043 -48.130   9.541  1.00  0.00    -0.332 N 
HETATM   11  O   UNL     1     -41.943 -48.164  11.813  1.00  0.00    -0.246 OA
HETATM   12  H   UNL     1     -42.069 -48.801   8.786  1.00  0.00     0.165 HD
HETATM   13  H   UNL     1     -40.033 -49.581   9.750  1.00  0.00     0.189 HD
BRANCH  10  14
HETATM   14  C   UNL     1     -43.052 -47.041   9.517  1.00  0.00     0.051 C 
HETATM   15  C   UNL     1     -43.382 -46.659   8.055  1.00  0.00     0.041 C 
BRANCH  14  16
HETATM   16  C   UNL     1     -44.358 -47.516  10.219  1.00  0.00     0.028 C 
HETATM   17  C   UNL     1     -45.625 -47.449   9.374  1.00  0.00     0.007 C 
ENDBRANCH  14  16
BRANCH  14  18
HETATM   18  C   UNL     1     -42.532 -45.787  10.294  1.00  0.00     0.194 C 
BRANCH  18  19
HETATM   19  O   UNL     1     -43.348 -44.636  10.080  1.00  0.00    -0.398 OA
HETATM   20  H   UNL     1     -43.711 -44.722   9.180  1.00  0.00     0.209 HD
ENDBRANCH  18  19
ENDBRANCH  14  18
ENDBRANCH  10  14
ENDBRANCH   1   8
BRANCH   5  21
HETATM   21  C   UNL     1     -40.046 -51.802  14.755  1.00  0.00     0.109 C 
HETATM   22  C   UNL     1     -39.305 -53.144  14.944  1.00  0.00     0.027 C 
HETATM   23  C   UNL     1     -39.843 -54.245  14.027  1.00  0.00     0.002 C 
HETATM   24  C   UNL     1     -41.347 -54.434  14.195  1.00  0.00     0.000 C 
HETATM   25  C   UNL     1     -42.112 -53.121  14.051  1.00  0.00     0.002 C 
HETATM   26  C   UNL     1     -41.553 -52.037  14.975  1.00  0.00     0.027 C 
ENDBRANCH   5  21
TORSDOF 6
ENDMDL
MODEL 4
REMARK VINA RESULT:      -6.1      1.507      1.987
REMARK  6 active torsions:
REMARK  status: ('A' for Active; 'I' for Inactive)
REMARK    1  A    between atoms: C_2  and  C_3 
REMARK    2  A    between atoms: C_3  and  C_5 
REMARK    3  A    between atoms: C_3  and  N_7 
REMARK    4  A    between atoms: C_5  and  O_6 
REMARK       I    between atoms: N_7  and  C_8 
REMARK       I    between atoms: C_8  and  N_10 
REMARK    5  A    between atoms: N_10  and  C_11 
REMARK    6  A    between atoms: N_15  and  C_18 
ROOT
HETATM    1  C   UNL     1     -42.027 -53.400  13.546  1.00  0.00     0.702 C 
HETATM    2  N   UNL     1     -42.066 -54.401  14.470  1.00  0.00    -0.185 N 
ATOM      3  HN  UNL     1     -41.289 -54.808  14.991  1.00  0.00     0.185 HD
HETATM    4  C   UNL     1     -43.333 -54.718  14.532  1.00  0.00     0.218 C 
HETATM    5  N   UNL     1     -44.039 -53.921  13.690  1.00  0.00    -0.268 N 
HETATM    6  N   UNL     1     -43.229 -52.995  13.124  1.00  0.00    -0.128 N 
ATOM      7  HN  UNL     1     -43.472 -52.200  12.532  1.00  0.00     0.206 HD
ENDROOT
BRANCH   1   8
HETATM    8  N   UNL     1     -40.855 -52.859  13.078  1.00  0.00    -0.140 N 
HETATM    9  C   UNL     1     -40.710 -51.503  12.987  1.00  0.00     0.335 C 
HETATM   10  N   UNL     1     -39.464 -51.120  12.522  1.00  0.00    -0.332 N 
HETATM   11  O   UNL     1     -41.547 -50.670  13.320  1.00  0.00    -0.246 OA
HETATM   12  H   UNL     1     -39.041 -51.756  11.860  1.00  0.00     0.165 HD
HETATM   13  H   UNL     1     -40.046 -53.437  13.220  1.00  0.00     0.189 HD
BRANCH  10  14
HETATM   14  C   UNL     1     -39.104 -49.684  12.411  1.00  0.00     0.051 C 
HETATM   15  C   UNL     1     -39.384 -48.964  13.751  1.00  0.00     0.041 C 
BRANCH  14  16
HETATM   16  C   UNL     1     -37.591 -49.544  12.072  1.00  0.00     0.028 C 
HETATM   17  C   UNL     1     -37.133 -50.232  10.792  1.00  0.00     0.007 C 
ENDBRANCH  14  16
BRANCH  14  18
HETATM   18  C   UNL     1     -39.908 -49.000  11.257  1.00  0.00     0.194 C 
BRANCH  18  19
HETATM   19  O   UNL     1     -40.438 -49.944  10.328  1.00  0.00    -0.398 OA
HETATM   20  H   UNL     1     -39.672 -50.391   9.924  1.00  0.00     0.209 HD
ENDBRANCH  18  19
ENDBRANCH  14  18
ENDBRANCH  10  14
ENDBRANCH   1   8
BRANCH   5  21
HETATM   21  C   UNL     1     -45.473 -53.974  13.409  1.00  0.00     0.109 C 
HETATM   22  C   UNL     1     -46.011 -52.693  12.732  1.00  0.00     0.027 C 
HETATM   23  C   UNL     1     -46.054 -51.498  13.688  1.00  0.00     0.002 C 
HETATM   24  C   UNL     1     -46.851 -51.814  14.950  1.00  0.00     0.000 C 
HETATM   25  C   UNL     1     -46.371 -53.094  15.628  1.00  0.00     0.002 C 
HETATM   26  C   UNL     1     -46.335 -54.272  14.651  1.00  0.00     0.027 C 
ENDBRANCH   5  21
TORSDOF 6
ENDMDL
MODEL 5
REMARK VINA RESULT:      -6.1      3.246      4.135
REMARK  6 active torsions:
REMARK  status: ('A' for Active; 'I' for Inactive)
REMARK    1  A    between atoms: C_2  and  C_3 
REMARK    2  A    between atoms: C_3  and  C_5 
REMARK    3  A    between atoms: C_3  and  N_7 
REMARK    4  A    between atoms: C_5  and  O_6 
REMARK       I    between atoms: N_7  and  C_8 
REMARK       I    between atoms: C_8  and  N_10 
REMARK    5  A    between atoms: N_10  and  C_11 
REMARK    6  A    between atoms: N_15  and  C_18 
ROOT
HETATM    1  C   UNL     1     -41.266 -51.169  11.923  1.00  0.00     0.702 C 
HETATM    2  N   UNL     1     -41.240 -52.401  11.339  1.00  0.00    -0.185 N 
ATOM      3  HN  UNL     1     -40.776 -52.678  10.474  1.00  0.00     0.185 HD
HETATM    4  C   UNL     1     -41.948 -53.144  12.149  1.00  0.00     0.218 C 
HETATM    5  N   UNL     1     -42.370 -52.392  13.198  1.00  0.00    -0.268 N 
HETATM    6  N   UNL     1     -41.854 -51.142  13.123  1.00  0.00    -0.128 N 
ATOM      7  HN  UNL     1     -41.900 -50.383  13.802  1.00  0.00     0.206 HD
ENDROOT
BRANCH   1   8
HETATM    8  N   UNL     1     -40.746 -50.048  11.325  1.00  0.00    -0.140 N 
HETATM    9  C   UNL     1     -41.391 -48.847  11.434  1.00  0.00     0.335 C 
HETATM   10  N   UNL     1     -40.725 -47.813  10.799  1.00  0.00    -0.332 N 
HETATM   11  O   UNL     1     -42.424 -48.645  12.063  1.00  0.00    -0.246 OA
HETATM   12  H   UNL     1     -40.214 -48.080   9.969  1.00  0.00     0.165 HD
HETATM   13  H   UNL     1     -39.749 -50.067  11.203  1.00  0.00     0.189 HD
BRANCH  10  14
HETATM   14  C   UNL     1     -41.247 -46.425  10.858  1.00  0.00     0.051 C 
HETATM   15  C   UNL     1     -41.462 -46.004  12.332  1.00  0.00     0.041 C 
BRANCH  14  16
HETATM   16  C   UNL     1     -40.228 -45.449  10.201  1.00  0.00     0.028 C 
HETATM   17  C   UNL     1     -40.088 -44.088  10.873  1.00  0.00     0.007 C 
ENDBRANCH  14  16
BRANCH  14  18
HETATM   18  C   UNL     1     -42.590 -46.304  10.065  1.00  0.00     0.194 C 
BRANCH  18  19
HETATM   19  O   UNL     1     -42.385 -45.948   8.698  1.00  0.00    -0.398 OA
HETATM   20  H   UNL     1     -43.252 -46.026   8.262  1.00  0.00     0.209 HD
ENDBRANCH  18  19
ENDBRANCH  14  18
ENDBRANCH  10  14
ENDBRANCH   1   8
BRANCH   5  21
HETATM   21  C   UNL     1     -43.231 -52.811  14.302  1.00  0.00     0.109 C 
HETATM   22  C   UNL     1     -44.217 -53.936  13.917  1.00  0.00     0.027 C 
HETATM   23  C   UNL     1     -45.332 -53.447  12.989  1.00  0.00     0.002 C 
HETATM   24  C   UNL     1     -46.080 -52.259  13.585  1.00  0.00     0.000 C 
HETATM   25  C   UNL     1     -45.135 -51.139  14.012  1.00  0.00     0.002 C 
HETATM   26  C   UNL     1     -44.029 -51.655  14.936  1.00  0.00     0.027 C 
ENDBRANCH   5  21
TORSDOF 6
ENDMDL
MODEL 6
REMARK VINA RESULT:      -6.0      2.866      3.573
REMARK  6 active torsions:
REMARK  status: ('A' for Active; 'I' for Inactive)
REMARK    1  A    between atoms: C_2  and  C_3 
REMARK    2  A    between atoms: C_3  and  C_5 
REMARK    3  A    between atoms: C_3  and  N_7 
REMARK    4  A    between atoms: C_5  and  O_6 
REMARK       I    between atoms: N_7  and  C_8 
REMARK       I    between atoms: C_8  and  N_10 
REMARK    5  A    between atoms: N_10  and  C_11 
REMARK    6  A    between atoms: N_15  and  C_18 
ROOT
HETATM    1  C   UNL     1     -41.622 -51.618  12.091  1.00  0.00     0.702 C 
HETATM    2  N   UNL     1     -40.949 -52.625  12.717  1.00  0.00    -0.185 N 
ATOM      3  HN  UNL     1     -39.951 -52.684  12.921  1.00  0.00     0.185 HD
HETATM    4  C   UNL     1     -41.883 -53.497  12.996  1.00  0.00     0.218 C 
HETATM    5  N   UNL     1     -43.082 -53.025  12.571  1.00  0.00    -0.268 N 
HETATM    6  N   UNL     1     -42.951 -51.770  12.080  1.00  0.00    -0.128 N 
ATOM      7  HN  UNL     1     -43.673 -51.114  11.781  1.00  0.00     0.206 HD
ENDROOT
BRANCH   1   8
HETATM    8  N   UNL     1     -40.992 -50.546  11.510  1.00  0.00    -0.140 N 
HETATM    9  C   UNL     1     -41.525 -49.291  11.619  1.00  0.00     0.335 C 
HETATM   10  N   UNL     1     -40.758 -48.320  11.001  1.00  0.00    -0.332 N 
HETATM   11  O   UNL     1     -42.544 -48.999  12.235  1.00  0.00    -0.246 OA
HETATM   12  H   UNL     1     -40.262 -48.628  10.176  1.00  0.00     0.165 HD
HETATM   13  H   UNL     1     -40.000 -50.657  11.401  1.00  0.00     0.189 HD
BRANCH  10  14
HETATM   14  C   UNL     1     -41.150 -46.890  11.064  1.00  0.00     0.051 C 
HETATM   15  C   UNL     1     -41.526 -46.509  12.516  1.00  0.00     0.041 C 
BRANCH  14  16
HETATM   16  C   UNL     1     -39.963 -45.995  10.602  1.00  0.00     0.028 C 
HETATM   17  C   UNL     1     -39.674 -44.778  11.472  1.00  0.00     0.007 C 
ENDBRANCH  14  16
BRANCH  14  18
HETATM   18  C   UNL     1     -42.353 -46.602  10.106  1.00  0.00     0.194 C 
BRANCH  18  19
HETATM   19  O   UNL     1     -43.599 -46.546  10.798  1.00  0.00    -0.398 OA
HETATM   20  H   UNL     1     -43.625 -45.680  11.245  1.00  0.00     0.209 HD
ENDBRANCH  18  19
ENDBRANCH  14  18
ENDBRANCH  10  14
ENDBRANCH   1   8
BRANCH   5  21
HETATM   21  C   UNL     1     -44.377 -53.701  12.634  1.00  0.00     0.109 C 
HETATM   22  C   UNL     1     -45.578 -52.735  12.534  1.00  0.00     0.027 C 
HETATM   23  C   UNL     1     -45.753 -51.885  13.796  1.00  0.00     0.002 C 
HETATM   24  C   UNL     1     -45.862 -52.751  15.047  1.00  0.00     0.000 C 
HETATM   25  C   UNL     1     -44.710 -53.745  15.162  1.00  0.00     0.002 C 
HETATM   26  C   UNL     1     -44.555 -54.579  13.888  1.00  0.00     0.027 C 
ENDBRANCH   5  21
TORSDOF 6
ENDMDL
MODEL 7
REMARK VINA RESULT:      -6.0      3.423      4.965
REMARK  6 active torsions:
REMARK  status: ('A' for Active; 'I' for Inactive)
REMARK    1  A    between atoms: C_2  and  C_3 
REMARK    2  A    between atoms: C_3  and  C_5 
REMARK    3  A    between atoms: C_3  and  N_7 
REMARK    4  A    between atoms: C_5  and  O_6 
REMARK       I    between atoms: N_7  and  C_8 
REMARK       I    between atoms: C_8  and  N_10 
REMARK    5  A    between atoms: N_10  and  C_11 
REMARK    6  A    between atoms: N_15  and  C_18 
ROOT
HETATM    1  C   UNL     1     -41.200 -51.235  11.658  1.00  0.00     0.702 C 
HETATM    2  N   UNL     1     -42.522 -51.374  11.961  1.00  0.00    -0.185 N 
ATOM      3  HN  UNL     1     -43.291 -50.748  11.725  1.00  0.00     0.185 HD
HETATM    4  C   UNL     1     -42.571 -52.499  12.626  1.00  0.00     0.218 C 
HETATM    5  N   UNL     1     -41.326 -53.032  12.704  1.00  0.00    -0.268 N 
HETATM    6  N   UNL     1     -40.445 -52.285  11.996  1.00  0.00    -0.128 N 
ATOM      7  HN  UNL     1     -39.467 -52.474  11.779  1.00  0.00     0.206 HD
ENDROOT
BRANCH   1   8
HETATM    8  N   UNL     1     -40.683 -50.109  11.067  1.00  0.00    -0.140 N 
HETATM    9  C   UNL     1     -41.146 -48.871  11.419  1.00  0.00     0.335 C 
HETATM   10  N   UNL     1     -40.506 -47.842  10.753  1.00  0.00    -0.332 N 
HETATM   11  O   UNL     1     -42.000 -48.643  12.271  1.00  0.00    -0.246 OA
HETATM   12  H   UNL     1     -40.209 -48.061   9.813  1.00  0.00     0.165 HD
HETATM   13  H   UNL     1     -39.741 -50.210  10.734  1.00  0.00     0.189 HD
BRANCH  10  14
HETATM   14  C   UNL     1     -40.837 -46.425  11.048  1.00  0.00     0.051 C 
HETATM   15  C   UNL     1     -40.805 -46.183  12.576  1.00  0.00     0.041 C 
BRANCH  14  16
HETATM   16  C   UNL     1     -39.798 -45.487  10.369  1.00  0.00     0.028 C 
HETATM   17  C   UNL     1     -39.899 -44.011  10.736  1.00  0.00     0.007 C 
ENDBRANCH  14  16
BRANCH  14  18
HETATM   18  C   UNL     1     -42.246 -46.055  10.477  1.00  0.00     0.194 C 
BRANCH  18  19
HETATM   19  O   UNL     1     -42.259 -46.006   9.051  1.00  0.00    -0.398 OA
HETATM   20  H   UNL     1     -42.170 -45.067   8.808  1.00  0.00     0.209 HD
ENDBRANCH  18  19
ENDBRANCH  14  18
ENDBRANCH  10  14
ENDBRANCH   1   8
BRANCH   5  21
HETATM   21  C   UNL     1     -40.923 -54.251  13.404  1.00  0.00     0.109 C 
HETATM   22  C   UNL     1     -41.823 -54.589  14.613  1.00  0.00     0.027 C 
HETATM   23  C   UNL     1     -41.617 -53.626  15.785  1.00  0.00     0.002 C 
HETATM   24  C   UNL     1     -40.152 -53.559  16.208  1.00  0.00     0.000 C 
HETATM   25  C   UNL     1     -39.227 -53.263  15.032  1.00  0.00     0.002 C 
HETATM   26  C   UNL     1     -39.455 -54.237  13.873  1.00  0.00     0.027 C 
ENDBRANCH   5  21
TORSDOF 6
ENDMDL
MODEL 8
REMARK VINA RESULT:      -5.7      4.007      7.435
REMARK  6 active torsions:
REMARK  status: ('A' for Active; 'I' for Inactive)
REMARK    1  A    between atoms: C_2  and  C_3 
REMARK    2  A    between atoms: C_3  and  C_5 
REMARK    3  A    between atoms: C_3  and  N_7 
REMARK    4  A    between atoms: C_5  and  O_6 
REMARK       I    between atoms: N_7  and  C_8 
REMARK       I    between atoms: C_8  and  N_10 
REMARK    5  A    between atoms: N_10  and  C_11 
REMARK    6  A    between atoms: N_15  and  C_18 
ROOT
HETATM    1  C   UNL     1     -41.477 -47.734  10.501  1.00  0.00     0.702 C 
HETATM    2  N   UNL     1     -42.451 -47.164   9.736  1.00  0.00    -0.185 N 
ATOM      3  HN  UNL     1     -43.204 -47.628   9.227  1.00  0.00     0.185 HD
HETATM    4  C   UNL     1     -42.195 -45.884   9.808  1.00  0.00     0.218 C 
HETATM    5  N   UNL     1     -41.116 -45.685  10.606  1.00  0.00    -0.268 N 
HETATM    6  N   UNL     1     -40.703 -46.856  11.146  1.00  0.00    -0.128 N 
ATOM      7  HN  UNL     1     -39.990 -47.023  11.857  1.00  0.00     0.206 HD
ENDROOT
BRANCH   1   8
HETATM    8  N   UNL     1     -41.296 -49.091  10.593  1.00  0.00    -0.140 N 
HETATM    9  C   UNL     1     -41.531 -49.740  11.774  1.00  0.00     0.335 C 
HETATM   10  N   UNL     1     -41.328 -51.106  11.694  1.00  0.00    -0.332 N 
HETATM   11  O   UNL     1     -41.934 -49.217  12.808  1.00  0.00    -0.246 OA
HETATM   12  H   UNL     1     -40.600 -51.393  11.054  1.00  0.00     0.165 HD
HETATM   13  H   UNL     1     -41.407 -49.584   9.726  1.00  0.00     0.189 HD
BRANCH  10  14
HETATM   14  C   UNL     1     -41.589 -51.982  12.863  1.00  0.00     0.051 C 
HETATM   15  C   UNL     1     -40.859 -51.429  14.110  1.00  0.00     0.041 C 
BRANCH  14  16
HETATM   16  C   UNL     1     -43.117 -52.030  13.156  1.00  0.00     0.028 C 
HETATM   17  C   UNL     1     -43.894 -53.128  12.440  1.00  0.00     0.007 C 
ENDBRANCH  14  16
BRANCH  14  18
HETATM   18  C   UNL     1     -41.122 -53.446  12.573  1.00  0.00     0.194 C 
BRANCH  18  19
HETATM   19  O   UNL     1     -40.523 -53.582  11.286  1.00  0.00    -0.398 OA
HETATM   20  H   UNL     1     -39.662 -53.130  11.335  1.00  0.00     0.209 HD
ENDBRANCH  18  19
ENDBRANCH  14  18
ENDBRANCH  10  14
ENDBRANCH   1   8
BRANCH   5  21
HETATM   21  C   UNL     1     -40.459 -44.415  10.913  1.00  0.00     0.109 C 
HETATM   22  C   UNL     1     -39.429 -44.519  12.060  1.00  0.00     0.027 C 
HETATM   23  C   UNL     1     -40.091 -44.719  13.425  1.00  0.00     0.002 C 
HETATM   24  C   UNL     1     -41.115 -43.628  13.721  1.00  0.00     0.000 C 
HETATM   25  C   UNL     1     -42.129 -43.469  12.592  1.00  0.00     0.002 C 
HETATM   26  C   UNL     1     -41.443 -43.274  11.238  1.00  0.00     0.027 C 
ENDBRANCH   5  21
TORSDOF 6
ENDMDL
MODEL 9
REMARK VINA RESULT:      -5.7      2.168      7.544
REMARK  6 active torsions:
REMARK  status: ('A' for Active; 'I' for Inactive)
REMARK    1  A    between atoms: C_2  and  C_3 
REMARK    2  A    between atoms: C_3  and  C_5 
REMARK    3  A    between atoms: C_3  and  N_7 
REMARK    4  A    between atoms: C_5  and  O_6 
REMARK       I    between atoms: N_7  and  C_8 
REMARK       I    between atoms: C_8  and  N_10 
REMARK    5  A    between atoms: N_10  and  C_11 
REMARK    6  A    between atoms: N_15  and  C_18 
ROOT
HETATM    1  C   UNL     1     -41.414 -51.560  11.850  1.00  0.00     0.702 C 
HETATM    2  N   UNL     1     -41.706 -50.326  11.350  1.00  0.00    -0.185 N 
ATOM      3  HN  UNL     1     -42.618 -49.955  11.081  1.00  0.00     0.185 HD
HETATM    4  C   UNL     1     -40.544 -49.729  11.295  1.00  0.00     0.218 C 
HETATM    5  N   UNL     1     -39.585 -50.566  11.766  1.00  0.00    -0.268 N 
HETATM    6  N   UNL     1     -40.140 -51.712  12.226  1.00  0.00    -0.128 N 
ATOM      7  HN  UNL     1     -39.702 -52.486  12.727  1.00  0.00     0.206 HD
ENDROOT
BRANCH   1   8
HETATM    8  N   UNL     1     -42.342 -52.566  11.949  1.00  0.00    -0.140 N 
HETATM    9  C   UNL     1     -43.210 -52.601  13.005  1.00  0.00     0.335 C 
HETATM   10  N   UNL     1     -44.097 -53.661  12.944  1.00  0.00    -0.332 N 
HETATM   11  O   UNL     1     -43.271 -51.773  13.909  1.00  0.00    -0.246 OA
HETATM   12  H   UNL     1     -43.732 -54.500  12.516  1.00  0.00     0.165 HD
HETATM   13  H   UNL     1     -42.613 -52.968  11.070  1.00  0.00     0.189 HD
BRANCH  10  14
HETATM   14  C   UNL     1     -45.151 -53.829  13.976  1.00  0.00     0.051 C 
HETATM   15  C   UNL     1     -44.529 -53.720  15.389  1.00  0.00     0.041 C 
BRANCH  14  16
HETATM   16  C   UNL     1     -46.229 -52.717  13.816  1.00  0.00     0.028 C 
HETATM   17  C   UNL     1     -46.565 -52.323  12.383  1.00  0.00     0.007 C 
ENDBRANCH  14  16
BRANCH  14  18
HETATM   18  C   UNL     1     -45.872 -55.207  13.813  1.00  0.00     0.194 C 
BRANCH  18  19
HETATM   19  O   UNL     1     -47.160 -55.225  14.427  1.00  0.00    -0.398 OA
HETATM   20  H   UNL     1     -47.756 -55.674  13.800  1.00  0.00     0.209 HD
ENDBRANCH  18  19
ENDBRANCH  14  18
ENDBRANCH  10  14
ENDBRANCH   1   8
BRANCH   5  21
HETATM   21  C   UNL     1     -38.145 -50.321  11.830  1.00  0.00     0.109 C 
HETATM   22  C   UNL     1     -37.429 -51.158  12.914  1.00  0.00     0.027 C 
HETATM   23  C   UNL     1     -37.760 -50.686  14.332  1.00  0.00     0.002 C 
HETATM   24  C   UNL     1     -37.462 -49.202  14.516  1.00  0.00     0.000 C 
HETATM   25  C   UNL     1     -38.123 -48.344  13.441  1.00  0.00     0.002 C 
HETATM   26  C   UNL     1     -37.779 -48.838  12.033  1.00  0.00     0.027 C 
ENDBRANCH   5  21
TORSDOF 6
ENDMDL
