MODEL 1
REMARK VINA RESULT:      -6.7      0.000      0.000
REMARK  5 active torsions:
REMARK  status: ('A' for Active; 'I' for Inactive)
REMARK    1  A    between atoms: C_8  and  C_9 
REMARK    2  A    between atoms: C_9  and  C_10 
REMARK    3  A    between atoms: C_10  and  N_11 
REMARK       I    between atoms: N_11  and  C_12 
REMARK       I    between atoms: C_12  and  N_14 
REMARK    4  A    between atoms: C_17  and  O_18 
REMARK    5  A    between atoms: C_17  and  C_21 
ROOT
HETATM    1  N   UNL     1     -40.410 -52.358  14.856  1.00  0.00    -0.343 N 
HETATM    2  C   UNL     1     -41.030 -52.770  13.701  1.00  0.00     0.318 C 
HETATM    3  O   UNL     1     -40.384 -53.128  12.719  1.00  0.00    -0.247 OA
HETATM    4  N   UNL     1     -42.418 -52.715  13.700  1.00  0.00    -0.334 N 
HETATM    5  C   UNL     1     -43.253 -52.211  14.793  1.00  0.00     0.131 C 
HETATM    6  C   UNL     1     -44.578 -52.967  14.864  1.00  0.00     0.067 C 
HETATM    7  C   UNL     1     -45.333 -52.982  13.525  1.00  0.00     0.158 C 
HETATM    8  C   UNL     1     -44.393 -53.502  12.425  1.00  0.00     0.067 C 
HETATM    9  C   UNL     1     -43.065 -52.756  12.387  1.00  0.00     0.131 C 
HETATM   10  H   UNL     1     -40.903 -52.579  15.702  1.00  0.00     0.164 HD
ENDROOT
BRANCH   1  11
HETATM   11  C   UNL     1     -38.960 -52.426  14.987  1.00  0.00     0.129 C 
BRANCH  11  12
HETATM   12  C   UNL     1     -38.254 -51.062  14.991  1.00  0.00     0.059 C 
BRANCH  12  13
HETATM   13  C   UNL     1     -38.259 -50.427  13.618  1.00  0.00    -0.048 A 
HETATM   14  C   UNL     1     -39.092 -49.353  13.266  1.00  0.00    -0.040 A 
HETATM   15  C   UNL     1     -40.078 -48.741  14.214  1.00  0.00     0.050 C 
HETATM   16  C   UNL     1     -38.984 -48.851  11.968  1.00  0.00     0.094 A 
HETATM   17  N   UNL     1     -38.135 -49.322  11.027  1.00  0.00    -0.375 N 
HETATM   18  C   UNL     1     -37.353 -50.356  11.391  1.00  0.00     0.088 A 
ATOM     19  HN  UNL     1     -38.090 -48.917  10.093  1.00  0.00     0.164 HD
HETATM   20  C   UNL     1     -37.375 -50.929  12.651  1.00  0.00     0.024 A 
ENDBRANCH  12  13
ENDBRANCH  11  12
ENDBRANCH   1  11
BRANCH   7  21
HETATM   21  O   UNL     1     -46.406 -53.949  13.662  1.00  0.00    -0.381 OA
HETATM   22  H   UNL     1     -47.258 -53.484  13.604  1.00  0.00     0.211 HD
ENDBRANCH   7  21
BRANCH   7  23
HETATM   23  C   UNL     1     -45.911 -51.571  13.178  1.00  0.00     0.418 C 
HETATM   24  F   UNL     1     -46.708 -51.092  14.161  1.00  0.00    -0.168 F 
HETATM   25  F   UNL     1     -44.938 -50.652  12.976  1.00  0.00    -0.168 F 
HETATM   26  F   UNL     1     -46.660 -51.594  12.049  1.00  0.00    -0.168 F 
ENDBRANCH   7  23
TORSDOF 5
ENDMDL
MODEL 2
REMARK VINA RESULT:      -6.3      2.894      3.655
REMARK  5 active torsions:
REMARK  status: ('A' for Active; 'I' for Inactive)
REMARK    1  A    between atoms: C_8  and  C_9 
REMARK    2  A    between atoms: C_9  and  C_10 
REMARK    3  A    between atoms: C_10  and  N_11 
REMARK       I    between atoms: N_11  and  C_12 
REMARK       I    between atoms: C_12  and  N_14 
REMARK    4  A    between atoms: C_17  and  O_18 
REMARK    5  A    between atoms: C_17  and  C_21 
ROOT
HETATM    1  N   UNL     1     -41.574 -50.963  12.300  1.00  0.00    -0.343 N 
HETATM    2  C   UNL     1     -41.455 -52.293  12.622  1.00  0.00     0.318 C 
HETATM    3  O   UNL     1     -40.483 -52.955  12.266  1.00  0.00    -0.247 OA
HETATM    4  N   UNL     1     -42.513 -52.848  13.332  1.00  0.00    -0.334 N 
HETATM    5  C   UNL     1     -43.746 -52.152  13.708  1.00  0.00     0.131 C 
HETATM    6  C   UNL     1     -44.281 -52.665  15.042  1.00  0.00     0.067 C 
HETATM    7  C   UNL     1     -44.453 -54.193  15.072  1.00  0.00     0.158 C 
HETATM    8  C   UNL     1     -43.130 -54.855  14.649  1.00  0.00     0.067 C 
HETATM    9  C   UNL     1     -42.596 -54.309  13.330  1.00  0.00     0.131 C 
HETATM   10  H   UNL     1     -42.041 -50.402  12.989  1.00  0.00     0.164 HD
ENDROOT
BRANCH   1  11
HETATM   11  C   UNL     1     -40.500 -50.266  11.605  1.00  0.00     0.129 C 
BRANCH  11  12
HETATM   12  C   UNL     1     -40.266 -48.822  12.072  1.00  0.00     0.059 C 
BRANCH  12  13
HETATM   13  C   UNL     1     -41.006 -47.828  11.206  1.00  0.00    -0.048 A 
HETATM   14  C   UNL     1     -40.768 -46.445  11.239  1.00  0.00    -0.040 A 
HETATM   15  C   UNL     1     -39.766 -45.811  12.157  1.00  0.00     0.050 C 
HETATM   16  C   UNL     1     -41.511 -45.641  10.372  1.00  0.00     0.094 A 
HETATM   17  N   UNL     1     -42.441 -46.098   9.504  1.00  0.00    -0.375 N 
HETATM   18  C   UNL     1     -42.653 -47.427   9.498  1.00  0.00     0.088 A 
ATOM     19  HN  UNL     1     -42.955 -45.469   8.887  1.00  0.00     0.164 HD
HETATM   20  C   UNL     1     -41.971 -48.317  10.311  1.00  0.00     0.024 A 
ENDBRANCH  12  13
ENDBRANCH  11  12
ENDBRANCH   1  11
BRANCH   7  21
HETATM   21  O   UNL     1     -44.690 -54.560  16.455  1.00  0.00    -0.381 OA
HETATM   22  H   UNL     1     -45.494 -55.106  16.502  1.00  0.00     0.211 HD
ENDBRANCH   7  21
BRANCH   7  23
HETATM   23  C   UNL     1     -45.647 -54.653  14.172  1.00  0.00     0.418 C 
HETATM   24  F   UNL     1     -46.824 -54.630  14.840  1.00  0.00    -0.168 F 
HETATM   25  F   UNL     1     -45.799 -53.869  13.079  1.00  0.00    -0.168 F 
HETATM   26  F   UNL     1     -45.482 -55.918  13.720  1.00  0.00    -0.168 F 
ENDBRANCH   7  23
TORSDOF 5
ENDMDL
MODEL 3
REMARK VINA RESULT:      -6.2      3.829      7.069
REMARK  5 active torsions:
REMARK  status: ('A' for Active; 'I' for Inactive)
REMARK    1  A    between atoms: C_8  and  C_9 
REMARK    2  A    between atoms: C_9  and  C_10 
REMARK    3  A    between atoms: C_10  and  N_11 
REMARK       I    between atoms: N_11  and  C_12 
REMARK       I    between atoms: C_12  and  N_14 
REMARK    4  A    between atoms: C_17  and  O_18 
REMARK    5  A    between atoms: C_17  and  C_21 
ROOT
HETATM    1  N   UNL     1     -41.785 -51.073  11.781  1.00  0.00    -0.343 N 
HETATM    2  C   UNL     1     -40.740 -50.188  11.892  1.00  0.00     0.318 C 
HETATM    3  O   UNL     1     -39.633 -50.549  12.286  1.00  0.00    -0.247 OA
HETATM    4  N   UNL     1     -41.023 -48.865  11.575  1.00  0.00    -0.334 N 
HETATM    5  C   UNL     1     -42.336 -48.341  11.192  1.00  0.00     0.131 C 
HETATM    6  C   UNL     1     -42.198 -47.192  10.196  1.00  0.00     0.067 C 
HETATM    7  C   UNL     1     -41.259 -46.079  10.690  1.00  0.00     0.158 C 
HETATM    8  C   UNL     1     -39.911 -46.703  11.091  1.00  0.00     0.067 C 
HETATM    9  C   UNL     1     -40.069 -47.866  12.062  1.00  0.00     0.131 C 
HETATM   10  H   UNL     1     -42.423 -50.881  11.030  1.00  0.00     0.164 HD
ENDROOT
BRANCH   1  11
HETATM   11  C   UNL     1     -41.588 -52.493  12.036  1.00  0.00     0.129 C 
BRANCH  11  12
HETATM   12  C   UNL     1     -41.959 -52.947  13.456  1.00  0.00     0.059 C 
BRANCH  12  13
HETATM   13  C   UNL     1     -43.391 -53.427  13.533  1.00  0.00    -0.048 A 
HETATM   14  C   UNL     1     -43.806 -54.497  14.342  1.00  0.00    -0.040 A 
HETATM   15  C   UNL     1     -42.862 -55.287  15.197  1.00  0.00     0.050 C 
HETATM   16  C   UNL     1     -45.163 -54.826  14.330  1.00  0.00     0.094 A 
HETATM   17  N   UNL     1     -46.104 -54.189  13.599  1.00  0.00    -0.375 N 
HETATM   18  C   UNL     1     -45.677 -53.172  12.828  1.00  0.00     0.088 A 
ATOM     19  HN  UNL     1     -47.086 -54.465  13.629  1.00  0.00     0.164 HD
HETATM   20  C   UNL     1     -44.357 -52.758  12.766  1.00  0.00     0.024 A 
ENDBRANCH  12  13
ENDBRANCH  11  12
ENDBRANCH   1  11
BRANCH   7  21
HETATM   21  O   UNL     1     -41.006 -45.212   9.555  1.00  0.00    -0.381 OA
HETATM   22  H   UNL     1     -40.067 -44.956   9.558  1.00  0.00     0.211 HD
ENDBRANCH   7  21
BRANCH   7  23
HETATM   23  C   UNL     1     -41.898 -45.269  11.865  1.00  0.00     0.418 C 
HETATM   24  F   UNL     1     -42.378 -44.072  11.454  1.00  0.00    -0.168 F 
HETATM   25  F   UNL     1     -42.928 -45.929  12.444  1.00  0.00    -0.168 F 
HETATM   26  F   UNL     1     -41.003 -45.011  12.847  1.00  0.00    -0.168 F 
ENDBRANCH   7  23
TORSDOF 5
ENDMDL
MODEL 4
REMARK VINA RESULT:      -6.1      3.791      7.185
REMARK  5 active torsions:
REMARK  status: ('A' for Active; 'I' for Inactive)
REMARK    1  A    between atoms: C_8  and  C_9 
REMARK    2  A    between atoms: C_9  and  C_10 
REMARK    3  A    between atoms: C_10  and  N_11 
REMARK       I    between atoms: N_11  and  C_12 
REMARK       I    between atoms: C_12  and  N_14 
REMARK    4  A    between atoms: C_17  and  O_18 
REMARK    5  A    between atoms: C_17  and  C_21 
ROOT
HETATM    1  N   UNL     1     -42.707 -51.132  12.163  1.00  0.00    -0.343 N 
HETATM    2  C   UNL     1     -41.558 -50.379  12.201  1.00  0.00     0.318 C 
HETATM    3  O   UNL     1     -40.494 -50.851  12.594  1.00  0.00    -0.247 OA
HETATM    4  N   UNL     1     -41.685 -49.051  11.811  1.00  0.00    -0.334 N 
HETATM    5  C   UNL     1     -42.934 -48.391  11.424  1.00  0.00     0.131 C 
HETATM    6  C   UNL     1     -42.684 -47.325  10.359  1.00  0.00     0.067 C 
HETATM    7  C   UNL     1     -41.602 -46.312  10.767  1.00  0.00     0.158 C 
HETATM    8  C   UNL     1     -40.330 -47.074  11.178  1.00  0.00     0.067 C 
HETATM    9  C   UNL     1     -40.603 -48.153  12.219  1.00  0.00     0.131 C 
HETATM   10  H   UNL     1     -43.336 -50.906  11.415  1.00  0.00     0.164 HD
ENDROOT
BRANCH   1  11
HETATM   11  C   UNL     1     -42.679 -52.549  12.498  1.00  0.00     0.129 C 
BRANCH  11  12
HETATM   12  C   UNL     1     -44.019 -53.277  12.318  1.00  0.00     0.059 C 
BRANCH  12  13
HETATM   13  C   UNL     1     -44.866 -53.204  13.570  1.00  0.00    -0.048 A 
HETATM   14  C   UNL     1     -46.042 -52.443  13.665  1.00  0.00    -0.040 A 
HETATM   15  C   UNL     1     -46.566 -51.606  12.538  1.00  0.00     0.050 C 
HETATM   16  C   UNL     1     -46.737 -52.479  14.876  1.00  0.00     0.094 A 
HETATM   17  N   UNL     1     -46.361 -53.193  15.960  1.00  0.00    -0.375 N 
HETATM   18  C   UNL     1     -45.226 -53.908  15.842  1.00  0.00     0.088 A 
ATOM     19  HN  UNL     1     -46.907 -53.190  16.821  1.00  0.00     0.164 HD
HETATM   20  C   UNL     1     -44.461 -53.949  14.689  1.00  0.00     0.024 A 
ENDBRANCH  12  13
ENDBRANCH  11  12
ENDBRANCH   1  11
BRANCH   7  21
HETATM   21  O   UNL     1     -41.275 -45.549   9.578  1.00  0.00    -0.381 OA
HETATM   22  H   UNL     1     -41.267 -46.148   8.811  1.00  0.00     0.211 HD
ENDBRANCH   7  21
BRANCH   7  23
HETATM   23  C   UNL     1     -42.105 -45.364  11.904  1.00  0.00     0.418 C 
HETATM   24  F   UNL     1     -41.092 -44.934  12.694  1.00  0.00    -0.168 F 
HETATM   25  F   UNL     1     -42.722 -44.261  11.419  1.00  0.00    -0.168 F 
HETATM   26  F   UNL     1     -42.996 -45.978  12.718  1.00  0.00    -0.168 F 
ENDBRANCH   7  23
TORSDOF 5
ENDMDL
MODEL 5
REMARK VINA RESULT:      -6.1      2.088      3.156
REMARK  5 active torsions:
REMARK  status: ('A' for Active; 'I' for Inactive)
REMARK    1  A    between atoms: C_8  and  C_9 
REMARK    2  A    between atoms: C_9  and  C_10 
REMARK    3  A    between atoms: C_10  and  N_11 
REMARK       I    between atoms: N_11  and  C_12 
REMARK       I    between atoms: C_12  and  N_14 
REMARK    4  A    between atoms: C_17  and  O_18 
REMARK    5  A    between atoms: C_17  and  C_21 
ROOT
HETATM    1  N   UNL     1     -41.866 -50.684  11.941  1.00  0.00    -0.343 N 
HETATM    2  C   UNL     1     -41.637 -51.987  12.310  1.00  0.00     0.318 C 
HETATM    3  O   UNL     1     -40.629 -52.589  11.948  1.00  0.00    -0.247 OA
HETATM    4  N   UNL     1     -42.629 -52.589  13.076  1.00  0.00    -0.334 N 
HETATM    5  C   UNL     1     -43.899 -51.971  13.465  1.00  0.00     0.131 C 
HETATM    6  C   UNL     1     -44.352 -52.468  14.836  1.00  0.00     0.067 C 
HETATM    7  C   UNL     1     -44.407 -54.002  14.930  1.00  0.00     0.158 C 
HETATM    8  C   UNL     1     -43.052 -54.580  14.490  1.00  0.00     0.067 C 
HETATM    9  C   UNL     1     -42.601 -54.051  13.134  1.00  0.00     0.131 C 
HETATM   10  H   UNL     1     -42.353 -50.131  12.622  1.00  0.00     0.164 HD
ENDROOT
BRANCH   1  11
HETATM   11  C   UNL     1     -40.869 -49.938  11.184  1.00  0.00     0.129 C 
BRANCH  11  12
HETATM   12  C   UNL     1     -40.137 -48.852  11.986  1.00  0.00     0.059 C 
BRANCH  12  13
HETATM   13  C   UNL     1     -39.263 -49.450  13.066  1.00  0.00    -0.048 A 
HETATM   14  C   UNL     1     -38.006 -50.023  12.814  1.00  0.00    -0.040 A 
HETATM   15  C   UNL     1     -37.413 -50.119  11.441  1.00  0.00     0.050 C 
HETATM   16  C   UNL     1     -37.294 -50.523  13.907  1.00  0.00     0.094 A 
HETATM   17  N   UNL     1     -37.728 -50.495  15.187  1.00  0.00    -0.375 N 
HETATM   18  C   UNL     1     -38.938 -49.946  15.398  1.00  0.00     0.088 A 
ATOM     19  HN  UNL     1     -37.167 -50.870  15.952  1.00  0.00     0.164 HD
HETATM   20  C   UNL     1     -39.726 -49.416  14.390  1.00  0.00     0.024 A 
ENDBRANCH  12  13
ENDBRANCH  11  12
ENDBRANCH   1  11
BRANCH   7  21
HETATM   21  O   UNL     1     -44.574 -54.328  16.334  1.00  0.00    -0.381 OA
HETATM   22  H   UNL     1     -45.178 -55.087  16.411  1.00  0.00     0.211 HD
ENDBRANCH   7  21
BRANCH   7  23
HETATM   23  C   UNL     1     -45.590 -54.585  14.090  1.00  0.00     0.418 C 
HETATM   24  F   UNL     1     -45.826 -53.858  12.972  1.00  0.00    -0.168 F 
HETATM   25  F   UNL     1     -45.359 -55.858  13.691  1.00  0.00    -0.168 F 
HETATM   26  F   UNL     1     -46.748 -54.604  14.791  1.00  0.00    -0.168 F 
ENDBRANCH   7  23
TORSDOF 5
ENDMDL
MODEL 6
REMARK VINA RESULT:      -5.9      2.350      3.034
REMARK  5 active torsions:
REMARK  status: ('A' for Active; 'I' for Inactive)
REMARK    1  A    between atoms: C_8  and  C_9 
REMARK    2  A    between atoms: C_9  and  C_10 
REMARK    3  A    between atoms: C_10  and  N_11 
REMARK       I    between atoms: N_11  and  C_12 
REMARK       I    between atoms: C_12  and  N_14 
REMARK    4  A    between atoms: C_17  and  O_18 
REMARK    5  A    between atoms: C_17  and  C_21 
ROOT
HETATM    1  N   UNL     1     -41.509 -51.003  12.260  1.00  0.00    -0.343 N 
HETATM    2  C   UNL     1     -41.411 -52.328  12.612  1.00  0.00     0.318 C 
HETATM    3  O   UNL     1     -40.441 -53.008  12.288  1.00  0.00    -0.247 OA
HETATM    4  N   UNL     1     -42.489 -52.854  13.315  1.00  0.00    -0.334 N 
HETATM    5  C   UNL     1     -43.719 -52.135  13.654  1.00  0.00     0.131 C 
HETATM    6  C   UNL     1     -44.284 -52.614  14.989  1.00  0.00     0.067 C 
HETATM    7  C   UNL     1     -44.475 -54.138  15.048  1.00  0.00     0.158 C 
HETATM    8  C   UNL     1     -43.153 -54.825  14.663  1.00  0.00     0.067 C 
HETATM    9  C   UNL     1     -42.590 -54.314  13.343  1.00  0.00     0.131 C 
HETATM   10  H   UNL     1     -41.980 -50.422  12.928  1.00  0.00     0.164 HD
ENDROOT
BRANCH   1  11
HETATM   11  C   UNL     1     -40.414 -50.334  11.570  1.00  0.00     0.129 C 
BRANCH  11  12
HETATM   12  C   UNL     1     -40.498 -48.801  11.570  1.00  0.00     0.059 C 
BRANCH  12  13
HETATM   13  C   UNL     1     -39.550 -48.191  12.579  1.00  0.00    -0.048 A 
HETATM   14  C   UNL     1     -39.670 -46.875  13.055  1.00  0.00    -0.040 A 
HETATM   15  C   UNL     1     -40.741 -45.934  12.593  1.00  0.00     0.050 C 
HETATM   16  C   UNL     1     -38.735 -46.444  13.999  1.00  0.00     0.094 A 
HETATM   17  N   UNL     1     -37.727 -47.199  14.487  1.00  0.00    -0.375 N 
HETATM   18  C   UNL     1     -37.633 -48.454  14.008  1.00  0.00     0.088 A 
ATOM     19  HN  UNL     1     -37.072 -46.839  15.181  1.00  0.00     0.164 HD
HETATM   20  C   UNL     1     -38.506 -48.987  13.075  1.00  0.00     0.024 A 
ENDBRANCH  12  13
ENDBRANCH  11  12
ENDBRANCH   1  11
BRANCH   7  21
HETATM   21  O   UNL     1     -44.741 -54.473  16.434  1.00  0.00    -0.381 OA
HETATM   22  H   UNL     1     -44.003 -54.153  16.982  1.00  0.00     0.211 HD
ENDBRANCH   7  21
BRANCH   7  23
HETATM   23  C   UNL     1     -45.658 -54.603  14.137  1.00  0.00     0.418 C 
HETATM   24  F   UNL     1     -45.480 -55.862  13.675  1.00  0.00    -0.168 F 
HETATM   25  F   UNL     1     -46.845 -54.586  14.787  1.00  0.00    -0.168 F 
HETATM   26  F   UNL     1     -45.802 -53.808  13.050  1.00  0.00    -0.168 F 
ENDBRANCH   7  23
TORSDOF 5
ENDMDL
MODEL 7
REMARK VINA RESULT:      -5.9      2.652      3.484
REMARK  5 active torsions:
REMARK  status: ('A' for Active; 'I' for Inactive)
REMARK    1  A    between atoms: C_8  and  C_9 
REMARK    2  A    between atoms: C_9  and  C_10 
REMARK    3  A    between atoms: C_10  and  N_11 
REMARK       I    between atoms: N_11  and  C_12 
REMARK       I    between atoms: C_12  and  N_14 
REMARK    4  A    between atoms: C_17  and  O_18 
REMARK    5  A    between atoms: C_17  and  C_21 
ROOT
HETATM    1  N   UNL     1     -40.700 -50.544  13.246  1.00  0.00    -0.343 N 
HETATM    2  C   UNL     1     -40.625 -51.909  13.386  1.00  0.00     0.318 C 
HETATM    3  O   UNL     1     -39.575 -52.517  13.193  1.00  0.00    -0.247 OA
HETATM    4  N   UNL     1     -41.811 -52.555  13.714  1.00  0.00    -0.334 N 
HETATM    5  C   UNL     1     -43.119 -51.914  13.866  1.00  0.00     0.131 C 
HETATM    6  C   UNL     1     -43.955 -52.620  14.930  1.00  0.00     0.067 C 
HETATM    7  C   UNL     1     -44.083 -54.133  14.686  1.00  0.00     0.158 C 
HETATM    8  C   UNL     1     -42.677 -54.734  14.518  1.00  0.00     0.067 C 
HETATM    9  C   UNL     1     -41.846 -53.999  13.473  1.00  0.00     0.131 C 
HETATM   10  H   UNL     1     -41.341 -50.090  13.871  1.00  0.00     0.164 HD
ENDROOT
BRANCH   1  11
HETATM   11  C   UNL     1     -39.507 -49.759  12.958  1.00  0.00     0.129 C 
BRANCH  11  12
HETATM   12  C   UNL     1     -39.565 -48.965  11.645  1.00  0.00     0.059 C 
BRANCH  12  13
HETATM   13  C   UNL     1     -40.180 -47.598  11.846  1.00  0.00    -0.048 A 
HETATM   14  C   UNL     1     -41.336 -47.163  11.178  1.00  0.00    -0.040 A 
HETATM   15  C   UNL     1     -42.067 -48.008  10.178  1.00  0.00     0.050 C 
HETATM   16  C   UNL     1     -41.807 -45.881  11.470  1.00  0.00     0.094 A 
HETATM   17  N   UNL     1     -41.232 -45.031  12.349  1.00  0.00    -0.375 N 
HETATM   18  C   UNL     1     -40.122 -45.471  12.970  1.00  0.00     0.088 A 
ATOM     19  HN  UNL     1     -41.619 -44.105  12.532  1.00  0.00     0.164 HD
HETATM   20  C   UNL     1     -39.571 -46.724  12.760  1.00  0.00     0.024 A 
ENDBRANCH  12  13
ENDBRANCH  11  12
ENDBRANCH   1  11
BRANCH   7  21
HETATM   21  O   UNL     1     -44.649 -54.704  15.894  1.00  0.00    -0.381 OA
HETATM   22  H   UNL     1     -44.884 -53.982  16.503  1.00  0.00     0.211 HD
ENDBRANCH   7  21
BRANCH   7  23
HETATM   23  C   UNL     1     -44.999 -54.440  13.456  1.00  0.00     0.418 C 
HETATM   24  F   UNL     1     -44.301 -54.463  12.296  1.00  0.00    -0.168 F 
HETATM   25  F   UNL     1     -45.623 -55.636  13.564  1.00  0.00    -0.168 F 
HETATM   26  F   UNL     1     -45.971 -53.510  13.304  1.00  0.00    -0.168 F 
ENDBRANCH   7  23
TORSDOF 5
ENDMDL
MODEL 8
REMARK VINA RESULT:      -5.8      2.608      3.526
REMARK  5 active torsions:
REMARK  status: ('A' for Active; 'I' for Inactive)
REMARK    1  A    between atoms: C_8  and  C_9 
REMARK    2  A    between atoms: C_9  and  C_10 
REMARK    3  A    between atoms: C_10  and  N_11 
REMARK       I    between atoms: N_11  and  C_12 
REMARK       I    between atoms: C_12  and  N_14 
REMARK    4  A    between atoms: C_17  and  O_18 
REMARK    5  A    between atoms: C_17  and  C_21 
ROOT
HETATM    1  N   UNL     1     -42.079 -50.348  11.872  1.00  0.00    -0.343 N 
HETATM    2  C   UNL     1     -43.003 -50.044  12.843  1.00  0.00     0.318 C 
HETATM    3  O   UNL     1     -43.082 -48.915  13.321  1.00  0.00    -0.247 OA
HETATM    4  N   UNL     1     -43.804 -51.094  13.274  1.00  0.00    -0.334 N 
HETATM    5  C   UNL     1     -43.705 -52.484  12.824  1.00  0.00     0.131 C 
HETATM    6  C   UNL     1     -45.076 -53.156  12.811  1.00  0.00     0.067 C 
HETATM    7  C   UNL     1     -45.814 -53.040  14.155  1.00  0.00     0.158 C 
HETATM    8  C   UNL     1     -45.863 -51.561  14.573  1.00  0.00     0.067 C 
HETATM    9  C   UNL     1     -44.490 -50.899  14.553  1.00  0.00     0.131 C 
HETATM   10  H   UNL     1     -42.379 -51.034  11.204  1.00  0.00     0.164 HD
ENDROOT
BRANCH   1  11
HETATM   11  C   UNL     1     -41.224 -49.313  11.307  1.00  0.00     0.129 C 
BRANCH  11  12
HETATM   12  C   UNL     1     -39.719 -49.604  11.396  1.00  0.00     0.059 C 
BRANCH  12  13
HETATM   13  C   UNL     1     -39.066 -48.830  12.519  1.00  0.00    -0.048 A 
HETATM   14  C   UNL     1     -38.007 -49.332  13.292  1.00  0.00    -0.040 A 
HETATM   15  C   UNL     1     -37.430 -50.701  13.094  1.00  0.00     0.050 C 
HETATM   16  C   UNL     1     -37.485 -48.503  14.287  1.00  0.00     0.094 A 
HETATM   17  N   UNL     1     -37.924 -47.254  14.560  1.00  0.00    -0.375 N 
HETATM   18  C   UNL     1     -38.944 -46.801  13.808  1.00  0.00     0.088 A 
ATOM     19  HN  UNL     1     -37.505 -46.686  15.296  1.00  0.00     0.164 HD
HETATM   20  C   UNL     1     -39.534 -47.535  12.792  1.00  0.00     0.024 A 
ENDBRANCH  12  13
ENDBRANCH  11  12
ENDBRANCH   1  11
BRANCH   7  21
HETATM   21  O   UNL     1     -47.181 -53.461  13.918  1.00  0.00    -0.381 OA
HETATM   22  H   UNL     1     -47.498 -53.052  13.094  1.00  0.00     0.211 HD
ENDBRANCH   7  21
BRANCH   7  23
HETATM   23  C   UNL     1     -45.149 -53.934  15.252  1.00  0.00     0.418 C 
HETATM   24  F   UNL     1     -46.055 -54.410  16.137  1.00  0.00    -0.168 F 
HETATM   25  F   UNL     1     -44.510 -55.005  14.726  1.00  0.00    -0.168 F 
HETATM   26  F   UNL     1     -44.228 -53.250  15.972  1.00  0.00    -0.168 F 
ENDBRANCH   7  23
TORSDOF 5
ENDMDL
MODEL 9
REMARK VINA RESULT:      -5.7      3.248      4.214
REMARK  5 active torsions:
REMARK  status: ('A' for Active; 'I' for Inactive)
REMARK    1  A    between atoms: C_8  and  C_9 
REMARK    2  A    between atoms: C_9  and  C_10 
REMARK    3  A    between atoms: C_10  and  N_11 
REMARK       I    between atoms: N_11  and  C_12 
REMARK       I    between atoms: C_12  and  N_14 
REMARK    4  A    between atoms: C_17  and  O_18 
REMARK    5  A    between atoms: C_17  and  C_21 
ROOT
HETATM    1  N   UNL     1     -41.871 -49.919  11.609  1.00  0.00    -0.343 N 
HETATM    2  C   UNL     1     -42.776 -50.010  12.639  1.00  0.00     0.318 C 
HETATM    3  O   UNL     1     -43.131 -49.017  13.271  1.00  0.00    -0.247 OA
HETATM    4  N   UNL     1     -43.228 -51.288  12.945  1.00  0.00    -0.334 N 
HETATM    5  C   UNL     1     -42.781 -52.527  12.305  1.00  0.00     0.131 C 
HETATM    6  C   UNL     1     -43.913 -53.550  12.240  1.00  0.00     0.067 C 
HETATM    7  C   UNL     1     -44.563 -53.813  13.608  1.00  0.00     0.158 C 
HETATM    8  C   UNL     1     -44.988 -52.471  14.228  1.00  0.00     0.067 C 
HETATM    9  C   UNL     1     -43.855 -51.453  14.258  1.00  0.00     0.131 C 
HETATM   10  H   UNL     1     -42.015 -50.573  10.862  1.00  0.00     0.164 HD
ENDROOT
BRANCH   1  11
HETATM   11  C   UNL     1     -41.374 -48.623  11.167  1.00  0.00     0.129 C 
BRANCH  11  12
HETATM   12  C   UNL     1     -40.015 -48.223  11.761  1.00  0.00     0.059 C 
BRANCH  12  13
HETATM   13  C   UNL     1     -39.893 -46.723  11.911  1.00  0.00    -0.048 A 
HETATM   14  C   UNL     1     -39.447 -46.097  13.086  1.00  0.00    -0.040 A 
HETATM   15  C   UNL     1     -39.066 -46.857  14.321  1.00  0.00     0.050 C 
HETATM   16  C   UNL     1     -39.365 -44.703  13.084  1.00  0.00     0.094 A 
HETATM   17  N   UNL     1     -39.684 -43.914  12.034  1.00  0.00    -0.375 N 
HETATM   18  C   UNL     1     -40.114 -44.540  10.923  1.00  0.00     0.088 A 
ATOM     19  HN  UNL     1     -39.602 -42.898  12.081  1.00  0.00     0.164 HD
HETATM   20  C   UNL     1     -40.229 -45.915  10.813  1.00  0.00     0.024 A 
ENDBRANCH  12  13
ENDBRANCH  11  12
ENDBRANCH   1  11
BRANCH   7  21
HETATM   21  O   UNL     1     -45.775 -54.569  13.356  1.00  0.00    -0.381 OA
HETATM   22  H   UNL     1     -45.538 -55.499  13.197  1.00  0.00     0.211 HD
ENDBRANCH   7  21
BRANCH   7  23
HETATM   23  C   UNL     1     -43.606 -54.613  14.552  1.00  0.00     0.418 C 
HETATM   24  F   UNL     1     -42.324 -54.586  14.118  1.00  0.00    -0.168 F 
HETATM   25  F   UNL     1     -43.605 -54.127  15.815  1.00  0.00    -0.168 F 
HETATM   26  F   UNL     1     -43.958 -55.918  14.640  1.00  0.00    -0.168 F 
ENDBRANCH   7  23
TORSDOF 5
ENDMDL
