MODEL 1
REMARK VINA RESULT:      -7.0      0.000      0.000
REMARK  6 active torsions:
REMARK  status: ('A' for Active; 'I' for Inactive)
REMARK    1  A    between atoms: C_2  and  C_4 
REMARK    2  A    between atoms: N_8  and  C_9 
REMARK    3  A    between atoms: C_9  and  C_10 
REMARK    4  A    between atoms: C_10  and  O_11 
REMARK    5  A    between atoms: C_10  and  C_12 
REMARK    6  A    between atoms: C_12  and  N_13 
ROOT
HETATM    1  C   UNL     1     -39.570 -49.986  12.826  1.00  0.00     0.154 C 
ENDROOT
BRANCH   1   2
HETATM    2  C   UNL     1     -40.336 -48.679  13.109  1.00  0.00     0.166 C 
BRANCH   2   3
HETATM    3  N   UNL     1     -41.322 -48.368  12.071  1.00  0.00    -0.308 N 
HETATM    4  C   UNL     1     -42.551 -47.872  12.439  1.00  0.00     0.250 A 
HETATM    5  C   UNL     1     -43.447 -47.509  11.326  1.00  0.00     0.100 A 
HETATM    6  O   UNL     1     -42.912 -47.711  13.601  1.00  0.00    -0.268 OA
HETATM    7  C   UNL     1     -43.041 -47.723  10.065  1.00  0.00     0.018 A 
HETATM    8  N   UNL     1     -41.840 -48.321   9.764  1.00  0.00    -0.355 N 
HETATM    9  C   UNL     1     -41.058 -48.613  10.749  1.00  0.00     0.186 A 
ATOM     10  HN  UNL     1     -41.577 -48.525   8.801  1.00  0.00     0.166 HD
BRANCH   7  11
HETATM   11  C   UNL     1     -43.900 -47.287   8.883  1.00  0.00     0.027 C 
HETATM   12  C   UNL     1     -43.426 -47.944   7.582  1.00  0.00     0.016 C 
HETATM   13  C   UNL     1     -45.386 -47.571   9.111  1.00  0.00     0.016 C 
ENDBRANCH   7  11
ENDBRANCH   2   3
ENDBRANCH   1   2
BRANCH   1  14
HETATM   14  O   UNL     1     -38.180 -49.757  13.111  1.00  0.00    -0.392 OA
HETATM   15  H   UNL     1     -38.041 -49.721  14.072  1.00  0.00     0.210 HD
ENDBRANCH   1  14
BRANCH   1  16
HETATM   16  C   UNL     1     -40.115 -51.150  13.677  1.00  0.00     0.163 C 
BRANCH  16  17
HETATM   17  N   UNL     1     -41.397 -51.639  13.198  1.00  0.00    -0.339 N 
HETATM   18  C   UNL     1     -41.582 -52.326  12.027  1.00  0.00     0.184 A 
HETATM   19  N   UNL     1     -42.848 -52.596  11.813  1.00  0.00    -0.350 N 
HETATM   20  C   UNL     1     -43.512 -52.064  12.891  1.00  0.00     0.060 A 
ATOM     21  HN  UNL     1     -43.251 -53.093  11.019  1.00  0.00     0.166 HD
HETATM   22  C   UNL     1     -44.888 -52.040  13.162  1.00  0.00     0.039 A 
HETATM   23  C   UNL     1     -42.625 -51.486  13.794  1.00  0.00     0.062 A 
HETATM   24  C   UNL     1     -45.358 -51.438  14.346  1.00  0.00    -0.054 A 
HETATM   25  C   UNL     1     -46.844 -51.410  14.588  1.00  0.00     0.049 C 
HETATM   26  C   UNL     1     -44.440 -50.877  15.260  1.00  0.00    -0.054 A 
HETATM   27  C   UNL     1     -44.874 -50.214  16.542  1.00  0.00     0.049 C 
HETATM   28  C   UNL     1     -43.053 -50.898  14.990  1.00  0.00     0.039 A 
ENDBRANCH  16  17
ENDBRANCH   1  16
TORSDOF 6
ENDMDL
MODEL 2
REMARK VINA RESULT:      -6.6      2.902      3.399
REMARK  6 active torsions:
REMARK  status: ('A' for Active; 'I' for Inactive)
REMARK    1  A    between atoms: C_2  and  C_4 
REMARK    2  A    between atoms: N_8  and  C_9 
REMARK    3  A    between atoms: C_9  and  C_10 
REMARK    4  A    between atoms: C_10  and  O_11 
REMARK    5  A    between atoms: C_10  and  C_12 
REMARK    6  A    between atoms: C_12  and  N_13 
ROOT
HETATM    1  C   UNL     1     -38.218 -51.045  12.836  1.00  0.00     0.154 C 
ENDROOT
BRANCH   1   2
HETATM    2  C   UNL     1     -37.953 -49.746  13.621  1.00  0.00     0.166 C 
BRANCH   2   3
HETATM    3  N   UNL     1     -38.655 -48.592  13.055  1.00  0.00    -0.308 N 
HETATM    4  C   UNL     1     -38.838 -47.469  13.829  1.00  0.00     0.250 A 
HETATM    5  C   UNL     1     -39.478 -46.328  13.149  1.00  0.00     0.100 A 
HETATM    6  O   UNL     1     -38.492 -47.375  15.002  1.00  0.00    -0.268 OA
HETATM    7  C   UNL     1     -39.875 -46.466  11.875  1.00  0.00     0.018 A 
HETATM    8  N   UNL     1     -39.759 -47.650  11.186  1.00  0.00    -0.355 N 
HETATM    9  C   UNL     1     -39.177 -48.633  11.788  1.00  0.00     0.186 A 
ATOM     10  HN  UNL     1     -40.119 -47.749  10.238  1.00  0.00     0.166 HD
BRANCH   7  11
HETATM   11  C   UNL     1     -40.466 -45.288  11.108  1.00  0.00     0.027 C 
HETATM   12  C   UNL     1     -39.488 -44.771  10.048  1.00  0.00     0.016 C 
HETATM   13  C   UNL     1     -41.812 -45.632  10.467  1.00  0.00     0.016 C 
ENDBRANCH   7  11
ENDBRANCH   2   3
ENDBRANCH   1   2
BRANCH   1  14
HETATM   14  O   UNL     1     -36.948 -51.629  12.503  1.00  0.00    -0.392 OA
HETATM   15  H   UNL     1     -36.381 -51.660  13.293  1.00  0.00     0.210 HD
ENDBRANCH   1  14
BRANCH   1  16
HETATM   16  C   UNL     1     -39.073 -52.031  13.655  1.00  0.00     0.163 C 
BRANCH  16  17
HETATM   17  N   UNL     1     -40.360 -52.302  13.036  1.00  0.00    -0.339 N 
HETATM   18  C   UNL     1     -40.806 -51.721  11.878  1.00  0.00     0.184 A 
HETATM   19  N   UNL     1     -42.024 -52.103  11.577  1.00  0.00    -0.350 N 
HETATM   20  C   UNL     1     -42.383 -52.970  12.580  1.00  0.00     0.060 A 
ATOM     21  HN  UNL     1     -42.583 -51.819  10.773  1.00  0.00     0.166 HD
HETATM   22  C   UNL     1     -43.593 -53.652  12.773  1.00  0.00     0.039 A 
HETATM   23  C   UNL     1     -41.346 -53.141  13.493  1.00  0.00     0.062 A 
HETATM   24  C   UNL     1     -43.746 -54.507  13.883  1.00  0.00    -0.054 A 
HETATM   25  C   UNL     1     -45.070 -55.201  14.067  1.00  0.00     0.049 C 
HETATM   26  C   UNL     1     -42.675 -54.684  14.784  1.00  0.00    -0.054 A 
HETATM   27  C   UNL     1     -42.771 -55.579  15.993  1.00  0.00     0.049 C 
HETATM   28  C   UNL     1     -41.454 -53.997  14.594  1.00  0.00     0.039 A 
ENDBRANCH  16  17
ENDBRANCH   1  16
TORSDOF 6
ENDMDL
MODEL 3
REMARK VINA RESULT:      -6.6      1.868      2.497
REMARK  6 active torsions:
REMARK  status: ('A' for Active; 'I' for Inactive)
REMARK    1  A    between atoms: C_2  and  C_4 
REMARK    2  A    between atoms: N_8  and  C_9 
REMARK    3  A    between atoms: C_9  and  C_10 
REMARK    4  A    between atoms: C_10  and  O_11 
REMARK    5  A    between atoms: C_10  and  C_12 
REMARK    6  A    between atoms: C_12  and  N_13 
ROOT
HETATM    1  C   UNL     1     -42.077 -52.036  12.207  1.00  0.00     0.154 C 
ENDROOT
BRANCH   1   2
HETATM    2  C   UNL     1     -41.319 -50.786  12.695  1.00  0.00     0.166 C 
BRANCH   2   3
HETATM    3  N   UNL     1     -41.718 -49.571  11.981  1.00  0.00    -0.308 N 
HETATM    4  C   UNL     1     -42.806 -48.856  12.426  1.00  0.00     0.250 A 
HETATM    5  C   UNL     1     -43.082 -47.603  11.698  1.00  0.00     0.100 A 
HETATM    6  O   UNL     1     -43.515 -49.192  13.370  1.00  0.00    -0.268 OA
HETATM    7  C   UNL     1     -42.312 -47.273  10.651  1.00  0.00     0.018 A 
HETATM    8  N   UNL     1     -41.302 -48.084  10.189  1.00  0.00    -0.355 N 
HETATM    9  C   UNL     1     -41.059 -49.166  10.850  1.00  0.00     0.186 A 
ATOM     10  HN  UNL     1     -40.766 -47.840   9.357  1.00  0.00     0.166 HD
BRANCH   7  11
HETATM   11  C   UNL     1     -42.509 -45.949   9.922  1.00  0.00     0.027 C 
HETATM   12  C   UNL     1     -43.807 -45.953   9.107  1.00  0.00     0.016 C 
HETATM   13  C   UNL     1     -42.485 -44.754  10.877  1.00  0.00     0.016 C 
ENDBRANCH   7  11
ENDBRANCH   2   3
ENDBRANCH   1   2
BRANCH   1  14
HETATM   14  O   UNL     1     -41.287 -52.662  11.183  1.00  0.00    -0.392 OA
HETATM   15  H   UNL     1     -41.376 -53.628  11.242  1.00  0.00     0.210 HD
ENDBRANCH   1  14
BRANCH   1  16
HETATM   16  C   UNL     1     -42.344 -53.017  13.366  1.00  0.00     0.163 C 
BRANCH  16  17
HETATM   17  N   UNL     1     -43.762 -53.222  13.609  1.00  0.00    -0.339 N 
HETATM   18  C   UNL     1     -44.549 -54.111  12.927  1.00  0.00     0.184 A 
HETATM   19  N   UNL     1     -45.802 -54.049  13.311  1.00  0.00    -0.350 N 
HETATM   20  C   UNL     1     -45.828 -53.081  14.284  1.00  0.00     0.060 A 
ATOM     21  HN  UNL     1     -46.586 -54.600  12.962  1.00  0.00     0.166 HD
HETATM   22  C   UNL     1     -46.918 -52.587  15.016  1.00  0.00     0.039 A 
HETATM   23  C   UNL     1     -44.556 -52.566  14.517  1.00  0.00     0.062 A 
HETATM   24  C   UNL     1     -46.715 -51.582  15.983  1.00  0.00    -0.054 A 
HETATM   25  C   UNL     1     -47.915 -51.062  16.729  1.00  0.00     0.049 C 
HETATM   26  C   UNL     1     -45.414 -51.090  16.220  1.00  0.00    -0.054 A 
HETATM   27  C   UNL     1     -45.126 -50.014  17.235  1.00  0.00     0.049 C 
HETATM   28  C   UNL     1     -44.313 -51.584  15.483  1.00  0.00     0.039 A 
ENDBRANCH  16  17
ENDBRANCH   1  16
TORSDOF 6
ENDMDL
MODEL 4
REMARK VINA RESULT:      -6.4      1.787      1.918
REMARK  6 active torsions:
REMARK  status: ('A' for Active; 'I' for Inactive)
REMARK    1  A    between atoms: C_2  and  C_4 
REMARK    2  A    between atoms: N_8  and  C_9 
REMARK    3  A    between atoms: C_9  and  C_10 
REMARK    4  A    between atoms: C_10  and  O_11 
REMARK    5  A    between atoms: C_10  and  C_12 
REMARK    6  A    between atoms: C_12  and  N_13 
ROOT
HETATM    1  C   UNL     1     -39.925 -48.925  13.188  1.00  0.00     0.154 C 
ENDROOT
BRANCH   1   2
HETATM    2  C   UNL     1     -41.074 -47.934  13.453  1.00  0.00     0.166 C 
BRANCH   2   3
HETATM    3  N   UNL     1     -41.866 -47.656  12.253  1.00  0.00    -0.308 N 
HETATM    4  C   UNL     1     -41.487 -46.629  11.419  1.00  0.00     0.250 A 
HETATM    5  C   UNL     1     -42.293 -46.477  10.194  1.00  0.00     0.100 A 
HETATM    6  O   UNL     1     -40.540 -45.878  11.634  1.00  0.00    -0.268 OA
HETATM    7  C   UNL     1     -43.341 -47.290   9.997  1.00  0.00     0.018 A 
HETATM    8  N   UNL     1     -43.733 -48.231  10.919  1.00  0.00    -0.355 N 
HETATM    9  C   UNL     1     -43.005 -48.366  11.977  1.00  0.00     0.186 A 
ATOM     10  HN  UNL     1     -44.566 -48.800  10.774  1.00  0.00     0.166 HD
BRANCH   7  11
HETATM   11  C   UNL     1     -44.151 -47.223   8.706  1.00  0.00     0.027 C 
HETATM   12  C   UNL     1     -43.453 -47.985   7.575  1.00  0.00     0.016 C 
HETATM   13  C   UNL     1     -45.579 -47.738   8.893  1.00  0.00     0.016 C 
ENDBRANCH   7  11
ENDBRANCH   2   3
ENDBRANCH   1   2
BRANCH   1  14
HETATM   14  O   UNL     1     -38.697 -48.302  13.598  1.00  0.00    -0.392 OA
HETATM   15  H   UNL     1     -38.815 -47.876  14.464  1.00  0.00     0.210 HD
ENDBRANCH   1  14
BRANCH   1  16
HETATM   16  C   UNL     1     -40.142 -50.250  13.945  1.00  0.00     0.163 C 
BRANCH  16  17
HETATM   17  N   UNL     1     -40.879 -51.227  13.161  1.00  0.00    -0.339 N 
HETATM   18  C   UNL     1     -40.686 -51.462  11.825  1.00  0.00     0.184 A 
HETATM   19  N   UNL     1     -41.526 -52.354  11.359  1.00  0.00    -0.350 N 
HETATM   20  C   UNL     1     -42.295 -52.716  12.437  1.00  0.00     0.060 A 
ATOM     21  HN  UNL     1     -41.594 -52.704  10.403  1.00  0.00     0.166 HD
HETATM   22  C   UNL     1     -43.368 -53.617  12.500  1.00  0.00     0.039 A 
HETATM   23  C   UNL     1     -41.891 -52.050  13.591  1.00  0.00     0.062 A 
HETATM   24  C   UNL     1     -44.021 -53.845  13.728  1.00  0.00    -0.054 A 
HETATM   25  C   UNL     1     -45.184 -54.801  13.748  1.00  0.00     0.049 C 
HETATM   26  C   UNL     1     -43.581 -53.176  14.890  1.00  0.00    -0.054 A 
HETATM   27  C   UNL     1     -44.236 -53.370  16.234  1.00  0.00     0.049 C 
HETATM   28  C   UNL     1     -42.502 -52.266  14.831  1.00  0.00     0.039 A 
ENDBRANCH  16  17
ENDBRANCH   1  16
TORSDOF 6
ENDMDL
MODEL 5
REMARK VINA RESULT:      -6.4      2.085      3.419
REMARK  6 active torsions:
REMARK  status: ('A' for Active; 'I' for Inactive)
REMARK    1  A    between atoms: C_2  and  C_4 
REMARK    2  A    between atoms: N_8  and  C_9 
REMARK    3  A    between atoms: C_9  and  C_10 
REMARK    4  A    between atoms: C_10  and  O_11 
REMARK    5  A    between atoms: C_10  and  C_12 
REMARK    6  A    between atoms: C_12  and  N_13 
ROOT
HETATM    1  C   UNL     1     -41.694 -53.626  12.783  1.00  0.00     0.154 C 
ENDROOT
BRANCH   1   2
HETATM    2  C   UNL     1     -40.934 -52.458  13.440  1.00  0.00     0.166 C 
BRANCH   2   3
HETATM    3  N   UNL     1     -41.064 -51.207  12.689  1.00  0.00    -0.308 N 
HETATM    4  C   UNL     1     -39.950 -50.663  12.092  1.00  0.00     0.250 A 
HETATM    5  C   UNL     1     -40.192 -49.450  11.287  1.00  0.00     0.100 A 
HETATM    6  O   UNL     1     -38.819 -51.130  12.182  1.00  0.00    -0.268 OA
HETATM    7  C   UNL     1     -41.431 -48.942  11.229  1.00  0.00     0.018 A 
HETATM    8  N   UNL     1     -42.485 -49.473  11.935  1.00  0.00    -0.355 N 
HETATM    9  C   UNL     1     -42.263 -50.546  12.617  1.00  0.00     0.186 A 
ATOM     10  HN  UNL     1     -43.406 -49.037  11.920  1.00  0.00     0.166 HD
BRANCH   7  11
HETATM   11  C   UNL     1     -41.742 -47.739  10.344  1.00  0.00     0.027 C 
HETATM   12  C   UNL     1     -43.253 -47.498  10.249  1.00  0.00     0.016 C 
HETATM   13  C   UNL     1     -41.030 -46.472  10.820  1.00  0.00     0.016 C 
ENDBRANCH   7  11
ENDBRANCH   2   3
ENDBRANCH   1   2
BRANCH   1  14
HETATM   14  O   UNL     1     -40.740 -54.648  12.455  1.00  0.00    -0.392 OA
HETATM   15  H   UNL     1     -40.464 -55.115  13.263  1.00  0.00     0.210 HD
ENDBRANCH   1  14
BRANCH   1  16
HETATM   16  C   UNL     1     -42.787 -54.180  13.719  1.00  0.00     0.163 C 
BRANCH  16  17
HETATM   17  N   UNL     1     -44.051 -53.477  13.580  1.00  0.00    -0.339 N 
HETATM   18  C   UNL     1     -44.623 -53.129  12.384  1.00  0.00     0.184 A 
HETATM   19  N   UNL     1     -45.733 -52.452  12.552  1.00  0.00    -0.350 N 
HETATM   20  C   UNL     1     -45.890 -52.358  13.913  1.00  0.00     0.060 A 
ATOM     21  HN  UNL     1     -46.347 -52.077  11.829  1.00  0.00     0.166 HD
HETATM   22  C   UNL     1     -46.895 -51.712  14.648  1.00  0.00     0.039 A 
HETATM   23  C   UNL     1     -44.867 -53.020  14.585  1.00  0.00     0.062 A 
HETATM   24  C   UNL     1     -46.864 -51.746  16.057  1.00  0.00    -0.054 A 
HETATM   25  C   UNL     1     -47.947 -51.019  16.809  1.00  0.00     0.049 C 
HETATM   26  C   UNL     1     -45.830 -52.442  16.719  1.00  0.00    -0.054 A 
HETATM   27  C   UNL     1     -45.734 -52.515  18.221  1.00  0.00     0.049 C 
HETATM   28  C   UNL     1     -44.815 -53.093  15.982  1.00  0.00     0.039 A 
ENDBRANCH  16  17
ENDBRANCH   1  16
TORSDOF 6
ENDMDL
MODEL 6
REMARK VINA RESULT:      -6.3      2.507      4.957
REMARK  6 active torsions:
REMARK  status: ('A' for Active; 'I' for Inactive)
REMARK    1  A    between atoms: C_2  and  C_4 
REMARK    2  A    between atoms: N_8  and  C_9 
REMARK    3  A    between atoms: C_9  and  C_10 
REMARK    4  A    between atoms: C_10  and  O_11 
REMARK    5  A    between atoms: C_10  and  C_12 
REMARK    6  A    between atoms: C_12  and  N_13 
ROOT
HETATM    1  C   UNL     1     -40.044 -49.611  12.336  1.00  0.00     0.154 C 
ENDROOT
BRANCH   1   2
HETATM    2  C   UNL     1     -39.692 -51.069  11.985  1.00  0.00     0.166 C 
BRANCH   2   3
HETATM    3  N   UNL     1     -40.557 -52.037  12.665  1.00  0.00    -0.308 N 
HETATM    4  C   UNL     1     -40.335 -52.320  13.993  1.00  0.00     0.250 A 
HETATM    5  C   UNL     1     -41.305 -53.240  14.616  1.00  0.00     0.100 A 
HETATM    6  O   UNL     1     -39.416 -51.849  14.656  1.00  0.00    -0.268 OA
HETATM    7  C   UNL     1     -42.283 -53.764  13.863  1.00  0.00     0.018 A 
HETATM    8  N   UNL     1     -42.390 -53.524  12.513  1.00  0.00    -0.355 N 
HETATM    9  C   UNL     1     -41.546 -52.700  11.987  1.00  0.00     0.186 A 
ATOM     10  HN  UNL     1     -43.107 -53.978  11.949  1.00  0.00     0.166 HD
BRANCH   7  11
HETATM   11  C   UNL     1     -43.356 -54.654  14.482  1.00  0.00     0.027 C 
HETATM   12  C   UNL     1     -43.682 -54.212  15.913  1.00  0.00     0.016 C 
HETATM   13  C   UNL     1     -44.629 -54.699  13.636  1.00  0.00     0.016 C 
ENDBRANCH   7  11
ENDBRANCH   2   3
ENDBRANCH   1   2
BRANCH   1  14
HETATM   14  O   UNL     1     -39.323 -48.752  11.437  1.00  0.00    -0.392 OA
HETATM   15  H   UNL     1     -38.378 -48.978  11.450  1.00  0.00     0.210 HD
ENDBRANCH   1  14
BRANCH   1  16
HETATM   16  C   UNL     1     -41.561 -49.359  12.230  1.00  0.00     0.163 C 
BRANCH  16  17
HETATM   17  N   UNL     1     -42.243 -49.518  13.503  1.00  0.00    -0.339 N 
HETATM   18  C   UNL     1     -41.736 -49.127  14.714  1.00  0.00     0.184 A 
HETATM   19  N   UNL     1     -42.536 -49.441  15.704  1.00  0.00    -0.350 N 
HETATM   20  C   UNL     1     -43.610 -50.059  15.111  1.00  0.00     0.060 A 
ATOM     21  HN  UNL     1     -42.393 -49.265  16.699  1.00  0.00     0.166 HD
HETATM   22  C   UNL     1     -44.749 -50.622  15.705  1.00  0.00     0.039 A 
HETATM   23  C   UNL     1     -43.470 -50.092  13.726  1.00  0.00     0.062 A 
HETATM   24  C   UNL     1     -45.743 -51.208  14.896  1.00  0.00    -0.054 A 
HETATM   25  C   UNL     1     -46.939 -51.824  15.574  1.00  0.00     0.049 C 
HETATM   26  C   UNL     1     -45.593 -51.211  13.492  1.00  0.00    -0.054 A 
HETATM   27  C   UNL     1     -46.614 -51.824  12.569  1.00  0.00     0.049 C 
HETATM   28  C   UNL     1     -44.446 -50.646  12.891  1.00  0.00     0.039 A 
ENDBRANCH  16  17
ENDBRANCH   1  16
TORSDOF 6
ENDMDL
MODEL 7
REMARK VINA RESULT:      -6.2      2.647      6.242
REMARK  6 active torsions:
REMARK  status: ('A' for Active; 'I' for Inactive)
REMARK    1  A    between atoms: C_2  and  C_4 
REMARK    2  A    between atoms: N_8  and  C_9 
REMARK    3  A    between atoms: C_9  and  C_10 
REMARK    4  A    between atoms: C_10  and  O_11 
REMARK    5  A    between atoms: C_10  and  C_12 
REMARK    6  A    between atoms: C_12  and  N_13 
ROOT
HETATM    1  C   UNL     1     -39.653 -50.846  13.830  1.00  0.00     0.154 C 
ENDROOT
BRANCH   1   2
HETATM    2  C   UNL     1     -39.654 -52.342  13.460  1.00  0.00     0.166 C 
BRANCH   2   3
HETATM    3  N   UNL     1     -41.007 -52.883  13.305  1.00  0.00    -0.308 N 
HETATM    4  C   UNL     1     -41.450 -53.846  14.181  1.00  0.00     0.250 A 
HETATM    5  C   UNL     1     -42.851 -54.270  14.001  1.00  0.00     0.100 A 
HETATM    6  O   UNL     1     -40.767 -54.335  15.076  1.00  0.00    -0.268 OA
HETATM    7  C   UNL     1     -43.568 -53.744  12.997  1.00  0.00     0.018 A 
HETATM    8  N   UNL     1     -43.035 -52.860  12.089  1.00  0.00    -0.355 N 
HETATM    9  C   UNL     1     -41.814 -52.483  12.272  1.00  0.00     0.186 A 
ATOM     10  HN  UNL     1     -43.582 -52.516  11.300  1.00  0.00     0.166 HD
BRANCH   7  11
HETATM   11  C   UNL     1     -45.043 -54.091  12.824  1.00  0.00     0.027 C 
HETATM   12  C   UNL     1     -45.481 -55.164  13.826  1.00  0.00     0.016 C 
HETATM   13  C   UNL     1     -45.944 -52.859  12.937  1.00  0.00     0.016 C 
ENDBRANCH   7  11
ENDBRANCH   2   3
ENDBRANCH   1   2
BRANCH   1  14
HETATM   14  O   UNL     1     -39.053 -50.711  15.129  1.00  0.00    -0.392 OA
HETATM   15  H   UNL     1     -39.002 -49.772  15.373  1.00  0.00     0.210 HD
ENDBRANCH   1  14
BRANCH   1  16
HETATM   16  C   UNL     1     -38.885 -50.011  12.787  1.00  0.00     0.163 C 
BRANCH  16  17
HETATM   17  N   UNL     1     -39.765 -49.191  11.972  1.00  0.00    -0.339 N 
HETATM   18  C   UNL     1     -40.575 -49.668  10.976  1.00  0.00     0.184 A 
HETATM   19  N   UNL     1     -41.219 -48.702  10.364  1.00  0.00    -0.350 N 
HETATM   20  C   UNL     1     -40.811 -47.551  10.991  1.00  0.00     0.060 A 
ATOM     21  HN  UNL     1     -41.879 -48.788   9.591  1.00  0.00     0.166 HD
HETATM   22  C   UNL     1     -41.163 -46.220  10.721  1.00  0.00     0.039 A 
HETATM   23  C   UNL     1     -39.923 -47.828  12.027  1.00  0.00     0.062 A 
HETATM   24  C   UNL     1     -40.623 -45.180  11.502  1.00  0.00    -0.054 A 
HETATM   25  C   UNL     1     -41.007 -43.763  11.163  1.00  0.00     0.049 C 
HETATM   26  C   UNL     1     -39.742 -45.484  12.562  1.00  0.00    -0.054 A 
HETATM   27  C   UNL     1     -39.125 -44.421  13.434  1.00  0.00     0.049 C 
HETATM   28  C   UNL     1     -39.383 -46.823  12.837  1.00  0.00     0.039 A 
ENDBRANCH  16  17
ENDBRANCH   1  16
TORSDOF 6
ENDMDL
MODEL 8
REMARK VINA RESULT:      -6.2      2.613      3.814
REMARK  6 active torsions:
REMARK  status: ('A' for Active; 'I' for Inactive)
REMARK    1  A    between atoms: C_2  and  C_4 
REMARK    2  A    between atoms: N_8  and  C_9 
REMARK    3  A    between atoms: C_9  and  C_10 
REMARK    4  A    between atoms: C_10  and  O_11 
REMARK    5  A    between atoms: C_10  and  C_12 
REMARK    6  A    between atoms: C_12  and  N_13 
ROOT
HETATM    1  C   UNL     1     -39.932 -53.601  13.440  1.00  0.00     0.154 C 
ENDROOT
BRANCH   1   2
HETATM    2  C   UNL     1     -39.286 -52.513  14.319  1.00  0.00     0.166 C 
BRANCH   2   3
HETATM    3  N   UNL     1     -39.302 -51.193  13.683  1.00  0.00    -0.308 N 
HETATM    4  C   UNL     1     -38.310 -50.865  12.788  1.00  0.00     0.250 A 
HETATM    5  C   UNL     1     -38.454 -49.551  12.135  1.00  0.00     0.100 A 
HETATM    6  O   UNL     1     -37.362 -51.593  12.510  1.00  0.00    -0.268 OA
HETATM    7  C   UNL     1     -39.482 -48.761  12.478  1.00  0.00     0.018 A 
HETATM    8  N   UNL     1     -40.385 -49.102  13.458  1.00  0.00    -0.355 N 
HETATM    9  C   UNL     1     -40.258 -50.265  14.005  1.00  0.00     0.186 A 
ATOM     10  HN  UNL     1     -41.125 -48.462  13.742  1.00  0.00     0.166 HD
BRANCH   7  11
HETATM   11  C   UNL     1     -39.717 -47.431  11.770  1.00  0.00     0.027 C 
HETATM   12  C   UNL     1     -41.024 -47.452  10.972  1.00  0.00     0.016 C 
HETATM   13  C   UNL     1     -39.705 -46.249  12.741  1.00  0.00     0.016 C 
ENDBRANCH   7  11
ENDBRANCH   2   3
ENDBRANCH   1   2
BRANCH   1  14
HETATM   14  O   UNL     1     -38.998 -54.687  13.320  1.00  0.00    -0.392 OA
HETATM   15  H   UNL     1     -38.878 -54.918  12.384  1.00  0.00     0.210 HD
ENDBRANCH   1  14
BRANCH   1  16
HETATM   16  C   UNL     1     -41.262 -54.093  14.044  1.00  0.00     0.163 C 
BRANCH  16  17
HETATM   17  N   UNL     1     -42.394 -53.274  13.642  1.00  0.00    -0.339 N 
HETATM   18  C   UNL     1     -42.492 -52.612  12.447  1.00  0.00     0.184 A 
HETATM   19  N   UNL     1     -43.593 -51.904  12.370  1.00  0.00    -0.350 N 
HETATM   20  C   UNL     1     -44.238 -52.116  13.563  1.00  0.00     0.060 A 
ATOM     21  HN  UNL     1     -43.903 -51.321  11.592  1.00  0.00     0.166 HD
HETATM   22  C   UNL     1     -45.447 -51.579  14.027  1.00  0.00     0.039 A 
HETATM   23  C   UNL     1     -43.525 -52.999  14.371  1.00  0.00     0.062 A 
HETATM   24  C   UNL     1     -45.933 -51.942  15.300  1.00  0.00    -0.054 A 
HETATM   25  C   UNL     1     -47.223 -51.323  15.771  1.00  0.00     0.049 C 
HETATM   26  C   UNL     1     -45.207 -52.856  16.093  1.00  0.00    -0.054 A 
HETATM   27  C   UNL     1     -45.666 -53.284  17.463  1.00  0.00     0.049 C 
HETATM   28  C   UNL     1     -43.987 -53.399  15.629  1.00  0.00     0.039 A 
ENDBRANCH  16  17
ENDBRANCH   1  16
TORSDOF 6
ENDMDL
MODEL 9
REMARK VINA RESULT:      -5.9      2.687      6.569
REMARK  6 active torsions:
REMARK  status: ('A' for Active; 'I' for Inactive)
REMARK    1  A    between atoms: C_2  and  C_4 
REMARK    2  A    between atoms: N_8  and  C_9 
REMARK    3  A    between atoms: C_9  and  C_10 
REMARK    4  A    between atoms: C_10  and  O_11 
REMARK    5  A    between atoms: C_10  and  C_12 
REMARK    6  A    between atoms: C_12  and  N_13 
ROOT
HETATM    1  C   UNL     1     -40.171 -49.609  11.560  1.00  0.00     0.154 C 
ENDROOT
BRANCH   1   2
HETATM    2  C   UNL     1     -39.470 -50.829  12.189  1.00  0.00     0.166 C 
BRANCH   2   3
HETATM    3  N   UNL     1     -40.416 -51.799  12.744  1.00  0.00    -0.308 N 
HETATM    4  C   UNL     1     -40.464 -51.988  14.106  1.00  0.00     0.250 A 
HETATM    5  C   UNL     1     -41.504 -52.920  14.580  1.00  0.00     0.100 A 
HETATM    6  O   UNL     1     -39.723 -51.428  14.908  1.00  0.00    -0.268 OA
HETATM    7  C   UNL     1     -42.281 -53.543  13.682  1.00  0.00     0.018 A 
HETATM    8  N   UNL     1     -42.115 -53.391  12.326  1.00  0.00    -0.355 N 
HETATM    9  C   UNL     1     -41.215 -52.556  11.927  1.00  0.00     0.186 A 
ATOM     10  HN  UNL     1     -42.680 -53.918  11.660  1.00  0.00     0.166 HD
BRANCH   7  11
HETATM   11  C   UNL     1     -43.422 -54.450  14.131  1.00  0.00     0.027 C 
HETATM   12  C   UNL     1     -43.816 -54.166  15.584  1.00  0.00     0.016 C 
HETATM   13  C   UNL     1     -44.644 -54.338  13.217  1.00  0.00     0.016 C 
ENDBRANCH   7  11
ENDBRANCH   2   3
ENDBRANCH   1   2
BRANCH   1  14
HETATM   14  O   UNL     1     -40.490 -49.934  10.197  1.00  0.00    -0.392 OA
HETATM   15  H   UNL     1     -41.122 -50.672  10.172  1.00  0.00     0.210 HD
ENDBRANCH   1  14
BRANCH   1  16
HETATM   16  C   UNL     1     -41.445 -49.231  12.342  1.00  0.00     0.163 C 
BRANCH  16  17
HETATM   17  N   UNL     1     -42.051 -48.001  11.859  1.00  0.00    -0.339 N 
HETATM   18  C   UNL     1     -43.256 -47.927  11.214  1.00  0.00     0.184 A 
HETATM   19  N   UNL     1     -43.535 -46.702  10.839  1.00  0.00    -0.350 N 
HETATM   20  C   UNL     1     -42.467 -45.949  11.260  1.00  0.00     0.060 A 
ATOM     21  HN  UNL     1     -44.365 -46.378  10.341  1.00  0.00     0.166 HD
HETATM   22  C   UNL     1     -42.229 -44.576  11.097  1.00  0.00     0.039 A 
HETATM   23  C   UNL     1     -41.534 -46.731  11.934  1.00  0.00     0.062 A 
HETATM   24  C   UNL     1     -41.054 -44.002  11.621  1.00  0.00    -0.054 A 
HETATM   25  C   UNL     1     -40.824 -42.529  11.402  1.00  0.00     0.049 C 
HETATM   26  C   UNL     1     -40.131 -44.808  12.321  1.00  0.00    -0.054 A 
HETATM   27  C   UNL     1     -38.854 -44.261  12.903  1.00  0.00     0.049 C 
HETATM   28  C   UNL     1     -40.367 -46.192  12.486  1.00  0.00     0.039 A 
ENDBRANCH  16  17
ENDBRANCH   1  16
TORSDOF 6
ENDMDL
