MODEL 1
REMARK VINA RESULT:      -6.3      0.000      0.000
REMARK  4 active torsions:
REMARK  status: ('A' for Active; 'I' for Inactive)
REMARK    1  A    between atoms: C_2  and  N_3 
REMARK    2  A    between atoms: C_6  and  C_7 
REMARK    3  A    between atoms: C_7  and  N_8 
REMARK       I    between atoms: N_8  and  C_9 
REMARK       I    between atoms: C_9  and  N_11 
REMARK    4  A    between atoms: N_11  and  C_12 
ROOT
HETATM    1  N   UNL     1     -40.807 -49.294  10.381  1.00  0.00    -0.342 N 
HETATM    2  C   UNL     1     -41.815 -48.374  10.521  1.00  0.00     0.320 C 
HETATM    3  O   UNL     1     -42.104 -47.880  11.608  1.00  0.00    -0.247 OA
HETATM    4  N   UNL     1     -42.463 -48.132   9.335  1.00  0.00    -0.306 N 
HETATM    5  H   UNL     1     -40.440 -49.514   9.459  1.00  0.00     0.164 HD
HETATM    6  H   UNL     1     -42.294 -48.761   8.567  1.00  0.00     0.171 HD
ENDROOT
BRANCH   1   7
HETATM    7  C   UNL     1     -40.098 -49.829  11.522  1.00  0.00     0.130 C 
BRANCH   7   8
HETATM    8  C   UNL     1     -38.674 -49.288  11.691  1.00  0.00     0.033 C 
HETATM    9  C   UNL     1     -37.616 -50.379  11.548  1.00  0.00     0.038 C 
HETATM   10  C   UNL     1     -37.266 -50.800  12.973  1.00  0.00     0.273 C 
HETATM   11  N   UNL     1     -38.046 -49.927  13.867  1.00  0.00     0.088 N 
HETATM   12  C   UNL     1     -38.387 -48.731  13.079  1.00  0.00     0.278 C 
BRANCH  11  13
HETATM   13  C   UNL     1     -37.325 -49.564  15.091  1.00  0.00     0.268 C 
HETATM   14  C   UNL     1     -36.964 -48.085  15.142  1.00  0.00     0.037 C 
ENDBRANCH  11  13
ENDBRANCH   7   8
ENDBRANCH   1   7
BRANCH   4  15
HETATM   15  C   UNL     1     -43.528 -47.257   9.230  1.00  0.00     0.070 A 
HETATM   16  C   UNL     1     -44.909 -47.496   9.048  1.00  0.00     0.138 A 
HETATM   17  N   UNL     1     -45.616 -46.364   8.963  1.00  0.00    -0.310 N 
HETATM   18  N   UNL     1     -44.683 -45.406   9.073  1.00  0.00    -0.310 N 
ATOM     19  HN  UNL     1     -46.623 -46.255   8.844  1.00  0.00     0.186 HD
HETATM   20  C   UNL     1     -43.422 -45.888   9.275  1.00  0.00     0.138 A 
HETATM   21  H   UNL     1     -44.983 -44.440   8.993  1.00  0.00     0.186 HD
ENDBRANCH   4  15
TORSDOF 4
ENDMDL
MODEL 2
REMARK VINA RESULT:      -5.9      2.261      3.254
REMARK  4 active torsions:
REMARK  status: ('A' for Active; 'I' for Inactive)
REMARK    1  A    between atoms: C_2  and  N_3 
REMARK    2  A    between atoms: C_6  and  C_7 
REMARK    3  A    between atoms: C_7  and  N_8 
REMARK       I    between atoms: N_8  and  C_9 
REMARK       I    between atoms: C_9  and  N_11 
REMARK    4  A    between atoms: N_11  and  C_12 
ROOT
HETATM    1  N   UNL     1     -40.904 -49.396  10.453  1.00  0.00    -0.342 N 
HETATM    2  C   UNL     1     -41.735 -48.305  10.497  1.00  0.00     0.320 C 
HETATM    3  O   UNL     1     -41.749 -47.531  11.451  1.00  0.00    -0.247 OA
HETATM    4  N   UNL     1     -42.550 -48.230   9.395  1.00  0.00    -0.306 N 
HETATM    5  H   UNL     1     -40.746 -49.883   9.575  1.00  0.00     0.164 HD
HETATM    6  H   UNL     1     -42.611 -49.039   8.798  1.00  0.00     0.171 HD
ENDROOT
BRANCH   1   7
HETATM    7  C   UNL     1     -40.077 -49.772  11.579  1.00  0.00     0.130 C 
BRANCH   7   8
HETATM    8  C   UNL     1     -40.851 -50.362  12.762  1.00  0.00     0.033 C 
HETATM    9  C   UNL     1     -39.937 -50.750  13.921  1.00  0.00     0.038 C 
HETATM   10  C   UNL     1     -39.691 -52.249  13.766  1.00  0.00     0.273 C 
HETATM   11  N   UNL     1     -40.495 -52.683  12.610  1.00  0.00     0.088 N 
HETATM   12  C   UNL     1     -41.554 -51.676  12.443  1.00  0.00     0.278 C 
BRANCH  11  13
HETATM   13  C   UNL     1     -41.064 -54.025  12.777  1.00  0.00     0.268 C 
HETATM   14  C   UNL     1     -42.295 -54.032  13.675  1.00  0.00     0.037 C 
ENDBRANCH  11  13
ENDBRANCH   7   8
ENDBRANCH   1   7
BRANCH   4  15
HETATM   15  C   UNL     1     -43.487 -47.229   9.225  1.00  0.00     0.070 A 
HETATM   16  C   UNL     1     -43.363 -45.823   9.292  1.00  0.00     0.138 A 
HETATM   17  N   UNL     1     -44.528 -45.197   9.095  1.00  0.00    -0.310 N 
HETATM   18  N   UNL     1     -45.397 -46.205   8.922  1.00  0.00    -0.310 N 
ATOM     19  HN  UNL     1     -44.712 -44.195   9.081  1.00  0.00     0.186 HD
HETATM   20  C   UNL     1     -44.816 -47.441   8.949  1.00  0.00     0.138 A 
HETATM   21  H   UNL     1     -46.376 -45.972   8.795  1.00  0.00     0.186 HD
ENDBRANCH   4  15
TORSDOF 4
ENDMDL
MODEL 3
REMARK VINA RESULT:      -5.7      4.611      6.459
REMARK  4 active torsions:
REMARK  status: ('A' for Active; 'I' for Inactive)
REMARK    1  A    between atoms: C_2  and  N_3 
REMARK    2  A    between atoms: C_6  and  C_7 
REMARK    3  A    between atoms: C_7  and  N_8 
REMARK       I    between atoms: N_8  and  C_9 
REMARK       I    between atoms: C_9  and  N_11 
REMARK    4  A    between atoms: N_11  and  C_12 
ROOT
HETATM    1  N   UNL     1     -41.654 -53.309  12.429  1.00  0.00    -0.342 N 
HETATM    2  C   UNL     1     -41.167 -52.038  12.602  1.00  0.00     0.320 C 
HETATM    3  O   UNL     1     -41.002 -51.547  13.716  1.00  0.00    -0.247 OA
HETATM    4  N   UNL     1     -40.947 -51.400  11.406  1.00  0.00    -0.306 N 
HETATM    5  H   UNL     1     -41.568 -53.771  11.527  1.00  0.00     0.164 HD
HETATM    6  H   UNL     1     -41.334 -51.813  10.573  1.00  0.00     0.171 HD
ENDROOT
BRANCH   1   7
HETATM    7  C   UNL     1     -42.116 -54.109  13.542  1.00  0.00     0.130 C 
BRANCH   7   8
HETATM    8  C   UNL     1     -43.640 -54.241  13.634  1.00  0.00     0.033 C 
HETATM    9  C   UNL     1     -44.355 -53.552  12.475  1.00  0.00     0.038 C 
HETATM   10  C   UNL     1     -44.776 -52.184  13.007  1.00  0.00     0.273 C 
HETATM   11  N   UNL     1     -44.373 -52.148  14.423  1.00  0.00     0.088 N 
HETATM   12  C   UNL     1     -44.244 -53.551  14.851  1.00  0.00     0.278 C 
BRANCH  11  13
HETATM   13  C   UNL     1     -45.322 -51.422  15.274  1.00  0.00     0.268 C 
HETATM   14  C   UNL     1     -46.741 -51.444  14.719  1.00  0.00     0.037 C 
ENDBRANCH  11  13
ENDBRANCH   7   8
ENDBRANCH   1   7
BRANCH   4  15
HETATM   15  C   UNL     1     -40.477 -50.103  11.326  1.00  0.00     0.070 A 
HETATM   16  C   UNL     1     -41.143 -48.894  11.026  1.00  0.00     0.138 A 
HETATM   17  N   UNL     1     -40.315 -47.843  11.019  1.00  0.00    -0.310 N 
HETATM   18  N   UNL     1     -39.120 -48.387  11.296  1.00  0.00    -0.310 N 
ATOM     19  HN  UNL     1     -40.538 -46.864  10.844  1.00  0.00     0.186 HD
HETATM   20  C   UNL     1     -39.170 -49.732  11.529  1.00  0.00     0.138 A 
HETATM   21  H   UNL     1     -38.310 -47.777  11.303  1.00  0.00     0.186 HD
ENDBRANCH   4  15
TORSDOF 4
ENDMDL
MODEL 4
REMARK VINA RESULT:      -5.6      5.599      7.281
REMARK  4 active torsions:
REMARK  status: ('A' for Active; 'I' for Inactive)
REMARK    1  A    between atoms: C_2  and  N_3 
REMARK    2  A    between atoms: C_6  and  C_7 
REMARK    3  A    between atoms: C_7  and  N_8 
REMARK       I    between atoms: N_8  and  C_9 
REMARK       I    between atoms: C_9  and  N_11 
REMARK    4  A    between atoms: N_11  and  C_12 
ROOT
HETATM    1  N   UNL     1     -42.953 -53.041  11.937  1.00  0.00    -0.342 N 
HETATM    2  C   UNL     1     -42.306 -51.869  12.236  1.00  0.00     0.320 C 
HETATM    3  O   UNL     1     -42.745 -51.071  13.059  1.00  0.00    -0.247 OA
HETATM    4  N   UNL     1     -41.172 -51.696  11.480  1.00  0.00    -0.306 N 
HETATM    5  H   UNL     1     -42.468 -53.779  11.433  1.00  0.00     0.164 HD
HETATM    6  H   UNL     1     -41.041 -52.297  10.682  1.00  0.00     0.171 HD
ENDROOT
BRANCH   1   7
HETATM    7  C   UNL     1     -44.254 -53.357  12.485  1.00  0.00     0.130 C 
BRANCH   7   8
HETATM    8  C   UNL     1     -44.216 -54.259  13.722  1.00  0.00     0.033 C 
HETATM    9  C   UNL     1     -45.428 -55.183  13.807  1.00  0.00     0.038 C 
HETATM   10  C   UNL     1     -46.405 -54.492  14.755  1.00  0.00     0.273 C 
HETATM   11  N   UNL     1     -45.729 -53.272  15.229  1.00  0.00     0.088 N 
HETATM   12  C   UNL     1     -44.287 -53.500  15.041  1.00  0.00     0.278 C 
BRANCH  11  13
HETATM   13  C   UNL     1     -46.035 -52.951  16.628  1.00  0.00     0.268 C 
HETATM   14  C   UNL     1     -45.787 -54.127  17.565  1.00  0.00     0.037 C 
ENDBRANCH  11  13
ENDBRANCH   7   8
ENDBRANCH   1   7
BRANCH   4  15
HETATM   15  C   UNL     1     -40.364 -50.580  11.588  1.00  0.00     0.070 A 
HETATM   16  C   UNL     1     -40.527 -49.268  11.092  1.00  0.00     0.138 A 
HETATM   17  N   UNL     1     -39.491 -48.477  11.389  1.00  0.00    -0.310 N 
HETATM   18  N   UNL     1     -38.661 -49.291  12.058  1.00  0.00    -0.310 N 
ATOM     19  HN  UNL     1     -39.362 -47.491  11.162  1.00  0.00     0.186 HD
HETATM   20  C   UNL     1     -39.156 -50.551  12.240  1.00  0.00     0.138 A 
HETATM   21  H   UNL     1     -37.766 -48.917  12.357  1.00  0.00     0.186 HD
ENDBRANCH   4  15
TORSDOF 4
ENDMDL
MODEL 5
REMARK VINA RESULT:      -5.5      4.546      5.849
REMARK  4 active torsions:
REMARK  status: ('A' for Active; 'I' for Inactive)
REMARK    1  A    between atoms: C_2  and  N_3 
REMARK    2  A    between atoms: C_6  and  C_7 
REMARK    3  A    between atoms: C_7  and  N_8 
REMARK       I    between atoms: N_8  and  C_9 
REMARK       I    between atoms: C_9  and  N_11 
REMARK    4  A    between atoms: N_11  and  C_12 
ROOT
HETATM    1  N   UNL     1     -41.749 -51.772  11.717  1.00  0.00    -0.342 N 
HETATM    2  C   UNL     1     -42.740 -52.094  12.610  1.00  0.00     0.320 C 
HETATM    3  O   UNL     1     -42.707 -51.732  13.783  1.00  0.00    -0.247 OA
HETATM    4  N   UNL     1     -43.708 -52.888  12.045  1.00  0.00    -0.306 N 
HETATM    5  H   UNL     1     -41.904 -51.884  10.718  1.00  0.00     0.164 HD
HETATM    6  H   UNL     1     -43.511 -53.308  11.151  1.00  0.00     0.171 HD
ENDROOT
BRANCH   1   7
HETATM    7  C   UNL     1     -40.543 -51.087  12.128  1.00  0.00     0.130 C 
BRANCH   7   8
HETATM    8  C   UNL     1     -40.112 -49.953  11.192  1.00  0.00     0.033 C 
HETATM    9  C   UNL     1     -38.894 -49.197  11.716  1.00  0.00     0.038 C 
HETATM   10  C   UNL     1     -39.450 -47.958  12.416  1.00  0.00     0.273 C 
HETATM   11  N   UNL     1     -40.910 -47.993  12.222  1.00  0.00     0.088 N 
HETATM   12  C   UNL     1     -41.150 -48.846  11.048  1.00  0.00     0.278 C 
BRANCH  11  13
HETATM   13  C   UNL     1     -41.498 -46.662  12.037  1.00  0.00     0.268 C 
HETATM   14  C   UNL     1     -41.132 -46.042  10.695  1.00  0.00     0.037 C 
ENDBRANCH  11  13
ENDBRANCH   7   8
ENDBRANCH   1   7
BRANCH   4  15
HETATM   15  C   UNL     1     -44.798 -53.357  12.754  1.00  0.00     0.070 A 
HETATM   16  C   UNL     1     -46.039 -52.752  13.052  1.00  0.00     0.138 A 
HETATM   17  N   UNL     1     -46.822 -53.535  13.800  1.00  0.00    -0.310 N 
HETATM   18  N   UNL     1     -46.072 -54.631  13.993  1.00  0.00    -0.310 N 
ATOM     19  HN  UNL     1     -47.764 -53.346  14.143  1.00  0.00     0.186 HD
HETATM   20  C   UNL     1     -44.867 -54.591  13.352  1.00  0.00     0.138 A 
HETATM   21  H   UNL     1     -46.449 -55.367  14.582  1.00  0.00     0.186 HD
ENDBRANCH   4  15
TORSDOF 4
ENDMDL
MODEL 6
REMARK VINA RESULT:      -5.4      3.499      4.360
REMARK  4 active torsions:
REMARK  status: ('A' for Active; 'I' for Inactive)
REMARK    1  A    between atoms: C_2  and  N_3 
REMARK    2  A    between atoms: C_6  and  C_7 
REMARK    3  A    between atoms: C_7  and  N_8 
REMARK       I    between atoms: N_8  and  C_9 
REMARK       I    between atoms: C_9  and  N_11 
REMARK    4  A    between atoms: N_11  and  C_12 
ROOT
HETATM    1  N   UNL     1     -40.592 -50.630  11.148  1.00  0.00    -0.342 N 
HETATM    2  C   UNL     1     -41.218 -49.429  11.366  1.00  0.00     0.320 C 
HETATM    3  O   UNL     1     -41.512 -49.040  12.493  1.00  0.00    -0.247 OA
HETATM    4  N   UNL     1     -41.504 -48.773  10.194  1.00  0.00    -0.306 N 
HETATM    5  H   UNL     1     -40.160 -50.825  10.248  1.00  0.00     0.164 HD
HETATM    6  H   UNL     1     -41.426 -49.290   9.333  1.00  0.00     0.171 HD
ENDROOT
BRANCH   1   7
HETATM    7  C   UNL     1     -40.345 -51.569  12.220  1.00  0.00     0.130 C 
BRANCH   7   8
HETATM    8  C   UNL     1     -41.209 -52.834  12.163  1.00  0.00     0.033 C 
HETATM    9  C   UNL     1     -42.684 -52.542  12.421  1.00  0.00     0.038 C 
HETATM   10  C   UNL     1     -42.912 -52.857  13.898  1.00  0.00     0.273 C 
HETATM   11  N   UNL     1     -41.631 -53.370  14.415  1.00  0.00     0.088 N 
HETATM   12  C   UNL     1     -40.879 -53.853  13.246  1.00  0.00     0.278 C 
BRANCH  11  13
HETATM   13  C   UNL     1     -41.797 -54.432  15.413  1.00  0.00     0.268 C 
HETATM   14  C   UNL     1     -43.022 -55.299  15.147  1.00  0.00     0.037 C 
ENDBRANCH  11  13
ENDBRANCH   7   8
ENDBRANCH   1   7
BRANCH   4  15
HETATM   15  C   UNL     1     -42.151 -47.553  10.159  1.00  0.00     0.070 A 
HETATM   16  C   UNL     1     -41.696 -46.254  10.476  1.00  0.00     0.138 A 
HETATM   17  N   UNL     1     -42.653 -45.330  10.340  1.00  0.00    -0.310 N 
HETATM   18  N   UNL     1     -43.722 -46.044   9.954  1.00  0.00    -0.310 N 
ATOM     19  HN  UNL     1     -42.587 -44.324  10.492  1.00  0.00     0.186 HD
HETATM   20  C   UNL     1     -43.462 -47.375   9.791  1.00  0.00     0.138 A 
HETATM   21  H   UNL     1     -44.600 -45.553   9.826  1.00  0.00     0.186 HD
ENDBRANCH   4  15
TORSDOF 4
ENDMDL
MODEL 7
REMARK VINA RESULT:      -5.2      4.533      5.977
REMARK  4 active torsions:
REMARK  status: ('A' for Active; 'I' for Inactive)
REMARK    1  A    between atoms: C_2  and  N_3 
REMARK    2  A    between atoms: C_6  and  C_7 
REMARK    3  A    between atoms: C_7  and  N_8 
REMARK       I    between atoms: N_8  and  C_9 
REMARK       I    between atoms: C_9  and  N_11 
REMARK    4  A    between atoms: N_11  and  C_12 
ROOT
HETATM    1  N   UNL     1     -42.483 -51.535  12.224  1.00  0.00    -0.342 N 
HETATM    2  C   UNL     1     -41.587 -50.584  11.807  1.00  0.00     0.320 C 
HETATM    3  O   UNL     1     -40.374 -50.779  11.813  1.00  0.00    -0.247 OA
HETATM    4  N   UNL     1     -42.206 -49.413  11.444  1.00  0.00    -0.306 N 
HETATM    5  H   UNL     1     -43.470 -51.441  12.000  1.00  0.00     0.164 HD
HETATM    6  H   UNL     1     -43.173 -49.292  11.699  1.00  0.00     0.171 HD
ENDROOT
BRANCH   1   7
HETATM    7  C   UNL     1     -42.052 -52.785  12.810  1.00  0.00     0.130 C 
BRANCH   7   8
HETATM    8  C   UNL     1     -42.681 -53.093  14.173  1.00  0.00     0.033 C 
HETATM    9  C   UNL     1     -43.073 -54.561  14.315  1.00  0.00     0.038 C 
HETATM   10  C   UNL     1     -44.564 -54.621  13.989  1.00  0.00     0.273 C 
HETATM   11  N   UNL     1     -44.991 -53.232  13.748  1.00  0.00     0.088 N 
HETATM   12  C   UNL     1     -44.001 -52.374  14.418  1.00  0.00     0.278 C 
BRANCH  11  13
HETATM   13  C   UNL     1     -46.347 -52.954  14.234  1.00  0.00     0.268 C 
HETATM   14  C   UNL     1     -46.662 -51.464  14.269  1.00  0.00     0.037 C 
ENDBRANCH  11  13
ENDBRANCH   7   8
ENDBRANCH   1   7
BRANCH   4  15
HETATM   15  C   UNL     1     -41.509 -48.302  11.008  1.00  0.00     0.070 A 
HETATM   16  C   UNL     1     -40.223 -47.825  11.346  1.00  0.00     0.138 A 
HETATM   17  N   UNL     1     -39.921 -46.682  10.721  1.00  0.00    -0.310 N 
HETATM   18  N   UNL     1     -41.023 -46.423   9.999  1.00  0.00    -0.310 N 
ATOM     19  HN  UNL     1     -39.061 -46.138  10.778  1.00  0.00     0.186 HD
HETATM   20  C   UNL     1     -41.987 -47.384  10.105  1.00  0.00     0.138 A 
HETATM   21  H   UNL     1     -41.047 -45.563   9.461  1.00  0.00     0.186 HD
ENDBRANCH   4  15
TORSDOF 4
ENDMDL
MODEL 8
REMARK VINA RESULT:      -5.2      3.899      5.047
REMARK  4 active torsions:
REMARK  status: ('A' for Active; 'I' for Inactive)
REMARK    1  A    between atoms: C_2  and  N_3 
REMARK    2  A    between atoms: C_6  and  C_7 
REMARK    3  A    between atoms: C_7  and  N_8 
REMARK       I    between atoms: N_8  and  C_9 
REMARK       I    between atoms: C_9  and  N_11 
REMARK    4  A    between atoms: N_11  and  C_12 
ROOT
HETATM    1  N   UNL     1     -42.653 -45.965  11.735  1.00  0.00    -0.342 N 
HETATM    2  C   UNL     1     -42.979 -46.885  10.771  1.00  0.00     0.320 C 
HETATM    3  O   UNL     1     -42.281 -47.870  10.543  1.00  0.00    -0.247 OA
HETATM    4  N   UNL     1     -44.120 -46.539  10.089  1.00  0.00    -0.306 N 
HETATM    5  H   UNL     1     -43.347 -45.295  12.058  1.00  0.00     0.164 HD
HETATM    6  H   UNL     1     -44.473 -45.603  10.205  1.00  0.00     0.171 HD
ENDROOT
BRANCH   1   7
HETATM    7  C   UNL     1     -41.406 -46.031  12.464  1.00  0.00     0.130 C 
BRANCH   7   8
HETATM    8  C   UNL     1     -40.261 -45.235  11.830  1.00  0.00     0.033 C 
HETATM    9  C   UNL     1     -39.239 -44.763  12.860  1.00  0.00     0.038 C 
HETATM   10  C   UNL     1     -39.618 -43.319  13.183  1.00  0.00     0.273 C 
HETATM   11  N   UNL     1     -40.759 -42.986  12.312  1.00  0.00     0.088 N 
HETATM   12  C   UNL     1     -40.705 -43.928  11.183  1.00  0.00     0.278 C 
BRANCH  11  13
HETATM   13  C   UNL     1     -40.738 -41.597  11.842  1.00  0.00     0.268 C 
HETATM   14  C   UNL     1     -40.010 -40.665  12.802  1.00  0.00     0.037 C 
ENDBRANCH  11  13
ENDBRANCH   7   8
ENDBRANCH   1   7
BRANCH   4  15
HETATM   15  C   UNL     1     -44.635 -47.301   9.058  1.00  0.00     0.070 A 
HETATM   16  C   UNL     1     -45.919 -47.861   8.872  1.00  0.00     0.138 A 
HETATM   17  N   UNL     1     -46.009 -48.568   7.741  1.00  0.00    -0.310 N 
HETATM   18  N   UNL     1     -44.777 -48.474   7.216  1.00  0.00    -0.310 N 
ATOM     19  HN  UNL     1     -46.819 -49.062   7.366  1.00  0.00     0.186 HD
HETATM   20  C   UNL     1     -43.929 -47.691   7.947  1.00  0.00     0.138 A 
HETATM   21  H   UNL     1     -44.587 -48.977   6.357  1.00  0.00     0.186 HD
ENDBRANCH   4  15
TORSDOF 4
ENDMDL
MODEL 9
REMARK VINA RESULT:      -5.2      4.862      6.155
REMARK  4 active torsions:
REMARK  status: ('A' for Active; 'I' for Inactive)
REMARK    1  A    between atoms: C_2  and  N_3 
REMARK    2  A    between atoms: C_6  and  C_7 
REMARK    3  A    between atoms: C_7  and  N_8 
REMARK       I    between atoms: N_8  and  C_9 
REMARK       I    between atoms: C_9  and  N_11 
REMARK    4  A    between atoms: N_11  and  C_12 
ROOT
HETATM    1  N   UNL     1     -43.628 -50.274  12.554  1.00  0.00    -0.342 N 
HETATM    2  C   UNL     1     -42.971 -49.077  12.424  1.00  0.00     0.320 C 
HETATM    3  O   UNL     1     -43.021 -48.206  13.289  1.00  0.00    -0.247 OA
HETATM    4  N   UNL     1     -42.317 -48.972  11.221  1.00  0.00    -0.306 N 
HETATM    5  H   UNL     1     -43.392 -51.055  11.946  1.00  0.00     0.164 HD
HETATM    6  H   UNL     1     -42.537 -49.646  10.505  1.00  0.00     0.171 HD
ENDROOT
BRANCH   1   7
HETATM    7  C   UNL     1     -44.519 -50.541  13.662  1.00  0.00     0.130 C 
BRANCH   7   8
HETATM    8  C   UNL     1     -45.505 -51.688  13.416  1.00  0.00     0.033 C 
HETATM    9  C   UNL     1     -46.358 -51.995  14.644  1.00  0.00     0.038 C 
HETATM   10  C   UNL     1     -45.675 -53.175  15.333  1.00  0.00     0.273 C 
HETATM   11  N   UNL     1     -44.534 -53.548  14.480  1.00  0.00     0.088 N 
HETATM   12  C   UNL     1     -44.834 -53.027  13.137  1.00  0.00     0.278 C 
BRANCH  11  13
HETATM   13  C   UNL     1     -44.292 -54.995  14.443  1.00  0.00     0.268 C 
HETATM   14  C   UNL     1     -43.038 -55.398  15.208  1.00  0.00     0.037 C 
ENDBRANCH  11  13
ENDBRANCH   7   8
ENDBRANCH   1   7
BRANCH   4  15
HETATM   15  C   UNL     1     -41.602 -47.848  10.854  1.00  0.00     0.070 A 
HETATM   16  C   UNL     1     -41.988 -46.703  10.122  1.00  0.00     0.138 A 
HETATM   17  N   UNL     1     -40.979 -45.842   9.951  1.00  0.00    -0.310 N 
HETATM   18  N   UNL     1     -39.947 -46.449  10.557  1.00  0.00    -0.310 N 
ATOM     19  HN  UNL     1     -40.990 -44.942   9.473  1.00  0.00     0.186 HD
HETATM   20  C   UNL     1     -40.278 -47.634  11.150  1.00  0.00     0.138 A 
HETATM   21  H   UNL     1     -39.041 -45.994  10.520  1.00  0.00     0.186 HD
ENDBRANCH   4  15
TORSDOF 4
ENDMDL
