MODEL 1
REMARK VINA RESULT:      -6.7      0.000      0.000
REMARK  5 active torsions:
REMARK  status: ('A' for Active; 'I' for Inactive)
REMARK    1  A    between atoms: C_2  and  C_4 
REMARK    2  A    between atoms: C_4  and  N_5 
REMARK    3  A    between atoms: C_10  and  C_11 
REMARK    4  A    between atoms: C_11  and  N_12 
REMARK       I    between atoms: N_12  and  C_13 
REMARK       I    between atoms: C_13  and  N_15 
REMARK    5  A    between atoms: N_15  and  C_16 
ROOT
HETATM    1  N   UNL     1     -41.223 -51.293  12.377  1.00  0.00    -0.341 N 
HETATM    2  C   UNL     1     -41.754 -50.035  12.275  1.00  0.00     0.320 C 
HETATM    3  O   UNL     1     -42.272 -49.476  13.237  1.00  0.00    -0.247 OA
HETATM    4  N   UNL     1     -41.643 -49.495  11.018  1.00  0.00    -0.304 N 
HETATM    5  H   UNL     1     -40.657 -51.677  11.635  1.00  0.00     0.164 HD
HETATM    6  H   UNL     1     -41.698 -50.138  10.235  1.00  0.00     0.171 HD
ENDROOT
BRANCH   1   7
HETATM    7  C   UNL     1     -41.335 -52.024  13.624  1.00  0.00     0.160 C 
BRANCH   7   8
HETATM    8  C   UNL     1     -42.395 -53.150  13.625  1.00  0.00     0.240 C 
HETATM    9  N   UNL     1     -43.764 -52.879  13.097  1.00  0.00     0.095 N 
HETATM   10  C   UNL     1     -44.471 -54.183  12.984  1.00  0.00     0.273 C 
HETATM   11  C   UNL     1     -44.547 -54.982  14.294  1.00  0.00     0.030 C 
HETATM   12  C   UNL     1     -43.178 -55.147  14.946  1.00  0.00     0.004 C 
HETATM   13  C   UNL     1     -42.426 -53.824  15.010  1.00  0.00     0.037 C 
BRANCH   9  14
HETATM   14  C   UNL     1     -44.609 -51.924  13.857  1.00  0.00     0.277 C 
BRANCH  14  15
HETATM   15  C   UNL     1     -46.135 -52.085  13.710  1.00  0.00     0.006 C 
HETATM   16  C   UNL     1     -46.903 -51.479  14.884  1.00  0.00     0.011 C 
HETATM   17  C   UNL     1     -46.646 -51.489  12.395  1.00  0.00     0.011 C 
ENDBRANCH  14  15
ENDBRANCH   9  14
ENDBRANCH   7   8
ENDBRANCH   1   7
BRANCH   4  18
HETATM   18  C   UNL     1     -41.920 -48.171  10.706  1.00  0.00     0.105 A 
HETATM   19  C   UNL     1     -43.101 -47.738  10.237  1.00  0.00     0.037 A 
HETATM   20  C   UNL     1     -43.324 -46.355   9.904  1.00  0.00     0.020 A 
HETATM   21  C   UNL     1     -42.332 -45.467  10.035  1.00  0.00     0.094 A 
HETATM   22  N   UNL     1     -41.095 -45.846  10.518  1.00  0.00    -0.327 N 
HETATM   23  C   UNL     1     -40.024 -44.866  10.589  1.00  0.00     0.159 C 
HETATM   24  C   UNL     1     -40.814 -47.158  10.918  1.00  0.00     0.274 A 
HETATM   25  O   UNL     1     -39.737 -47.523  11.391  1.00  0.00    -0.266 OA
ENDBRANCH   4  18
TORSDOF 5
ENDMDL
MODEL 2
REMARK VINA RESULT:      -6.6      2.014      7.781
REMARK  5 active torsions:
REMARK  status: ('A' for Active; 'I' for Inactive)
REMARK    1  A    between atoms: C_2  and  C_4 
REMARK    2  A    between atoms: C_4  and  N_5 
REMARK    3  A    between atoms: C_10  and  C_11 
REMARK    4  A    between atoms: C_11  and  N_12 
REMARK       I    between atoms: N_12  and  C_13 
REMARK       I    between atoms: C_13  and  N_15 
REMARK    5  A    between atoms: N_15  and  C_16 
ROOT
HETATM    1  N   UNL     1     -41.405 -49.740  10.908  1.00  0.00    -0.341 N 
HETATM    2  C   UNL     1     -41.594 -50.497  12.033  1.00  0.00     0.320 C 
HETATM    3  O   UNL     1     -41.847 -49.985  13.118  1.00  0.00    -0.247 OA
HETATM    4  N   UNL     1     -41.472 -51.847  11.810  1.00  0.00    -0.304 N 
HETATM    5  H   UNL     1     -41.363 -50.169   9.996  1.00  0.00     0.164 HD
HETATM    6  H   UNL     1     -40.803 -52.137  11.104  1.00  0.00     0.171 HD
ENDROOT
BRANCH   1   7
HETATM    7  C   UNL     1     -41.425 -48.292  11.001  1.00  0.00     0.160 C 
BRANCH   7   8
HETATM    8  C   UNL     1     -42.471 -47.598  10.099  1.00  0.00     0.240 C 
HETATM    9  N   UNL     1     -42.252 -46.189   9.659  1.00  0.00     0.095 N 
HETATM   10  C   UNL     1     -43.265 -45.879   8.614  1.00  0.00     0.273 C 
HETATM   11  C   UNL     1     -44.722 -46.085   9.058  1.00  0.00     0.030 C 
HETATM   12  C   UNL     1     -44.948 -47.468   9.659  1.00  0.00     0.004 C 
HETATM   13  C   UNL     1     -43.879 -47.814  10.687  1.00  0.00     0.037 C 
BRANCH   9  14
HETATM   14  C   UNL     1     -42.286 -45.136  10.706  1.00  0.00     0.277 C 
BRANCH  14  15
HETATM   15  C   UNL     1     -40.927 -44.556  11.143  1.00  0.00     0.006 C 
HETATM   16  C   UNL     1     -39.782 -44.997  10.232  1.00  0.00     0.011 C 
HETATM   17  C   UNL     1     -40.962 -43.028  11.227  1.00  0.00     0.011 C 
ENDBRANCH  14  15
ENDBRANCH   9  14
ENDBRANCH   7   8
ENDBRANCH   1   7
BRANCH   4  18
HETATM   18  C   UNL     1     -41.810 -52.828  12.731  1.00  0.00     0.105 A 
HETATM   19  C   UNL     1     -43.060 -53.278  12.930  1.00  0.00     0.037 A 
HETATM   20  C   UNL     1     -43.356 -54.280  13.920  1.00  0.00     0.020 A 
HETATM   21  C   UNL     1     -42.378 -54.769  14.691  1.00  0.00     0.094 A 
HETATM   22  N   UNL     1     -41.070 -54.354  14.533  1.00  0.00    -0.327 N 
HETATM   23  C   UNL     1     -40.045 -54.863  15.429  1.00  0.00     0.159 C 
HETATM   24  C   UNL     1     -40.689 -53.426  13.555  1.00  0.00     0.274 A 
HETATM   25  O   UNL     1     -39.529 -53.064  13.359  1.00  0.00    -0.266 OA
ENDBRANCH   4  18
TORSDOF 5
ENDMDL
MODEL 3
REMARK VINA RESULT:      -6.6      1.818      7.939
REMARK  5 active torsions:
REMARK  status: ('A' for Active; 'I' for Inactive)
REMARK    1  A    between atoms: C_2  and  C_4 
REMARK    2  A    between atoms: C_4  and  N_5 
REMARK    3  A    between atoms: C_10  and  C_11 
REMARK    4  A    between atoms: C_11  and  N_12 
REMARK       I    between atoms: N_12  and  C_13 
REMARK       I    between atoms: C_13  and  N_15 
REMARK    5  A    between atoms: N_15  and  C_16 
ROOT
HETATM    1  N   UNL     1     -41.593 -49.893  11.087  1.00  0.00    -0.341 N 
HETATM    2  C   UNL     1     -41.810 -50.620  12.227  1.00  0.00     0.320 C 
HETATM    3  O   UNL     1     -42.028 -50.076  13.305  1.00  0.00    -0.247 OA
HETATM    4  N   UNL     1     -41.756 -51.977  12.028  1.00  0.00    -0.304 N 
HETATM    5  H   UNL     1     -41.580 -50.341  10.183  1.00  0.00     0.164 HD
HETATM    6  H   UNL     1     -41.108 -52.313  11.323  1.00  0.00     0.171 HD
ENDROOT
BRANCH   1   7
HETATM    7  C   UNL     1     -41.542 -48.445  11.153  1.00  0.00     0.160 C 
BRANCH   7   8
HETATM    8  C   UNL     1     -42.517 -47.715  10.200  1.00  0.00     0.240 C 
HETATM    9  N   UNL     1     -42.209 -46.328   9.744  1.00  0.00     0.095 N 
HETATM   10  C   UNL     1     -43.165 -45.988   8.657  1.00  0.00     0.273 C 
HETATM   11  C   UNL     1     -44.646 -46.111   9.048  1.00  0.00     0.030 C 
HETATM   12  C   UNL     1     -44.966 -47.469   9.664  1.00  0.00     0.004 C 
HETATM   13  C   UNL     1     -43.954 -47.848  10.738  1.00  0.00     0.037 C 
BRANCH   9  14
HETATM   14  C   UNL     1     -42.227 -45.256  10.771  1.00  0.00     0.277 C 
BRANCH  14  15
HETATM   15  C   UNL     1     -40.862 -44.667  11.176  1.00  0.00     0.006 C 
HETATM   16  C   UNL     1     -39.732 -45.122  10.254  1.00  0.00     0.011 C 
HETATM   17  C   UNL     1     -40.897 -43.138  11.236  1.00  0.00     0.011 C 
ENDBRANCH  14  15
ENDBRANCH   9  14
ENDBRANCH   7   8
ENDBRANCH   1   7
BRANCH   4  18
HETATM   18  C   UNL     1     -42.134 -52.923  12.970  1.00  0.00     0.105 A 
HETATM   19  C   UNL     1     -41.310 -53.434  13.900  1.00  0.00     0.037 A 
HETATM   20  C   UNL     1     -41.751 -54.434  14.837  1.00  0.00     0.020 A 
HETATM   21  C   UNL     1     -43.004 -54.899  14.779  1.00  0.00     0.094 A 
HETATM   22  N   UNL     1     -43.904 -54.411  13.853  1.00  0.00    -0.327 N 
HETATM   23  C   UNL     1     -45.239 -54.983  13.781  1.00  0.00     0.159 C 
HETATM   24  C   UNL     1     -43.572 -53.397  12.944  1.00  0.00     0.274 A 
HETATM   25  O   UNL     1     -44.360 -52.910  12.132  1.00  0.00    -0.266 OA
ENDBRANCH   4  18
TORSDOF 5
ENDMDL
MODEL 4
REMARK VINA RESULT:      -6.6      2.078      7.726
REMARK  5 active torsions:
REMARK  status: ('A' for Active; 'I' for Inactive)
REMARK    1  A    between atoms: C_2  and  C_4 
REMARK    2  A    between atoms: C_4  and  N_5 
REMARK    3  A    between atoms: C_10  and  C_11 
REMARK    4  A    between atoms: C_11  and  N_12 
REMARK       I    between atoms: N_12  and  C_13 
REMARK       I    between atoms: C_13  and  N_15 
REMARK    5  A    between atoms: N_15  and  C_16 
ROOT
HETATM    1  N   UNL     1     -43.072 -49.216  11.964  1.00  0.00    -0.341 N 
HETATM    2  C   UNL     1     -43.393 -50.258  12.792  1.00  0.00     0.320 C 
HETATM    3  O   UNL     1     -42.572 -50.742  13.564  1.00  0.00    -0.247 OA
HETATM    4  N   UNL     1     -44.693 -50.681  12.659  1.00  0.00    -0.304 N 
HETATM    5  H   UNL     1     -43.789 -48.719  11.456  1.00  0.00     0.164 HD
HETATM    6  H   UNL     1     -45.104 -50.618  11.734  1.00  0.00     0.171 HD
ENDROOT
BRANCH   1   7
HETATM    7  C   UNL     1     -41.713 -48.710  11.934  1.00  0.00     0.160 C 
BRANCH   7   8
HETATM    8  C   UNL     1     -41.594 -47.171  11.842  1.00  0.00     0.240 C 
HETATM    9  N   UNL     1     -42.597 -46.396  11.055  1.00  0.00     0.095 N 
HETATM   10  C   UNL     1     -42.388 -44.953  11.352  1.00  0.00     0.273 C 
HETATM   11  C   UNL     1     -40.967 -44.443  11.066  1.00  0.00     0.030 C 
HETATM   12  C   UNL     1     -39.901 -45.308  11.731  1.00  0.00     0.004 C 
HETATM   13  C   UNL     1     -40.146 -46.791  11.478  1.00  0.00     0.037 C 
BRANCH   9  14
HETATM   14  C   UNL     1     -42.612 -46.599   9.584  1.00  0.00     0.277 C 
BRANCH  14  15
HETATM   15  C   UNL     1     -43.797 -47.402   9.011  1.00  0.00     0.006 C 
HETATM   16  C   UNL     1     -45.095 -46.595   8.993  1.00  0.00     0.011 C 
HETATM   17  C   UNL     1     -43.498 -47.932   7.607  1.00  0.00     0.011 C 
ENDBRANCH  14  15
ENDBRANCH   9  14
ENDBRANCH   7   8
ENDBRANCH   1   7
BRANCH   4  18
HETATM   18  C   UNL     1     -45.316 -51.579  13.515  1.00  0.00     0.105 A 
HETATM   19  C   UNL     1     -45.986 -51.225  14.623  1.00  0.00     0.037 A 
HETATM   20  C   UNL     1     -46.592 -52.203  15.489  1.00  0.00     0.020 A 
HETATM   21  C   UNL     1     -46.471 -53.506  15.213  1.00  0.00     0.094 A 
HETATM   22  N   UNL     1     -45.801 -53.938  14.085  1.00  0.00    -0.327 N 
HETATM   23  C   UNL     1     -45.638 -55.363  13.851  1.00  0.00     0.159 C 
HETATM   24  C   UNL     1     -45.234 -53.050  13.162  1.00  0.00     0.274 A 
HETATM   25  O   UNL     1     -44.664 -53.397  12.126  1.00  0.00    -0.266 OA
ENDBRANCH   4  18
TORSDOF 5
ENDMDL
MODEL 5
REMARK VINA RESULT:      -6.3      1.899      7.633
REMARK  5 active torsions:
REMARK  status: ('A' for Active; 'I' for Inactive)
REMARK    1  A    between atoms: C_2  and  C_4 
REMARK    2  A    between atoms: C_4  and  N_5 
REMARK    3  A    between atoms: C_10  and  C_11 
REMARK    4  A    between atoms: C_11  and  N_12 
REMARK       I    between atoms: N_12  and  C_13 
REMARK       I    between atoms: C_13  and  N_15 
REMARK    5  A    between atoms: N_15  and  C_16 
ROOT
HETATM    1  N   UNL     1     -41.619 -50.031  11.203  1.00  0.00    -0.341 N 
HETATM    2  C   UNL     1     -41.531 -51.041  12.123  1.00  0.00     0.320 C 
HETATM    3  O   UNL     1     -40.629 -51.076  12.955  1.00  0.00    -0.247 OA
HETATM    4  N   UNL     1     -42.531 -51.974  12.008  1.00  0.00    -0.304 N 
HETATM    5  H   UNL     1     -42.446 -49.919  10.635  1.00  0.00     0.164 HD
HETATM    6  H   UNL     1     -42.878 -52.163  11.073  1.00  0.00     0.171 HD
ENDROOT
BRANCH   1   7
HETATM    7  C   UNL     1     -40.589 -49.011  11.149  1.00  0.00     0.160 C 
BRANCH   7   8
HETATM    8  C   UNL     1     -41.047 -47.601  11.587  1.00  0.00     0.240 C 
HETATM    9  N   UNL     1     -42.382 -47.089  11.160  1.00  0.00     0.095 N 
HETATM   10  C   UNL     1     -42.654 -45.843  11.926  1.00  0.00     0.273 C 
HETATM   11  C   UNL     1     -41.583 -44.752  11.771  1.00  0.00     0.030 C 
HETATM   12  C   UNL     1     -40.180 -45.281  12.050  1.00  0.00     0.004 C 
HETATM   13  C   UNL     1     -39.918 -46.589  11.313  1.00  0.00     0.037 C 
BRANCH   9  14
HETATM   14  C   UNL     1     -42.579 -46.830   9.711  1.00  0.00     0.277 C 
BRANCH  14  15
HETATM   15  C   UNL     1     -43.775 -47.534   9.042  1.00  0.00     0.006 C 
HETATM   16  C   UNL     1     -45.046 -46.686   9.074  1.00  0.00     0.011 C 
HETATM   17  C   UNL     1     -43.461 -47.940   7.600  1.00  0.00     0.011 C 
ENDBRANCH  14  15
ENDBRANCH   9  14
ENDBRANCH   7   8
ENDBRANCH   1   7
BRANCH   4  18
HETATM   18  C   UNL     1     -42.778 -52.977  12.935  1.00  0.00     0.105 A 
HETATM   19  C   UNL     1     -41.862 -53.453  13.794  1.00  0.00     0.037 A 
HETATM   20  C   UNL     1     -42.168 -54.514  14.718  1.00  0.00     0.020 A 
HETATM   21  C   UNL     1     -43.384 -55.071  14.718  1.00  0.00     0.094 A 
HETATM   22  N   UNL     1     -44.374 -54.623  13.866  1.00  0.00    -0.327 N 
HETATM   23  C   UNL     1     -45.664 -55.293  13.852  1.00  0.00     0.159 C 
HETATM   24  C   UNL     1     -44.176 -53.558  12.977  1.00  0.00     0.274 A 
HETATM   25  O   UNL     1     -45.046 -53.106  12.232  1.00  0.00    -0.266 OA
ENDBRANCH   4  18
TORSDOF 5
ENDMDL
MODEL 6
REMARK VINA RESULT:      -6.3      1.943      7.801
REMARK  5 active torsions:
REMARK  status: ('A' for Active; 'I' for Inactive)
REMARK    1  A    between atoms: C_2  and  C_4 
REMARK    2  A    between atoms: C_4  and  N_5 
REMARK    3  A    between atoms: C_10  and  C_11 
REMARK    4  A    between atoms: C_11  and  N_12 
REMARK       I    between atoms: N_12  and  C_13 
REMARK       I    between atoms: C_13  and  N_15 
REMARK    5  A    between atoms: N_15  and  C_16 
ROOT
HETATM    1  N   UNL     1     -41.010 -50.590  11.148  1.00  0.00    -0.341 N 
HETATM    2  C   UNL     1     -41.615 -51.269  12.172  1.00  0.00     0.320 C 
HETATM    3  O   UNL     1     -41.652 -50.816  13.311  1.00  0.00    -0.247 OA
HETATM    4  N   UNL     1     -42.153 -52.472  11.786  1.00  0.00    -0.304 N 
HETATM    5  H   UNL     1     -41.126 -50.886  10.191  1.00  0.00     0.164 HD
HETATM    6  H   UNL     1     -41.669 -52.978  11.052  1.00  0.00     0.171 HD
ENDROOT
BRANCH   1   7
HETATM    7  C   UNL     1     -40.327 -49.338  11.417  1.00  0.00     0.160 C 
BRANCH   7   8
HETATM    8  C   UNL     1     -41.038 -48.079  10.869  1.00  0.00     0.240 C 
HETATM    9  N   UNL     1     -40.482 -46.726  11.164  1.00  0.00     0.095 N 
HETATM   10  C   UNL     1     -41.205 -45.744  10.313  1.00  0.00     0.273 C 
HETATM   11  C   UNL     1     -42.731 -45.751  10.489  1.00  0.00     0.030 C 
HETATM   12  C   UNL     1     -43.320 -47.150  10.347  1.00  0.00     0.004 C 
HETATM   13  C   UNL     1     -42.545 -48.170  11.172  1.00  0.00     0.037 C 
BRANCH   9  14
HETATM   14  C   UNL     1     -40.514 -46.271  12.578  1.00  0.00     0.277 C 
BRANCH  14  15
HETATM   15  C   UNL     1     -39.241 -45.586  13.110  1.00  0.00     0.006 C 
HETATM   16  C   UNL     1     -39.307 -44.063  13.000  1.00  0.00     0.011 C 
HETATM   17  C   UNL     1     -38.942 -45.986  14.557  1.00  0.00     0.011 C 
ENDBRANCH  14  15
ENDBRANCH   9  14
ENDBRANCH   7   8
ENDBRANCH   1   7
BRANCH   4  18
HETATM   18  C   UNL     1     -42.984 -53.249  12.581  1.00  0.00     0.105 A 
HETATM   19  C   UNL     1     -44.321 -53.293  12.459  1.00  0.00     0.037 A 
HETATM   20  C   UNL     1     -45.136 -54.099  13.330  1.00  0.00     0.020 A 
HETATM   21  C   UNL     1     -44.567 -54.811  14.309  1.00  0.00     0.094 A 
HETATM   22  N   UNL     1     -43.197 -54.816  14.484  1.00  0.00    -0.327 N 
HETATM   23  C   UNL     1     -42.621 -55.553  15.597  1.00  0.00     0.159 C 
HETATM   24  C   UNL     1     -42.330 -54.105  13.645  1.00  0.00     0.274 A 
HETATM   25  O   UNL     1     -41.102 -54.118  13.746  1.00  0.00    -0.266 OA
ENDBRANCH   4  18
TORSDOF 5
ENDMDL
MODEL 7
REMARK VINA RESULT:      -6.3      2.222      7.192
REMARK  5 active torsions:
REMARK  status: ('A' for Active; 'I' for Inactive)
REMARK    1  A    between atoms: C_2  and  C_4 
REMARK    2  A    between atoms: C_4  and  N_5 
REMARK    3  A    between atoms: C_10  and  C_11 
REMARK    4  A    between atoms: C_11  and  N_12 
REMARK       I    between atoms: N_12  and  C_13 
REMARK       I    between atoms: C_13  and  N_15 
REMARK    5  A    between atoms: N_15  and  C_16 
ROOT
HETATM    1  N   UNL     1     -40.780 -51.114  11.475  1.00  0.00    -0.341 N 
HETATM    2  C   UNL     1     -41.529 -51.834  12.368  1.00  0.00     0.320 C 
HETATM    3  O   UNL     1     -41.124 -52.073  13.501  1.00  0.00    -0.247 OA
HETATM    4  N   UNL     1     -42.739 -52.241  11.863  1.00  0.00    -0.304 N 
HETATM    5  H   UNL     1     -41.183 -50.783  10.611  1.00  0.00     0.164 HD
HETATM    6  H   UNL     1     -42.773 -52.461  10.872  1.00  0.00     0.171 HD
ENDROOT
BRANCH   1   7
HETATM    7  C   UNL     1     -39.444 -50.682  11.838  1.00  0.00     0.160 C 
BRANCH   7   8
HETATM    8  C   UNL     1     -39.390 -49.459  12.783  1.00  0.00     0.240 C 
HETATM    9  N   UNL     1     -40.211 -48.250  12.479  1.00  0.00     0.095 N 
HETATM   10  C   UNL     1     -40.160 -47.359  13.669  1.00  0.00     0.273 C 
HETATM   11  C   UNL     1     -38.743 -46.954  14.102  1.00  0.00     0.030 C 
HETATM   12  C   UNL     1     -37.828 -48.162  14.273  1.00  0.00     0.004 C 
HETATM   13  C   UNL     1     -37.921 -49.108  13.083  1.00  0.00     0.037 C 
BRANCH   9  14
HETATM   14  C   UNL     1     -39.853 -47.473  11.265  1.00  0.00     0.277 C 
BRANCH  14  15
HETATM   15  C   UNL     1     -40.571 -46.123  11.074  1.00  0.00     0.006 C 
HETATM   16  C   UNL     1     -39.722 -45.113  10.303  1.00  0.00     0.011 C 
HETATM   17  C   UNL     1     -41.927 -46.293  10.384  1.00  0.00     0.011 C 
ENDBRANCH  14  15
ENDBRANCH   9  14
ENDBRANCH   7   8
ENDBRANCH   1   7
BRANCH   4  18
HETATM   18  C   UNL     1     -43.754 -52.807  12.621  1.00  0.00     0.105 A 
HETATM   19  C   UNL     1     -43.959 -54.129  12.742  1.00  0.00     0.037 A 
HETATM   20  C   UNL     1     -45.046 -54.659  13.522  1.00  0.00     0.020 A 
HETATM   21  C   UNL     1     -45.902 -53.829  14.129  1.00  0.00     0.094 A 
HETATM   22  N   UNL     1     -45.744 -52.459  14.050  1.00  0.00    -0.327 N 
HETATM   23  C   UNL     1     -46.729 -51.589  14.671  1.00  0.00     0.159 C 
HETATM   24  C   UNL     1     -44.680 -51.864  13.360  1.00  0.00     0.274 A 
HETATM   25  O   UNL     1     -44.485 -50.649  13.302  1.00  0.00    -0.266 OA
ENDBRANCH   4  18
TORSDOF 5
ENDMDL
MODEL 8
REMARK VINA RESULT:      -6.2      2.187      7.749
REMARK  5 active torsions:
REMARK  status: ('A' for Active; 'I' for Inactive)
REMARK    1  A    between atoms: C_2  and  C_4 
REMARK    2  A    between atoms: C_4  and  N_5 
REMARK    3  A    between atoms: C_10  and  C_11 
REMARK    4  A    between atoms: C_11  and  N_12 
REMARK       I    between atoms: N_12  and  C_13 
REMARK       I    between atoms: C_13  and  N_15 
REMARK    5  A    between atoms: N_15  and  C_16 
ROOT
HETATM    1  N   UNL     1     -42.579 -48.664  11.437  1.00  0.00    -0.341 N 
HETATM    2  C   UNL     1     -42.407 -49.673  12.345  1.00  0.00     0.320 C 
HETATM    3  O   UNL     1     -42.567 -49.491  13.548  1.00  0.00    -0.247 OA
HETATM    4  N   UNL     1     -42.046 -50.868  11.773  1.00  0.00    -0.304 N 
HETATM    5  H   UNL     1     -42.607 -48.858  10.447  1.00  0.00     0.164 HD
HETATM    6  H   UNL     1     -41.464 -50.823  10.943  1.00  0.00     0.171 HD
ENDROOT
BRANCH   1   7
HETATM    7  C   UNL     1     -42.885 -47.323  11.898  1.00  0.00     0.160 C 
BRANCH   7   8
HETATM    8  C   UNL     1     -41.947 -46.219  11.354  1.00  0.00     0.240 C 
HETATM    9  N   UNL     1     -40.472 -46.439  11.342  1.00  0.00     0.095 N 
HETATM   10  C   UNL     1     -39.858 -45.344  10.544  1.00  0.00     0.273 C 
HETATM   11  C   UNL     1     -40.189 -43.929  11.043  1.00  0.00     0.030 C 
HETATM   12  C   UNL     1     -41.689 -43.717  11.217  1.00  0.00     0.004 C 
HETATM   13  C   UNL     1     -42.331 -44.866  11.983  1.00  0.00     0.037 C 
BRANCH   9  14
HETATM   14  C   UNL     1     -39.788 -46.534  12.657  1.00  0.00     0.277 C 
BRANCH  14  15
HETATM   15  C   UNL     1     -39.253 -47.923  13.057  1.00  0.00     0.006 C 
HETATM   16  C   UNL     1     -38.821 -48.753  11.849  1.00  0.00     0.011 C 
HETATM   17  C   UNL     1     -38.098 -47.822  14.055  1.00  0.00     0.011 C 
ENDBRANCH  14  15
ENDBRANCH   9  14
ENDBRANCH   7   8
ENDBRANCH   1   7
BRANCH   4  18
HETATM   18  C   UNL     1     -42.006 -52.080  12.448  1.00  0.00     0.105 A 
HETATM   19  C   UNL     1     -43.093 -52.792  12.786  1.00  0.00     0.037 A 
HETATM   20  C   UNL     1     -42.993 -54.032  13.510  1.00  0.00     0.020 A 
HETATM   21  C   UNL     1     -41.794 -54.491  13.887  1.00  0.00     0.094 A 
HETATM   22  N   UNL     1     -40.636 -53.812  13.565  1.00  0.00    -0.327 N 
HETATM   23  C   UNL     1     -39.357 -54.310  14.045  1.00  0.00     0.159 C 
HETATM   24  C   UNL     1     -40.643 -52.629  12.814  1.00  0.00     0.274 A 
HETATM   25  O   UNL     1     -39.629 -52.019  12.474  1.00  0.00    -0.266 OA
ENDBRANCH   4  18
TORSDOF 5
ENDMDL
MODEL 9
REMARK VINA RESULT:      -5.9      1.933      7.884
REMARK  5 active torsions:
REMARK  status: ('A' for Active; 'I' for Inactive)
REMARK    1  A    between atoms: C_2  and  C_4 
REMARK    2  A    between atoms: C_4  and  N_5 
REMARK    3  A    between atoms: C_10  and  C_11 
REMARK    4  A    between atoms: C_11  and  N_12 
REMARK       I    between atoms: N_12  and  C_13 
REMARK       I    between atoms: C_13  and  N_15 
REMARK    5  A    between atoms: N_15  and  C_16 
ROOT
HETATM    1  N   UNL     1     -42.979 -48.911  11.653  1.00  0.00    -0.341 N 
HETATM    2  C   UNL     1     -42.855 -49.860  12.632  1.00  0.00     0.320 C 
HETATM    3  O   UNL     1     -42.956 -49.575  13.821  1.00  0.00    -0.247 OA
HETATM    4  N   UNL     1     -42.612 -51.120  12.143  1.00  0.00    -0.304 N 
HETATM    5  H   UNL     1     -43.060 -49.176  10.683  1.00  0.00     0.164 HD
HETATM    6  H   UNL     1     -42.060 -51.185  11.295  1.00  0.00     0.171 HD
ENDROOT
BRANCH   1   7
HETATM    7  C   UNL     1     -43.160 -47.518  12.017  1.00  0.00     0.160 C 
BRANCH   7   8
HETATM    8  C   UNL     1     -42.077 -46.558  11.472  1.00  0.00     0.240 C 
HETATM    9  N   UNL     1     -40.645 -46.981  11.468  1.00  0.00     0.095 N 
HETATM   10  C   UNL     1     -39.883 -45.986  10.667  1.00  0.00     0.273 C 
HETATM   11  C   UNL     1     -40.016 -44.536  11.158  1.00  0.00     0.030 C 
HETATM   12  C   UNL     1     -41.473 -44.117  11.324  1.00  0.00     0.004 C 
HETATM   13  C   UNL     1     -42.271 -45.162  12.093  1.00  0.00     0.037 C 
BRANCH   9  14
HETATM   14  C   UNL     1     -39.986 -47.163  12.786  1.00  0.00     0.277 C 
BRANCH  14  15
HETATM   15  C   UNL     1     -39.361 -48.545  13.059  1.00  0.00     0.006 C 
HETATM   16  C   UNL     1     -39.289 -49.412  11.803  1.00  0.00     0.011 C 
HETATM   17  C   UNL     1     -37.969 -48.426  13.685  1.00  0.00     0.011 C 
ENDBRANCH  14  15
ENDBRANCH   9  14
ENDBRANCH   7   8
ENDBRANCH   1   7
BRANCH   4  18
HETATM   18  C   UNL     1     -42.644 -52.277  12.909  1.00  0.00     0.105 A 
HETATM   19  C   UNL     1     -41.574 -52.800  13.530  1.00  0.00     0.037 A 
HETATM   20  C   UNL     1     -41.661 -54.020  14.291  1.00  0.00     0.020 A 
HETATM   21  C   UNL     1     -42.822 -54.678  14.371  1.00  0.00     0.094 A 
HETATM   22  N   UNL     1     -43.962 -54.191  13.761  1.00  0.00    -0.327 N 
HETATM   23  C   UNL     1     -45.191 -54.964  13.818  1.00  0.00     0.159 C 
HETATM   24  C   UNL     1     -43.976 -52.983  13.051  1.00  0.00     0.274 A 
HETATM   25  O   UNL     1     -44.981 -52.498  12.530  1.00  0.00    -0.266 OA
ENDBRANCH   4  18
TORSDOF 5
ENDMDL
