MODEL 1
REMARK VINA RESULT:      -6.3      0.000      0.000
REMARK  5 active torsions:
REMARK  status: ('A' for Active; 'I' for Inactive)
REMARK    1  A    between atoms: C_2  and  N_3 
REMARK    2  A    between atoms: C_7  and  C_8 
REMARK    3  A    between atoms: C_8  and  N_9 
REMARK       I    between atoms: N_9  and  C_10 
REMARK    4  A    between atoms: C_10  and  C_12 
REMARK    5  A    between atoms: C_12  and  N_13 
ROOT
HETATM    1  N   UNL     1     -42.346 -50.630  12.122  1.00  0.00    -0.359 N 
HETATM    2  C   UNL     1     -41.435 -49.763  11.551  1.00  0.00     0.237 C 
HETATM    3  O   UNL     1     -40.369 -50.135  11.061  1.00  0.00    -0.272 OA
HETATM    4  H   UNL     1     -43.267 -50.268  12.357  1.00  0.00     0.162 HD
ENDROOT
BRANCH   1   5
HETATM    5  C   UNL     1     -42.112 -52.056  12.219  1.00  0.00     0.129 C 
BRANCH   5   6
HETATM    6  C   UNL     1     -43.113 -52.744  13.160  1.00  0.00     0.032 C 
HETATM    7  C   UNL     1     -42.566 -54.089  13.660  1.00  0.00     0.010 C 
HETATM    8  C   UNL     1     -43.605 -54.833  14.500  1.00  0.00     0.031 C 
HETATM    9  C   UNL     1     -44.951 -54.923  13.778  1.00  0.00     0.272 C 
HETATM   10  N   UNL     1     -45.476 -53.624  13.334  1.00  0.00     0.088 N 
HETATM   11  C   UNL     1     -44.479 -52.954  12.475  1.00  0.00     0.278 C 
BRANCH  10  12
HETATM   12  C   UNL     1     -45.907 -52.737  14.427  1.00  0.00     0.268 C 
HETATM   13  C   UNL     1     -46.587 -51.456  13.959  1.00  0.00     0.037 C 
ENDBRANCH  10  12
ENDBRANCH   5   6
ENDBRANCH   1   5
BRANCH   2  14
HETATM   14  C   UNL     1     -41.825 -48.307  11.617  1.00  0.00     0.250 C 
BRANCH  14  15
HETATM   15  N   UNL     1     -42.740 -47.972  10.551  1.00  0.00    -0.294 N 
HETATM   16  C   UNL     1     -44.040 -47.576  10.681  1.00  0.00     0.118 A 
HETATM   17  C   UNL     1     -44.507 -47.347   9.405  1.00  0.00    -0.028 A 
HETATM   18  C   UNL     1     -45.844 -46.865   8.994  1.00  0.00     0.051 C 
HETATM   19  C   UNL     1     -43.409 -47.668   8.575  1.00  0.00     0.115 A 
HETATM   20  N   UNL     1     -42.334 -48.058   9.267  1.00  0.00    -0.309 N 
ATOM     21  HN  UNL     1     -41.425 -48.351   8.910  1.00  0.00     0.186 HD
ENDBRANCH  14  15
ENDBRANCH   2  14
TORSDOF 5
ENDMDL
MODEL 2
REMARK VINA RESULT:      -5.8      1.194      2.234
REMARK  5 active torsions:
REMARK  status: ('A' for Active; 'I' for Inactive)
REMARK    1  A    between atoms: C_2  and  N_3 
REMARK    2  A    between atoms: C_7  and  C_8 
REMARK    3  A    between atoms: C_8  and  N_9 
REMARK       I    between atoms: N_9  and  C_10 
REMARK    4  A    between atoms: C_10  and  C_12 
REMARK    5  A    between atoms: C_12  and  N_13 
ROOT
HETATM    1  N   UNL     1     -42.279 -50.003  11.905  1.00  0.00    -0.359 N 
HETATM    2  C   UNL     1     -41.324 -49.302  11.194  1.00  0.00     0.237 C 
HETATM    3  O   UNL     1     -40.260 -49.800  10.828  1.00  0.00    -0.272 OA
HETATM    4  H   UNL     1     -43.193 -49.572  12.029  1.00  0.00     0.162 HD
ENDROOT
BRANCH   1   5
HETATM    5  C   UNL     1     -42.098 -51.382  12.307  1.00  0.00     0.129 C 
BRANCH   5   6
HETATM    6  C   UNL     1     -43.249 -51.883  13.194  1.00  0.00     0.032 C 
HETATM    7  C   UNL     1     -44.358 -50.827  13.307  1.00  0.00     0.010 C 
HETATM    8  C   UNL     1     -45.448 -51.271  14.283  1.00  0.00     0.031 C 
HETATM    9  C   UNL     1     -44.857 -51.717  15.621  1.00  0.00     0.272 C 
HETATM   10  N   UNL     1     -43.819 -52.750  15.498  1.00  0.00     0.088 N 
HETATM   11  C   UNL     1     -42.749 -52.273  14.600  1.00  0.00     0.278 C 
BRANCH  10  12
HETATM   12  C   UNL     1     -44.319 -54.065  15.064  1.00  0.00     0.268 C 
HETATM   13  C   UNL     1     -43.246 -55.145  14.984  1.00  0.00     0.037 C 
ENDBRANCH  10  12
ENDBRANCH   5   6
ENDBRANCH   1   5
BRANCH   2  14
HETATM   14  C   UNL     1     -41.664 -47.854  10.940  1.00  0.00     0.250 C 
BRANCH  14  15
HETATM   15  N   UNL     1     -42.802 -47.741  10.057  1.00  0.00    -0.294 N 
HETATM   16  C   UNL     1     -44.086 -47.442  10.409  1.00  0.00     0.118 A 
HETATM   17  C   UNL     1     -44.816 -47.425   9.240  1.00  0.00    -0.028 A 
HETATM   18  C   UNL     1     -46.253 -47.115   9.065  1.00  0.00     0.051 C 
HETATM   19  C   UNL     1     -43.874 -47.760   8.242  1.00  0.00     0.115 A 
HETATM   20  N   UNL     1     -42.648 -47.963   8.735  1.00  0.00    -0.309 N 
ATOM     21  HN  UNL     1     -41.800 -48.224   8.232  1.00  0.00     0.186 HD
ENDBRANCH  14  15
ENDBRANCH   2  14
TORSDOF 5
ENDMDL
MODEL 3
REMARK VINA RESULT:      -5.7      1.575      6.319
REMARK  5 active torsions:
REMARK  status: ('A' for Active; 'I' for Inactive)
REMARK    1  A    between atoms: C_2  and  N_3 
REMARK    2  A    between atoms: C_7  and  C_8 
REMARK    3  A    between atoms: C_8  and  N_9 
REMARK       I    between atoms: N_9  and  C_10 
REMARK    4  A    between atoms: C_10  and  C_12 
REMARK    5  A    between atoms: C_12  and  N_13 
ROOT
HETATM    1  N   UNL     1     -42.111 -50.919  11.843  1.00  0.00    -0.359 N 
HETATM    2  C   UNL     1     -42.155 -51.993  12.711  1.00  0.00     0.237 C 
HETATM    3  O   UNL     1     -41.347 -52.150  13.626  1.00  0.00    -0.272 OA
HETATM    4  H   UNL     1     -42.903 -50.777  11.220  1.00  0.00     0.162 HD
ENDROOT
BRANCH   1   5
HETATM    5  C   UNL     1     -41.091 -49.895  11.918  1.00  0.00     0.129 C 
BRANCH   5   6
HETATM    6  C   UNL     1     -41.466 -48.643  11.108  1.00  0.00     0.032 C 
HETATM    7  C   UNL     1     -40.474 -47.500  11.368  1.00  0.00     0.010 C 
HETATM    8  C   UNL     1     -40.909 -46.216  10.660  1.00  0.00     0.031 C 
HETATM    9  C   UNL     1     -42.368 -45.873  10.965  1.00  0.00     0.272 C 
HETATM   10  N   UNL     1     -43.308 -46.967  10.681  1.00  0.00     0.088 N 
HETATM   11  C   UNL     1     -42.902 -48.176  11.425  1.00  0.00     0.278 C 
BRANCH  10  12
HETATM   12  C   UNL     1     -43.480 -47.265   9.250  1.00  0.00     0.268 C 
HETATM   13  C   UNL     1     -44.918 -47.561   8.842  1.00  0.00     0.037 C 
ENDBRANCH  10  12
ENDBRANCH   5   6
ENDBRANCH   1   5
BRANCH   2  14
HETATM   14  C   UNL     1     -43.245 -52.993  12.420  1.00  0.00     0.250 C 
BRANCH  14  15
HETATM   15  N   UNL     1     -44.523 -52.512  12.892  1.00  0.00    -0.294 N 
HETATM   16  C   UNL     1     -44.878 -52.265  14.186  1.00  0.00     0.118 A 
HETATM   17  C   UNL     1     -46.177 -51.803  14.153  1.00  0.00    -0.028 A 
HETATM   18  C   UNL     1     -47.017 -51.357  15.286  1.00  0.00     0.051 C 
HETATM   19  C   UNL     1     -46.519 -51.843  12.782  1.00  0.00     0.115 A 
HETATM   20  N   UNL     1     -45.519 -52.283  12.012  1.00  0.00    -0.309 N 
ATOM     21  HN  UNL     1     -45.511 -52.415  11.000  1.00  0.00     0.186 HD
ENDBRANCH  14  15
ENDBRANCH   2  14
TORSDOF 5
ENDMDL
MODEL 4
REMARK VINA RESULT:      -5.4      2.956      4.152
REMARK  5 active torsions:
REMARK  status: ('A' for Active; 'I' for Inactive)
REMARK    1  A    between atoms: C_2  and  N_3 
REMARK    2  A    between atoms: C_7  and  C_8 
REMARK    3  A    between atoms: C_8  and  N_9 
REMARK       I    between atoms: N_9  and  C_10 
REMARK    4  A    between atoms: C_10  and  C_12 
REMARK    5  A    between atoms: C_12  and  N_13 
ROOT
HETATM    1  N   UNL     1     -42.697 -52.103  12.230  1.00  0.00    -0.359 N 
HETATM    2  C   UNL     1     -41.373 -51.799  11.980  1.00  0.00     0.237 C 
HETATM    3  O   UNL     1     -40.455 -52.600  12.156  1.00  0.00    -0.272 OA
HETATM    4  H   UNL     1     -43.406 -51.447  11.909  1.00  0.00     0.162 HD
ENDROOT
BRANCH   1   5
HETATM    5  C   UNL     1     -43.120 -53.387  12.749  1.00  0.00     0.129 C 
BRANCH   5   6
HETATM    6  C   UNL     1     -44.256 -53.252  13.775  1.00  0.00     0.032 C 
HETATM    7  C   UNL     1     -44.924 -54.608  14.040  1.00  0.00     0.010 C 
HETATM    8  C   UNL     1     -46.131 -54.460  14.968  1.00  0.00     0.031 C 
HETATM    9  C   UNL     1     -47.083 -53.367  14.481  1.00  0.00     0.272 C 
HETATM   10  N   UNL     1     -46.434 -52.067  14.263  1.00  0.00     0.088 N 
HETATM   11  C   UNL     1     -45.312 -52.225  13.316  1.00  0.00     0.278 C 
BRANCH  10  12
HETATM   12  C   UNL     1     -45.989 -51.394  15.495  1.00  0.00     0.268 C 
HETATM   13  C   UNL     1     -47.091 -51.190  16.527  1.00  0.00     0.037 C 
ENDBRANCH  10  12
ENDBRANCH   5   6
ENDBRANCH   1   5
BRANCH   2  14
HETATM   14  C   UNL     1     -41.128 -50.384  11.519  1.00  0.00     0.250 C 
BRANCH  14  15
HETATM   15  N   UNL     1     -39.829 -49.921  11.950  1.00  0.00    -0.294 N 
HETATM   16  C   UNL     1     -39.543 -49.227  13.089  1.00  0.00     0.118 A 
HETATM   17  C   UNL     1     -38.180 -49.022  13.089  1.00  0.00    -0.028 A 
HETATM   18  C   UNL     1     -37.356 -48.353  14.121  1.00  0.00     0.051 C 
HETATM   19  C   UNL     1     -37.745 -49.610  11.880  1.00  0.00     0.115 A 
HETATM   20  N   UNL     1     -38.746 -50.150  11.178  1.00  0.00    -0.309 N 
ATOM     21  HN  UNL     1     -38.703 -50.621  10.274  1.00  0.00     0.186 HD
ENDBRANCH  14  15
ENDBRANCH   2  14
TORSDOF 5
ENDMDL
MODEL 5
REMARK VINA RESULT:      -5.3      2.097      2.544
REMARK  5 active torsions:
REMARK  status: ('A' for Active; 'I' for Inactive)
REMARK    1  A    between atoms: C_2  and  N_3 
REMARK    2  A    between atoms: C_7  and  C_8 
REMARK    3  A    between atoms: C_8  and  N_9 
REMARK       I    between atoms: N_9  and  C_10 
REMARK    4  A    between atoms: C_10  and  C_12 
REMARK    5  A    between atoms: C_12  and  N_13 
ROOT
HETATM    1  N   UNL     1     -40.233 -52.025  12.688  1.00  0.00    -0.359 N 
HETATM    2  C   UNL     1     -39.295 -51.040  12.931  1.00  0.00     0.237 C 
HETATM    3  O   UNL     1     -38.689 -50.940  13.998  1.00  0.00    -0.272 OA
HETATM    4  H   UNL     1     -40.569 -52.139  11.734  1.00  0.00     0.162 HD
ENDROOT
BRANCH   1   5
HETATM    5  C   UNL     1     -40.606 -53.012  13.680  1.00  0.00     0.129 C 
BRANCH   5   6
HETATM    6  C   UNL     1     -42.130 -53.118  13.847  1.00  0.00     0.032 C 
HETATM    7  C   UNL     1     -42.539 -54.528  14.294  1.00  0.00     0.010 C 
HETATM    8  C   UNL     1     -44.061 -54.675  14.346  1.00  0.00     0.031 C 
HETATM    9  C   UNL     1     -44.715 -54.206  13.045  1.00  0.00     0.272 C 
HETATM   10  N   UNL     1     -44.338 -52.842  12.648  1.00  0.00     0.088 N 
HETATM   11  C   UNL     1     -42.868 -52.745  12.544  1.00  0.00     0.278 C 
BRANCH  10  12
HETATM   12  C   UNL     1     -44.873 -51.784  13.520  1.00  0.00     0.268 C 
HETATM   13  C   UNL     1     -46.384 -51.607  13.431  1.00  0.00     0.037 C 
ENDBRANCH  10  12
ENDBRANCH   5   6
ENDBRANCH   1   5
BRANCH   2  14
HETATM   14  C   UNL     1     -39.104 -50.060  11.801  1.00  0.00     0.250 C 
BRANCH  14  15
HETATM   15  N   UNL     1     -40.284 -49.247  11.621  1.00  0.00    -0.294 N 
HETATM   16  C   UNL     1     -40.911 -48.492  12.569  1.00  0.00     0.118 A 
HETATM   17  C   UNL     1     -41.973 -47.879  11.939  1.00  0.00    -0.028 A 
HETATM   18  C   UNL     1     -42.948 -46.924  12.512  1.00  0.00     0.051 C 
HETATM   19  C   UNL     1     -41.911 -48.363  10.613  1.00  0.00     0.115 A 
HETATM   20  N   UNL     1     -40.890 -49.204  10.417  1.00  0.00    -0.309 N 
ATOM     21  HN  UNL     1     -40.632 -49.695   9.561  1.00  0.00     0.186 HD
ENDBRANCH  14  15
ENDBRANCH   2  14
TORSDOF 5
ENDMDL
MODEL 6
REMARK VINA RESULT:      -5.3      1.936      3.236
REMARK  5 active torsions:
REMARK  status: ('A' for Active; 'I' for Inactive)
REMARK    1  A    between atoms: C_2  and  N_3 
REMARK    2  A    between atoms: C_7  and  C_8 
REMARK    3  A    between atoms: C_8  and  N_9 
REMARK       I    between atoms: N_9  and  C_10 
REMARK    4  A    between atoms: C_10  and  C_12 
REMARK    5  A    between atoms: C_12  and  N_13 
ROOT
HETATM    1  N   UNL     1     -41.635 -48.544  10.315  1.00  0.00    -0.359 N 
HETATM    2  C   UNL     1     -41.869 -47.189  10.441  1.00  0.00     0.237 C 
HETATM    3  O   UNL     1     -41.575 -46.548  11.451  1.00  0.00    -0.272 OA
HETATM    4  H   UNL     1     -41.757 -48.965   9.397  1.00  0.00     0.162 HD
ENDROOT
BRANCH   1   5
HETATM    5  C   UNL     1     -41.046 -49.338  11.373  1.00  0.00     0.129 C 
BRANCH   5   6
HETATM    6  C   UNL     1     -42.083 -50.228  12.076  1.00  0.00     0.032 C 
HETATM    7  C   UNL     1     -42.823 -49.451  13.174  1.00  0.00     0.010 C 
HETATM    8  C   UNL     1     -43.770 -50.362  13.956  1.00  0.00     0.031 C 
HETATM    9  C   UNL     1     -43.060 -51.626  14.442  1.00  0.00     0.272 C 
HETATM   10  N   UNL     1     -42.383 -52.375  13.373  1.00  0.00     0.088 N 
HETATM   11  C   UNL     1     -41.430 -51.491  12.674  1.00  0.00     0.278 C 
BRANCH  10  12
HETATM   12  C   UNL     1     -43.294 -53.025  12.416  1.00  0.00     0.268 C 
HETATM   13  C   UNL     1     -44.229 -54.052  13.042  1.00  0.00     0.037 C 
ENDBRANCH  10  12
ENDBRANCH   5   6
ENDBRANCH   1   5
BRANCH   2  14
HETATM   14  C   UNL     1     -42.563 -46.556   9.261  1.00  0.00     0.250 C 
BRANCH  14  15
HETATM   15  N   UNL     1     -43.875 -47.129   9.069  1.00  0.00    -0.294 N 
HETATM   16  C   UNL     1     -44.278 -47.925   8.037  1.00  0.00     0.118 A 
HETATM   17  C   UNL     1     -45.596 -48.246   8.284  1.00  0.00    -0.028 A 
HETATM   18  C   UNL     1     -46.489 -49.117   7.488  1.00  0.00     0.051 C 
HETATM   19  C   UNL     1     -45.897 -47.559   9.482  1.00  0.00     0.115 A 
HETATM   20  N   UNL     1     -44.856 -46.870   9.958  1.00  0.00    -0.309 N 
ATOM     21  HN  UNL     1     -44.813 -46.287  10.794  1.00  0.00     0.186 HD
ENDBRANCH  14  15
ENDBRANCH   2  14
TORSDOF 5
ENDMDL
MODEL 7
REMARK VINA RESULT:      -5.2      2.038      2.986
REMARK  5 active torsions:
REMARK  status: ('A' for Active; 'I' for Inactive)
REMARK    1  A    between atoms: C_2  and  N_3 
REMARK    2  A    between atoms: C_7  and  C_8 
REMARK    3  A    between atoms: C_8  and  N_9 
REMARK       I    between atoms: N_9  and  C_10 
REMARK    4  A    between atoms: C_10  and  C_12 
REMARK    5  A    between atoms: C_12  and  N_13 
ROOT
HETATM    1  N   UNL     1     -41.340 -48.418  11.861  1.00  0.00    -0.359 N 
HETATM    2  C   UNL     1     -41.183 -47.216  11.197  1.00  0.00     0.237 C 
HETATM    3  O   UNL     1     -40.090 -46.799  10.815  1.00  0.00    -0.272 OA
HETATM    4  H   UNL     1     -42.286 -48.765  11.999  1.00  0.00     0.162 HD
ENDROOT
BRANCH   1   5
HETATM    5  C   UNL     1     -40.226 -49.281  12.190  1.00  0.00     0.129 C 
BRANCH   5   6
HETATM    6  C   UNL     1     -40.682 -50.587  12.858  1.00  0.00     0.032 C 
HETATM    7  C   UNL     1     -39.565 -51.182  13.728  1.00  0.00     0.010 C 
HETATM    8  C   UNL     1     -39.971 -52.541  14.299  1.00  0.00     0.031 C 
HETATM    9  C   UNL     1     -40.491 -53.477  13.206  1.00  0.00     0.272 C 
HETATM   10  N   UNL     1     -41.581 -52.905  12.404  1.00  0.00     0.088 N 
HETATM   11  C   UNL     1     -41.143 -51.624  11.813  1.00  0.00     0.278 C 
BRANCH  10  12
HETATM   12  C   UNL     1     -42.851 -52.739  13.131  1.00  0.00     0.268 C 
HETATM   13  C   UNL     1     -44.037 -53.446  12.486  1.00  0.00     0.037 C 
ENDBRANCH  10  12
ENDBRANCH   5   6
ENDBRANCH   1   5
BRANCH   2  14
HETATM   14  C   UNL     1     -42.454 -46.424  11.019  1.00  0.00     0.250 C 
BRANCH  14  15
HETATM   15  N   UNL     1     -43.261 -46.980   9.958  1.00  0.00    -0.294 N 
HETATM   16  C   UNL     1     -44.565 -47.373  10.042  1.00  0.00     0.118 A 
HETATM   17  C   UNL     1     -44.920 -47.817   8.786  1.00  0.00    -0.028 A 
HETATM   18  C   UNL     1     -46.237 -48.315   8.331  1.00  0.00     0.051 C 
HETATM   19  C   UNL     1     -43.736 -47.677   8.026  1.00  0.00     0.115 A 
HETATM   20  N   UNL     1     -42.721 -47.177   8.738  1.00  0.00    -0.309 N 
ATOM     21  HN  UNL     1     -41.766 -46.990   8.432  1.00  0.00     0.186 HD
ENDBRANCH  14  15
ENDBRANCH   2  14
TORSDOF 5
ENDMDL
MODEL 8
REMARK VINA RESULT:      -5.2      3.298      5.222
REMARK  5 active torsions:
REMARK  status: ('A' for Active; 'I' for Inactive)
REMARK    1  A    between atoms: C_2  and  N_3 
REMARK    2  A    between atoms: C_7  and  C_8 
REMARK    3  A    between atoms: C_8  and  N_9 
REMARK       I    between atoms: N_9  and  C_10 
REMARK    4  A    between atoms: C_10  and  C_12 
REMARK    5  A    between atoms: C_12  and  N_13 
ROOT
HETATM    1  N   UNL     1     -41.906 -49.703  11.378  1.00  0.00    -0.359 N 
HETATM    2  C   UNL     1     -42.517 -48.476  11.549  1.00  0.00     0.237 C 
HETATM    3  O   UNL     1     -43.084 -48.148  12.592  1.00  0.00    -0.272 OA
HETATM    4  H   UNL     1     -41.324 -49.835  10.553  1.00  0.00     0.162 HD
ENDROOT
BRANCH   1   5
HETATM    5  C   UNL     1     -41.904 -50.725  12.403  1.00  0.00     0.129 C 
BRANCH   5   6
HETATM    6  C   UNL     1     -40.479 -51.126  12.818  1.00  0.00     0.032 C 
HETATM    7  C   UNL     1     -40.499 -52.018  14.067  1.00  0.00     0.010 C 
HETATM    8  C   UNL     1     -39.081 -52.321  14.555  1.00  0.00     0.031 C 
HETATM    9  C   UNL     1     -38.251 -51.045  14.698  1.00  0.00     0.272 C 
HETATM   10  N   UNL     1     -38.217 -50.218  13.484  1.00  0.00     0.088 N 
HETATM   11  C   UNL     1     -39.595 -49.887  13.069  1.00  0.00     0.278 C 
BRANCH  10  12
HETATM   12  C   UNL     1     -37.462 -50.810  12.366  1.00  0.00     0.268 C 
HETATM   13  C   UNL     1     -37.370 -49.918  11.134  1.00  0.00     0.037 C 
ENDBRANCH  10  12
ENDBRANCH   5   6
ENDBRANCH   1   5
BRANCH   2  14
HETATM   14  C   UNL     1     -42.480 -47.578  10.338  1.00  0.00     0.250 C 
BRANCH  14  15
HETATM   15  N   UNL     1     -41.584 -46.465  10.550  1.00  0.00    -0.294 N 
HETATM   16  C   UNL     1     -41.932 -45.172  10.812  1.00  0.00     0.118 A 
HETATM   17  C   UNL     1     -40.753 -44.473  10.960  1.00  0.00    -0.028 A 
HETATM   18  C   UNL     1     -40.575 -43.042  11.291  1.00  0.00     0.051 C 
HETATM   19  C   UNL     1     -39.750 -45.442  10.734  1.00  0.00     0.115 A 
HETATM   20  N   UNL     1     -40.250 -46.654  10.474  1.00  0.00    -0.309 N 
ATOM     21  HN  UNL     1     -39.745 -47.516  10.268  1.00  0.00     0.186 HD
ENDBRANCH  14  15
ENDBRANCH   2  14
TORSDOF 5
ENDMDL
MODEL 9
REMARK VINA RESULT:      -5.1      3.471      4.212
REMARK  5 active torsions:
REMARK  status: ('A' for Active; 'I' for Inactive)
REMARK    1  A    between atoms: C_2  and  N_3 
REMARK    2  A    between atoms: C_7  and  C_8 
REMARK    3  A    between atoms: C_8  and  N_9 
REMARK       I    between atoms: N_9  and  C_10 
REMARK    4  A    between atoms: C_10  and  C_12 
REMARK    5  A    between atoms: C_12  and  N_13 
ROOT
HETATM    1  N   UNL     1     -40.277 -51.374  12.802  1.00  0.00    -0.359 N 
HETATM    2  C   UNL     1     -39.010 -50.930  12.475  1.00  0.00     0.237 C 
HETATM    3  O   UNL     1     -37.989 -51.568  12.732  1.00  0.00    -0.272 OA
HETATM    4  H   UNL     1     -41.073 -50.872  12.415  1.00  0.00     0.162 HD
ENDROOT
BRANCH   1   5
HETATM    5  C   UNL     1     -40.512 -52.620  13.502  1.00  0.00     0.129 C 
BRANCH   5   6
HETATM    6  C   UNL     1     -42.009 -52.876  13.740  1.00  0.00     0.032 C 
HETATM    7  C   UNL     1     -42.258 -54.330  14.165  1.00  0.00     0.010 C 
HETATM    8  C   UNL     1     -43.754 -54.624  14.287  1.00  0.00     0.031 C 
HETATM    9  C   UNL     1     -44.516 -54.188  13.034  1.00  0.00     0.272 C 
HETATM   10  N   UNL     1     -44.291 -52.785  12.659  1.00  0.00     0.088 N 
HETATM   11  C   UNL     1     -42.845 -52.544  12.487  1.00  0.00     0.278 C 
BRANCH  10  12
HETATM   12  C   UNL     1     -44.879 -51.806  13.588  1.00  0.00     0.268 C 
HETATM   13  C   UNL     1     -46.381 -51.611  13.421  1.00  0.00     0.037 C 
ENDBRANCH  10  12
ENDBRANCH   5   6
ENDBRANCH   1   5
BRANCH   2  14
HETATM   14  C   UNL     1     -38.968 -49.573  11.820  1.00  0.00     0.250 C 
BRANCH  14  15
HETATM   15  N   UNL     1     -38.713 -48.539  12.796  1.00  0.00    -0.294 N 
HETATM   16  C   UNL     1     -39.405 -47.373  12.955  1.00  0.00     0.118 A 
HETATM   17  C   UNL     1     -38.820 -46.715  14.015  1.00  0.00    -0.028 A 
HETATM   18  C   UNL     1     -39.217 -45.423  14.619  1.00  0.00     0.051 C 
HETATM   19  C   UNL     1     -37.758 -47.563  14.403  1.00  0.00     0.115 A 
HETATM   20  N   UNL     1     -37.683 -48.670  13.658  1.00  0.00    -0.309 N 
ATOM     21  HN  UNL     1     -37.008 -49.432  13.724  1.00  0.00     0.186 HD
ENDBRANCH  14  15
ENDBRANCH   2  14
TORSDOF 5
ENDMDL
