MODEL 1
REMARK VINA RESULT:      -5.5      0.000      0.000
REMARK  4 active torsions:
REMARK  status: ('A' for Active; 'I' for Inactive)
REMARK    1  A    between atoms: C_8  and  C_9 
REMARK    2  A    between atoms: C_9  and  C_10 
REMARK       I    between atoms: C_10  and  N_12 
REMARK    3  A    between atoms: N_12  and  C_13 
REMARK    4  A    between atoms: C_13  and  C_14 
ROOT
HETATM    1  C   UNL     1     -42.539 -49.879  12.732  1.00  0.00     0.222 C 
HETATM    2  O   UNL     1     -41.318 -50.026  12.655  1.00  0.00    -0.273 OA
HETATM    3  N   UNL     1     -43.222 -48.964  11.943  1.00  0.00    -0.358 N 
HETATM    4  H   UNL     1     -44.215 -49.098  11.788  1.00  0.00     0.162 HD
ENDROOT
BRANCH   1   5
HETATM    5  C   UNL     1     -43.370 -50.693  13.704  1.00  0.00     0.146 C 
BRANCH   5   6
HETATM    6  C   UNL     1     -43.847 -52.010  13.178  1.00  0.00     0.006 A 
HETATM    7  C   UNL     1     -43.143 -53.209  12.850  1.00  0.00     0.038 A 
HETATM    8  C   UNL     1     -41.696 -53.525  12.940  1.00  0.00     0.071 C 
HETATM    9  N   UNL     1     -43.973 -54.148  12.382  1.00  0.00    -0.265 N 
HETATM   10  O   UNL     1     -45.224 -53.579  12.360  1.00  0.00    -0.242 OA
ATOM     11  HN  UNL     1     -43.727 -55.096  12.099  1.00  0.00     0.194 HD
HETATM   12  C   UNL     1     -45.150 -52.306  12.820  1.00  0.00     0.081 A 
HETATM   13  C   UNL     1     -46.415 -51.545  12.813  1.00  0.00     0.079 C 
ENDBRANCH   5   6
ENDBRANCH   1   5
BRANCH   3  14
HETATM   14  C   UNL     1     -42.470 -48.280  10.906  1.00  0.00     0.154 C 
BRANCH  14  15
HETATM   15  C   UNL     1     -43.275 -47.573   9.816  1.00  0.00     0.139 C 
HETATM   16  C   UNL     1     -43.076 -46.078   9.659  1.00  0.00     0.035 C 
HETATM   17  C   UNL     1     -44.348 -45.634   8.951  1.00  0.00     0.029 C 
HETATM   18  C   UNL     1     -45.273 -46.837   9.025  1.00  0.00     0.168 C 
HETATM   19  O   UNL     1     -44.693 -47.716  10.001  1.00  0.00    -0.384 OA
ENDBRANCH  14  15
ENDBRANCH   3  14
TORSDOF 4
ENDMDL
MODEL 2
REMARK VINA RESULT:      -5.4      3.350      4.736
REMARK  4 active torsions:
REMARK  status: ('A' for Active; 'I' for Inactive)
REMARK    1  A    between atoms: C_8  and  C_9 
REMARK    2  A    between atoms: C_9  and  C_10 
REMARK       I    between atoms: C_10  and  N_12 
REMARK    3  A    between atoms: N_12  and  C_13 
REMARK    4  A    between atoms: C_13  and  C_14 
ROOT
HETATM    1  C   UNL     1     -42.643 -51.873  12.813  1.00  0.00     0.222 C 
HETATM    2  O   UNL     1     -42.893 -51.318  13.884  1.00  0.00    -0.273 OA
HETATM    3  N   UNL     1     -41.901 -51.253  11.817  1.00  0.00    -0.358 N 
HETATM    4  H   UNL     1     -41.440 -51.829  11.121  1.00  0.00     0.162 HD
ENDROOT
BRANCH   1   5
HETATM    5  C   UNL     1     -43.137 -53.275  12.518  1.00  0.00     0.146 C 
BRANCH   5   6
HETATM    6  C   UNL     1     -44.332 -53.703  13.311  1.00  0.00     0.006 A 
HETATM    7  C   UNL     1     -45.700 -53.297  13.254  1.00  0.00     0.038 A 
HETATM    8  C   UNL     1     -46.372 -52.314  12.368  1.00  0.00     0.071 C 
HETATM    9  N   UNL     1     -46.435 -53.928  14.177  1.00  0.00    -0.265 N 
HETATM   10  O   UNL     1     -45.564 -54.729  14.878  1.00  0.00    -0.242 OA
ATOM     11  HN  UNL     1     -47.439 -53.833  14.330  1.00  0.00     0.194 HD
HETATM   12  C   UNL     1     -44.314 -54.588  14.375  1.00  0.00     0.081 A 
HETATM   13  C   UNL     1     -43.255 -55.356  15.058  1.00  0.00     0.079 C 
ENDBRANCH   5   6
ENDBRANCH   1   5
BRANCH   3  14
HETATM   14  C   UNL     1     -41.294 -49.971  12.133  1.00  0.00     0.154 C 
BRANCH  14  15
HETATM   15  C   UNL     1     -39.817 -49.980  12.525  1.00  0.00     0.139 C 
HETATM   16  C   UNL     1     -38.888 -49.047  11.770  1.00  0.00     0.035 C 
HETATM   17  C   UNL     1     -37.520 -49.679  11.981  1.00  0.00     0.029 C 
HETATM   18  C   UNL     1     -37.811 -51.046  12.577  1.00  0.00     0.168 C 
HETATM   19  O   UNL     1     -39.213 -51.274  12.363  1.00  0.00    -0.384 OA
ENDBRANCH  14  15
ENDBRANCH   3  14
TORSDOF 4
ENDMDL
MODEL 3
REMARK VINA RESULT:      -5.4      2.098      6.777
REMARK  4 active torsions:
REMARK  status: ('A' for Active; 'I' for Inactive)
REMARK    1  A    between atoms: C_8  and  C_9 
REMARK    2  A    between atoms: C_9  and  C_10 
REMARK       I    between atoms: C_10  and  N_12 
REMARK    3  A    between atoms: N_12  and  C_13 
REMARK    4  A    between atoms: C_13  and  C_14 
ROOT
HETATM    1  C   UNL     1     -42.962 -48.587  12.067  1.00  0.00     0.222 C 
HETATM    2  O   UNL     1     -43.111 -47.776  12.982  1.00  0.00    -0.273 OA
HETATM    3  N   UNL     1     -43.253 -49.935  12.223  1.00  0.00    -0.358 N 
HETATM    4  H   UNL     1     -43.440 -50.493  11.397  1.00  0.00     0.162 HD
ENDROOT
BRANCH   1   5
HETATM    5  C   UNL     1     -42.445 -48.156  10.709  1.00  0.00     0.146 C 
BRANCH   5   6
HETATM    6  C   UNL     1     -43.058 -46.903  10.168  1.00  0.00     0.006 A 
HETATM    7  C   UNL     1     -44.258 -46.683   9.423  1.00  0.00     0.038 A 
HETATM    8  C   UNL     1     -45.287 -47.645   8.957  1.00  0.00     0.071 C 
HETATM    9  N   UNL     1     -44.411 -45.389   9.119  1.00  0.00    -0.265 N 
HETATM   10  O   UNL     1     -43.306 -44.743   9.622  1.00  0.00    -0.242 OA
ATOM     11  HN  UNL     1     -45.190 -44.967   8.614  1.00  0.00     0.194 HD
HETATM   12  C   UNL     1     -42.496 -45.641  10.233  1.00  0.00     0.081 A 
HETATM   13  C   UNL     1     -41.239 -45.101  10.787  1.00  0.00     0.079 C 
ENDBRANCH   5   6
ENDBRANCH   1   5
BRANCH   3  14
HETATM   14  C   UNL     1     -43.886 -50.345  13.464  1.00  0.00     0.154 C 
BRANCH  14  15
HETATM   15  C   UNL     1     -44.994 -51.393  13.366  1.00  0.00     0.139 C 
HETATM   16  C   UNL     1     -46.127 -51.310  14.371  1.00  0.00     0.035 C 
HETATM   17  C   UNL     1     -46.694 -52.722  14.368  1.00  0.00     0.029 C 
HETATM   18  C   UNL     1     -45.677 -53.548  13.599  1.00  0.00     0.168 C 
HETATM   19  O   UNL     1     -44.497 -52.733  13.516  1.00  0.00    -0.384 OA
ENDBRANCH  14  15
ENDBRANCH   3  14
TORSDOF 4
ENDMDL
MODEL 4
REMARK VINA RESULT:      -5.3      2.089      3.165
REMARK  4 active torsions:
REMARK  status: ('A' for Active; 'I' for Inactive)
REMARK    1  A    between atoms: C_8  and  C_9 
REMARK    2  A    between atoms: C_9  and  C_10 
REMARK       I    between atoms: C_10  and  N_12 
REMARK    3  A    between atoms: N_12  and  C_13 
REMARK    4  A    between atoms: C_13  and  C_14 
ROOT
HETATM    1  C   UNL     1     -42.564 -52.035  12.817  1.00  0.00     0.222 C 
HETATM    2  O   UNL     1     -42.543 -51.654  13.988  1.00  0.00    -0.273 OA
HETATM    3  N   UNL     1     -41.964 -51.311  11.796  1.00  0.00    -0.358 N 
HETATM    4  H   UNL     1     -41.711 -51.792  10.939  1.00  0.00     0.162 HD
ENDROOT
BRANCH   1   5
HETATM    5  C   UNL     1     -43.255 -53.324  12.421  1.00  0.00     0.146 C 
BRANCH   5   6
HETATM    6  C   UNL     1     -44.436 -53.693  13.263  1.00  0.00     0.006 A 
HETATM    7  C   UNL     1     -45.785 -53.222  13.258  1.00  0.00     0.038 A 
HETATM    8  C   UNL     1     -46.444 -52.211  12.395  1.00  0.00     0.071 C 
HETATM    9  N   UNL     1     -46.511 -53.815  14.213  1.00  0.00    -0.265 N 
HETATM   10  O   UNL     1     -45.651 -54.654  14.883  1.00  0.00    -0.242 OA
ATOM     11  HN  UNL     1     -47.502 -53.673  14.406  1.00  0.00     0.194 HD
HETATM   12  C   UNL     1     -44.417 -54.574  14.329  1.00  0.00     0.081 A 
HETATM   13  C   UNL     1     -43.369 -55.389  14.973  1.00  0.00     0.079 C 
ENDBRANCH   5   6
ENDBRANCH   1   5
BRANCH   3  14
HETATM   14  C   UNL     1     -41.174 -50.152  12.171  1.00  0.00     0.154 C 
BRANCH  14  15
HETATM   15  C   UNL     1     -41.703 -48.782  11.745  1.00  0.00     0.139 C 
HETATM   16  C   UNL     1     -43.165 -48.483  12.018  1.00  0.00     0.035 C 
HETATM   17  C   UNL     1     -43.480 -47.373  11.027  1.00  0.00     0.029 C 
HETATM   18  C   UNL     1     -42.281 -47.334  10.093  1.00  0.00     0.168 C 
HETATM   19  O   UNL     1     -41.561 -48.553  10.334  1.00  0.00    -0.384 OA
ENDBRANCH  14  15
ENDBRANCH   3  14
TORSDOF 4
ENDMDL
MODEL 5
REMARK VINA RESULT:      -5.3      3.416      5.711
REMARK  4 active torsions:
REMARK  status: ('A' for Active; 'I' for Inactive)
REMARK    1  A    between atoms: C_8  and  C_9 
REMARK    2  A    between atoms: C_9  and  C_10 
REMARK       I    between atoms: C_10  and  N_12 
REMARK    3  A    between atoms: N_12  and  C_13 
REMARK    4  A    between atoms: C_13  and  C_14 
ROOT
HETATM    1  C   UNL     1     -42.818 -50.822  12.921  1.00  0.00     0.222 C 
HETATM    2  O   UNL     1     -41.850 -50.133  13.245  1.00  0.00    -0.273 OA
HETATM    3  N   UNL     1     -42.687 -51.949  12.123  1.00  0.00    -0.358 N 
HETATM    4  H   UNL     1     -43.413 -52.657  12.153  1.00  0.00     0.162 HD
ENDROOT
BRANCH   1   5
HETATM    5  C   UNL     1     -44.221 -50.471  13.376  1.00  0.00     0.146 C 
BRANCH   5   6
HETATM    6  C   UNL     1     -45.096 -51.644  13.687  1.00  0.00     0.006 A 
HETATM    7  C   UNL     1     -46.231 -52.184  13.007  1.00  0.00     0.038 A 
HETATM    8  C   UNL     1     -46.897 -51.745  11.756  1.00  0.00     0.071 C 
HETATM    9  N   UNL     1     -46.732 -53.240  13.659  1.00  0.00    -0.265 N 
HETATM   10  O   UNL     1     -45.965 -53.392  14.790  1.00  0.00    -0.242 OA
ATOM     11  HN  UNL     1     -47.524 -53.816  13.374  1.00  0.00     0.194 HD
HETATM   12  C   UNL     1     -45.002 -52.439  14.816  1.00  0.00     0.081 A 
HETATM   13  C   UNL     1     -44.122 -52.445  16.000  1.00  0.00     0.079 C 
ENDBRANCH   5   6
ENDBRANCH   1   5
BRANCH   3  14
HETATM   14  C   UNL     1     -41.341 -52.387  11.797  1.00  0.00     0.154 C 
BRANCH  14  15
HETATM   15  C   UNL     1     -40.725 -53.465  12.690  1.00  0.00     0.139 C 
HETATM   16  C   UNL     1     -41.578 -54.004  13.823  1.00  0.00     0.035 C 
HETATM   17  C   UNL     1     -40.548 -54.575  14.787  1.00  0.00     0.029 C 
HETATM   18  C   UNL     1     -39.211 -54.065  14.274  1.00  0.00     0.168 C 
HETATM   19  O   UNL     1     -39.525 -53.018  13.342  1.00  0.00    -0.384 OA
ENDBRANCH  14  15
ENDBRANCH   3  14
TORSDOF 4
ENDMDL
MODEL 6
REMARK VINA RESULT:      -5.3      3.549      4.663
REMARK  4 active torsions:
REMARK  status: ('A' for Active; 'I' for Inactive)
REMARK    1  A    between atoms: C_8  and  C_9 
REMARK    2  A    between atoms: C_9  and  C_10 
REMARK       I    between atoms: C_10  and  N_12 
REMARK    3  A    between atoms: N_12  and  C_13 
REMARK    4  A    between atoms: C_13  and  C_14 
ROOT
HETATM    1  C   UNL     1     -42.808 -51.863  12.676  1.00  0.00     0.222 C 
HETATM    2  O   UNL     1     -43.304 -51.125  13.528  1.00  0.00    -0.273 OA
HETATM    3  N   UNL     1     -41.795 -51.434  11.829  1.00  0.00    -0.358 N 
HETATM    4  H   UNL     1     -41.198 -52.127  11.392  1.00  0.00     0.162 HD
ENDROOT
BRANCH   1   5
HETATM    5  C   UNL     1     -43.282 -53.292  12.500  1.00  0.00     0.146 C 
BRANCH   5   6
HETATM    6  C   UNL     1     -43.166 -54.150  13.720  1.00  0.00     0.006 A 
HETATM    7  C   UNL     1     -42.043 -54.487  14.537  1.00  0.00     0.038 A 
HETATM    8  C   UNL     1     -40.622 -54.075  14.429  1.00  0.00     0.071 C 
HETATM    9  N   UNL     1     -42.393 -55.318  15.526  1.00  0.00    -0.265 N 
HETATM   10  O   UNL     1     -43.734 -55.569  15.360  1.00  0.00    -0.242 OA
ATOM     11  HN  UNL     1     -41.786 -55.689  16.257  1.00  0.00     0.194 HD
HETATM   12  C   UNL     1     -44.193 -54.888  14.282  1.00  0.00     0.081 A 
HETATM   13  C   UNL     1     -45.615 -55.095  13.948  1.00  0.00     0.079 C 
ENDBRANCH   5   6
ENDBRANCH   1   5
BRANCH   3  14
HETATM   14  C   UNL     1     -41.227 -50.120  12.076  1.00  0.00     0.154 C 
BRANCH  14  15
HETATM   15  C   UNL     1     -39.745 -50.064  12.449  1.00  0.00     0.139 C 
HETATM   16  C   UNL     1     -38.831 -49.246  11.557  1.00  0.00     0.035 C 
HETATM   17  C   UNL     1     -37.456 -49.833  11.842  1.00  0.00     0.029 C 
HETATM   18  C   UNL     1     -37.732 -51.101  12.633  1.00  0.00     0.168 C 
HETATM   19  O   UNL     1     -39.134 -51.365  12.469  1.00  0.00    -0.384 OA
ENDBRANCH  14  15
ENDBRANCH   3  14
TORSDOF 4
ENDMDL
MODEL 7
REMARK VINA RESULT:      -5.2      3.139      6.024
REMARK  4 active torsions:
REMARK  status: ('A' for Active; 'I' for Inactive)
REMARK    1  A    between atoms: C_8  and  C_9 
REMARK    2  A    between atoms: C_9  and  C_10 
REMARK       I    between atoms: C_10  and  N_12 
REMARK    3  A    between atoms: N_12  and  C_13 
REMARK    4  A    between atoms: C_13  and  C_14 
ROOT
HETATM    1  C   UNL     1     -42.297 -51.841  13.625  1.00  0.00     0.222 C 
HETATM    2  O   UNL     1     -42.221 -52.752  14.450  1.00  0.00    -0.273 OA
HETATM    3  N   UNL     1     -43.146 -51.907  12.529  1.00  0.00    -0.358 N 
HETATM    4  H   UNL     1     -43.429 -51.044  12.077  1.00  0.00     0.162 HD
ENDROOT
BRANCH   1   5
HETATM    5  C   UNL     1     -41.457 -50.586  13.759  1.00  0.00     0.146 C 
BRANCH   5   6
HETATM    6  C   UNL     1     -40.295 -50.500  12.820  1.00  0.00     0.006 A 
HETATM    7  C   UNL     1     -40.125 -49.797  11.588  1.00  0.00     0.038 A 
HETATM    8  C   UNL     1     -41.062 -48.913  10.851  1.00  0.00     0.071 C 
HETATM    9  N   UNL     1     -38.916 -50.025  11.060  1.00  0.00    -0.265 N 
HETATM   10  O   UNL     1     -38.286 -50.903  11.910  1.00  0.00    -0.242 OA
ATOM     11  HN  UNL     1     -38.539 -49.627  10.201  1.00  0.00     0.194 HD
HETATM   12  C   UNL     1     -39.107 -51.196  12.948  1.00  0.00     0.081 A 
HETATM   13  C   UNL     1     -38.583 -52.168  13.927  1.00  0.00     0.079 C 
ENDBRANCH   5   6
ENDBRANCH   1   5
BRANCH   3  14
HETATM   14  C   UNL     1     -44.063 -53.031  12.459  1.00  0.00     0.154 C 
BRANCH  14  15
HETATM   15  C   UNL     1     -45.436 -52.848  13.108  1.00  0.00     0.139 C 
HETATM   16  C   UNL     1     -45.886 -51.430  13.404  1.00  0.00     0.035 C 
HETATM   17  C   UNL     1     -46.936 -51.621  14.488  1.00  0.00     0.029 C 
HETATM   18  C   UNL     1     -46.790 -53.072  14.918  1.00  0.00     0.168 C 
HETATM   19  O   UNL     1     -45.535 -53.514  14.378  1.00  0.00    -0.384 OA
ENDBRANCH  14  15
ENDBRANCH   3  14
TORSDOF 4
ENDMDL
MODEL 8
REMARK VINA RESULT:      -5.1      2.052      2.980
REMARK  4 active torsions:
REMARK  status: ('A' for Active; 'I' for Inactive)
REMARK    1  A    between atoms: C_8  and  C_9 
REMARK    2  A    between atoms: C_9  and  C_10 
REMARK       I    between atoms: C_10  and  N_12 
REMARK    3  A    between atoms: N_12  and  C_13 
REMARK    4  A    between atoms: C_13  and  C_14 
ROOT
HETATM    1  C   UNL     1     -41.542 -49.514  12.868  1.00  0.00     0.222 C 
HETATM    2  O   UNL     1     -40.867 -48.576  13.293  1.00  0.00    -0.273 OA
HETATM    3  N   UNL     1     -41.983 -49.567  11.553  1.00  0.00    -0.358 N 
HETATM    4  H   UNL     1     -42.231 -50.467  11.156  1.00  0.00     0.162 HD
ENDROOT
BRANCH   1   5
HETATM    5  C   UNL     1     -41.936 -50.671  13.764  1.00  0.00     0.146 C 
BRANCH   5   6
HETATM    6  C   UNL     1     -41.477 -52.016  13.298  1.00  0.00     0.006 A 
HETATM    7  C   UNL     1     -42.197 -53.129  12.765  1.00  0.00     0.038 A 
HETATM    8  C   UNL     1     -43.647 -53.293  12.497  1.00  0.00     0.071 C 
HETATM    9  N   UNL     1     -41.380 -54.156  12.500  1.00  0.00    -0.265 N 
HETATM   10  O   UNL     1     -40.122 -53.754  12.883  1.00  0.00    -0.242 OA
ATOM     11  HN  UNL     1     -41.639 -55.055  12.095  1.00  0.00     0.194 HD
HETATM   12  C   UNL     1     -40.179 -52.490  13.369  1.00  0.00     0.081 A 
HETATM   13  C   UNL     1     -38.905 -51.935  13.866  1.00  0.00     0.079 C 
ENDBRANCH   5   6
ENDBRANCH   1   5
BRANCH   3  14
HETATM   14  C   UNL     1     -41.496 -48.546  10.641  1.00  0.00     0.154 C 
BRANCH  14  15
HETATM   15  C   UNL     1     -42.544 -47.659   9.968  1.00  0.00     0.139 C 
HETATM   16  C   UNL     1     -43.922 -47.604  10.600  1.00  0.00     0.035 C 
HETATM   17  C   UNL     1     -44.808 -47.143   9.452  1.00  0.00     0.029 C 
HETATM   18  C   UNL     1     -43.932 -47.254   8.216  1.00  0.00     0.168 C 
HETATM   19  O   UNL     1     -42.802 -48.049   8.609  1.00  0.00    -0.384 OA
ENDBRANCH  14  15
ENDBRANCH   3  14
TORSDOF 4
ENDMDL
MODEL 9
REMARK VINA RESULT:      -5.1      3.672      4.895
REMARK  4 active torsions:
REMARK  status: ('A' for Active; 'I' for Inactive)
REMARK    1  A    between atoms: C_8  and  C_9 
REMARK    2  A    between atoms: C_9  and  C_10 
REMARK       I    between atoms: C_10  and  N_12 
REMARK    3  A    between atoms: N_12  and  C_13 
REMARK    4  A    between atoms: C_13  and  C_14 
ROOT
HETATM    1  C   UNL     1     -43.098 -53.761  12.907  1.00  0.00     0.222 C 
HETATM    2  O   UNL     1     -42.266 -54.348  13.602  1.00  0.00    -0.273 OA
HETATM    3  N   UNL     1     -42.731 -52.804  11.971  1.00  0.00    -0.358 N 
HETATM    4  H   UNL     1     -43.369 -52.595  11.211  1.00  0.00     0.162 HD
ENDROOT
BRANCH   1   5
HETATM    5  C   UNL     1     -44.579 -54.051  13.039  1.00  0.00     0.146 C 
BRANCH   5   6
HETATM    6  C   UNL     1     -45.362 -53.016  13.783  1.00  0.00     0.006 A 
HETATM    7  C   UNL     1     -46.296 -52.033  13.333  1.00  0.00     0.038 A 
HETATM    8  C   UNL     1     -46.793 -51.736  11.967  1.00  0.00     0.071 C 
HETATM    9  N   UNL     1     -46.745 -51.287  14.350  1.00  0.00    -0.265 N 
HETATM   10  O   UNL     1     -46.093 -51.738  15.474  1.00  0.00    -0.242 OA
ATOM     11  HN  UNL     1     -47.432 -50.535  14.301  1.00  0.00     0.194 HD
HETATM   12  C   UNL     1     -45.263 -52.755  15.138  1.00  0.00     0.081 A 
HETATM   13  C   UNL     1     -44.456 -53.317  16.238  1.00  0.00     0.079 C 
ENDBRANCH   5   6
ENDBRANCH   1   5
BRANCH   3  14
HETATM   14  C   UNL     1     -41.313 -52.615  11.725  1.00  0.00     0.154 C 
BRANCH  14  15
HETATM   15  C   UNL     1     -40.664 -51.367  12.325  1.00  0.00     0.139 C 
HETATM   16  C   UNL     1     -40.686 -50.099  11.492  1.00  0.00     0.035 C 
HETATM   17  C   UNL     1     -39.541 -49.285  12.076  1.00  0.00     0.029 C 
HETATM   18  C   UNL     1     -38.793 -50.255  12.975  1.00  0.00     0.168 C 
HETATM   19  O   UNL     1     -39.271 -51.562  12.621  1.00  0.00    -0.384 OA
ENDBRANCH  14  15
ENDBRANCH   3  14
TORSDOF 4
ENDMDL
