MODEL 1
REMARK VINA RESULT:      -6.8      0.000      0.000
REMARK  4 active torsions:
REMARK  status: ('A' for Active; 'I' for Inactive)
REMARK       I    between atoms: C_2  and  N_3 
REMARK       I    between atoms: C_2  and  N_13 
REMARK    1  A    between atoms: N_3  and  C_4 
REMARK    2  A    between atoms: N_7  and  C_10 
REMARK    3  A    between atoms: N_13  and  C_14 
REMARK    4  A    between atoms: C_20  and  N_21 
ROOT
HETATM    1  O   UNL     1     -42.719 -48.611  13.188  1.00  0.00    -0.254 OA
HETATM    2  C   UNL     1     -42.458 -49.460  12.347  1.00  0.00     0.299 C 
HETATM    3  N   UNL     1     -42.683 -50.809  12.520  1.00  0.00    -0.343 N 
HETATM    4  N   UNL     1     -41.853 -49.242  11.121  1.00  0.00    -0.207 NA
HETATM    5  H   UNL     1     -42.965 -51.274  11.667  1.00  0.00     0.164 HD
HETATM    6  H   UNL     1     -41.094 -49.905  11.029  1.00  0.00     0.138 HD
ENDROOT
BRANCH   4   7
HETATM    7  C   UNL     1     -41.473 -47.920  10.783  1.00  0.00     0.060 A 
HETATM    8  C   UNL     1     -40.285 -47.420  11.330  1.00  0.00     0.029 A 
HETATM    9  C   UNL     1     -39.912 -46.111  11.071  1.00  0.00     0.019 A 
HETATM   10  C   UNL     1     -40.731 -45.368  10.247  1.00  0.00     0.090 A 
HETATM   11  N   UNL     1     -41.868 -45.834   9.683  1.00  0.00    -0.351 N 
HETATM   12  C   UNL     1     -42.265 -47.106   9.943  1.00  0.00     0.125 A 
ATOM     13  HN  UNL     1     -42.422 -45.236   9.068  1.00  0.00     0.166 HD
BRANCH  12  14
HETATM   14  N   UNL     1     -43.464 -47.508   9.394  1.00  0.00    -0.366 N 
HETATM   15  C   UNL     1     -43.673 -47.877   8.004  1.00  0.00     0.124 C 
HETATM   16  C   UNL     1     -45.181 -48.108   7.879  1.00  0.00     0.021 C 
HETATM   17  C   UNL     1     -45.728 -47.948   9.291  1.00  0.00     0.021 C 
HETATM   18  C   UNL     1     -44.714 -47.047   9.980  1.00  0.00     0.124 C 
ENDBRANCH  12  14
ENDBRANCH   4   7
BRANCH   3  19
HETATM   19  C   UNL     1     -43.203 -51.339  13.780  1.00  0.00     0.089 C 
HETATM   20  C   UNL     1     -42.567 -52.691  14.119  1.00  0.00     0.055 C 
HETATM   21  C   UNL     1     -42.959 -53.725  13.066  1.00  0.00     0.275 C 
HETATM   22  N   UNL     1     -44.414 -53.920  12.991  1.00  0.00     0.093 N 
HETATM   23  C   UNL     1     -45.125 -52.660  12.760  1.00  0.00     0.275 C 
HETATM   24  C   UNL     1     -44.724 -51.520  13.708  1.00  0.00     0.055 C 
BRANCH  22  25
HETATM   25  C   UNL     1     -44.929 -54.689  14.142  1.00  0.00     0.223 A 
HETATM   26  C   UNL     1     -45.882 -55.829  13.878  1.00  0.00     0.038 A 
HETATM   27  C   UNL     1     -46.375 -54.576  14.536  1.00  0.00     0.038 A 
ENDBRANCH  22  25
ENDBRANCH   3  19
TORSDOF 4
ENDMDL
MODEL 2
REMARK VINA RESULT:      -6.4      1.826      8.179
REMARK  4 active torsions:
REMARK  status: ('A' for Active; 'I' for Inactive)
REMARK       I    between atoms: C_2  and  N_3 
REMARK       I    between atoms: C_2  and  N_13 
REMARK    1  A    between atoms: N_3  and  C_4 
REMARK    2  A    between atoms: N_7  and  C_10 
REMARK    3  A    between atoms: N_13  and  C_14 
REMARK    4  A    between atoms: C_20  and  N_21 
ROOT
HETATM    1  O   UNL     1     -43.676 -50.486  14.058  1.00  0.00    -0.254 OA
HETATM    2  C   UNL     1     -43.217 -50.711  12.948  1.00  0.00     0.299 C 
HETATM    3  N   UNL     1     -42.788 -49.731  12.078  1.00  0.00    -0.343 N 
HETATM    4  N   UNL     1     -43.096 -51.952  12.346  1.00  0.00    -0.207 NA
HETATM    5  H   UNL     1     -41.984 -50.012  11.533  1.00  0.00     0.164 HD
HETATM    6  H   UNL     1     -43.489 -51.884  11.416  1.00  0.00     0.138 HD
ENDROOT
BRANCH   4   7
HETATM    7  C   UNL     1     -43.554 -53.091  13.053  1.00  0.00     0.060 A 
HETATM    8  C   UNL     1     -44.897 -53.459  12.904  1.00  0.00     0.029 A 
HETATM    9  C   UNL     1     -45.395 -54.531  13.627  1.00  0.00     0.019 A 
HETATM   10  C   UNL     1     -44.516 -55.208  14.446  1.00  0.00     0.090 A 
HETATM   11  N   UNL     1     -43.210 -54.892  14.589  1.00  0.00    -0.351 N 
HETATM   12  C   UNL     1     -42.706 -53.831  13.908  1.00  0.00     0.125 A 
ATOM     13  HN  UNL     1     -42.609 -55.445  15.200  1.00  0.00     0.166 HD
BRANCH  12  14
HETATM   14  N   UNL     1     -41.384 -53.514  14.139  1.00  0.00    -0.366 N 
HETATM   15  C   UNL     1     -40.240 -54.226  13.596  1.00  0.00     0.124 C 
HETATM   16  C   UNL     1     -39.021 -53.573  14.252  1.00  0.00     0.021 C 
HETATM   17  C   UNL     1     -39.580 -52.421  15.076  1.00  0.00     0.021 C 
HETATM   18  C   UNL     1     -41.012 -52.841  15.374  1.00  0.00     0.124 C 
ENDBRANCH  12  14
ENDBRANCH   4   7
BRANCH   3  19
HETATM   19  C   UNL     1     -42.916 -48.312  12.408  1.00  0.00     0.089 C 
HETATM   20  C   UNL     1     -43.206 -47.475  11.158  1.00  0.00     0.055 C 
HETATM   21  C   UNL     1     -42.021 -47.550  10.199  1.00  0.00     0.275 C 
HETATM   22  N   UNL     1     -40.782 -47.039  10.803  1.00  0.00     0.093 N 
HETATM   23  C   UNL     1     -40.465 -47.718  12.061  1.00  0.00     0.275 C 
HETATM   24  C   UNL     1     -41.631 -47.786  13.059  1.00  0.00     0.055 C 
BRANCH  22  25
HETATM   25  C   UNL     1     -40.784 -45.566  10.908  1.00  0.00     0.223 A 
HETATM   26  C   UNL     1     -39.714 -44.790  10.180  1.00  0.00     0.038 A 
HETATM   27  C   UNL     1     -39.700 -44.865  11.677  1.00  0.00     0.038 A 
ENDBRANCH  22  25
ENDBRANCH   3  19
TORSDOF 4
ENDMDL
MODEL 3
REMARK VINA RESULT:      -6.1      1.939      7.678
REMARK  4 active torsions:
REMARK  status: ('A' for Active; 'I' for Inactive)
REMARK       I    between atoms: C_2  and  N_3 
REMARK       I    between atoms: C_2  and  N_13 
REMARK    1  A    between atoms: N_3  and  C_4 
REMARK    2  A    between atoms: N_7  and  C_10 
REMARK    3  A    between atoms: N_13  and  C_14 
REMARK    4  A    between atoms: C_20  and  N_21 
ROOT
HETATM    1  O   UNL     1     -42.425 -50.037  14.226  1.00  0.00    -0.254 OA
HETATM    2  C   UNL     1     -42.628 -50.317  13.053  1.00  0.00     0.299 C 
HETATM    3  N   UNL     1     -42.835 -49.381  12.063  1.00  0.00    -0.343 N 
HETATM    4  N   UNL     1     -42.741 -51.591  12.521  1.00  0.00    -0.207 NA
HETATM    5  H   UNL     1     -42.437 -49.653  11.174  1.00  0.00     0.164 HD
HETATM    6  H   UNL     1     -43.582 -51.617  11.959  1.00  0.00     0.138 HD
ENDROOT
BRANCH   4   7
HETATM    7  C   UNL     1     -42.631 -52.698  13.398  1.00  0.00     0.060 A 
HETATM    8  C   UNL     1     -41.437 -53.430  13.383  1.00  0.00     0.029 A 
HETATM    9  C   UNL     1     -41.317 -54.556  14.181  1.00  0.00     0.019 A 
HETATM   10  C   UNL     1     -42.388 -54.882  14.986  1.00  0.00     0.090 A 
HETATM   11  N   UNL     1     -43.541 -54.178  15.042  1.00  0.00    -0.351 N 
HETATM   12  C   UNL     1     -43.690 -53.086  14.249  1.00  0.00     0.125 A 
ATOM     13  HN  UNL     1     -44.291 -54.465  15.671  1.00  0.00     0.166 HD
BRANCH  12  14
HETATM   14  N   UNL     1     -44.909 -52.443  14.298  1.00  0.00    -0.366 N 
HETATM   15  C   UNL     1     -45.545 -51.933  15.501  1.00  0.00     0.124 C 
HETATM   16  C   UNL     1     -46.919 -51.441  15.042  1.00  0.00     0.021 C 
HETATM   17  C   UNL     1     -46.924 -51.620  13.530  1.00  0.00     0.021 C 
HETATM   18  C   UNL     1     -45.915 -52.733  13.288  1.00  0.00     0.124 C 
ENDBRANCH  12  14
ENDBRANCH   4   7
BRANCH   3  19
HETATM   19  C   UNL     1     -42.893 -47.952  12.366  1.00  0.00     0.089 C 
HETATM   20  C   UNL     1     -43.202 -47.129  11.111  1.00  0.00     0.055 C 
HETATM   21  C   UNL     1     -42.062 -47.272  10.106  1.00  0.00     0.275 C 
HETATM   22  N   UNL     1     -40.779 -46.799  10.647  1.00  0.00     0.093 N 
HETATM   23  C   UNL     1     -40.437 -47.465  11.906  1.00  0.00     0.275 C 
HETATM   24  C   UNL     1     -41.561 -47.465  12.952  1.00  0.00     0.055 C 
BRANCH  22  25
HETATM   25  C   UNL     1     -40.719 -45.325  10.720  1.00  0.00     0.223 A 
HETATM   26  C   UNL     1     -39.569 -44.618  10.046  1.00  0.00     0.038 A 
HETATM   27  C   UNL     1     -39.654 -44.656  11.542  1.00  0.00     0.038 A 
ENDBRANCH  22  25
ENDBRANCH   3  19
TORSDOF 4
ENDMDL
MODEL 4
REMARK VINA RESULT:      -5.8      2.197      4.077
REMARK  4 active torsions:
REMARK  status: ('A' for Active; 'I' for Inactive)
REMARK       I    between atoms: C_2  and  N_3 
REMARK       I    between atoms: C_2  and  N_13 
REMARK    1  A    between atoms: N_3  and  C_4 
REMARK    2  A    between atoms: N_7  and  C_10 
REMARK    3  A    between atoms: N_13  and  C_14 
REMARK    4  A    between atoms: C_20  and  N_21 
ROOT
HETATM    1  O   UNL     1     -43.026 -49.098  13.344  1.00  0.00    -0.254 OA
HETATM    2  C   UNL     1     -42.643 -49.947  12.552  1.00  0.00     0.299 C 
HETATM    3  N   UNL     1     -42.793 -51.303  12.746  1.00  0.00    -0.343 N 
HETATM    4  N   UNL     1     -41.954 -49.718  11.373  1.00  0.00    -0.207 NA
HETATM    5  H   UNL     1     -42.973 -51.807  11.887  1.00  0.00     0.164 HD
HETATM    6  H   UNL     1     -41.148 -50.330  11.363  1.00  0.00     0.138 HD
ENDROOT
BRANCH   4   7
HETATM    7  C   UNL     1     -41.634 -48.382  11.028  1.00  0.00     0.060 A 
HETATM    8  C   UNL     1     -42.610 -47.623  10.371  1.00  0.00     0.029 A 
HETATM    9  C   UNL     1     -42.311 -46.333   9.964  1.00  0.00     0.019 A 
HETATM   10  C   UNL     1     -41.056 -45.847  10.263  1.00  0.00     0.090 A 
HETATM   11  N   UNL     1     -40.104 -46.547  10.920  1.00  0.00    -0.351 N 
HETATM   12  C   UNL     1     -40.367 -47.822  11.306  1.00  0.00     0.125 A 
ATOM     13  HN  UNL     1     -39.199 -46.122  11.124  1.00  0.00     0.166 HD
BRANCH  12  14
HETATM   14  N   UNL     1     -39.340 -48.511  11.916  1.00  0.00    -0.366 N 
HETATM   15  C   UNL     1     -38.694 -49.700  11.388  1.00  0.00     0.124 C 
HETATM   16  C   UNL     1     -37.731 -50.148  12.490  1.00  0.00     0.021 C 
HETATM   17  C   UNL     1     -37.829 -49.076  13.567  1.00  0.00     0.021 C 
HETATM   18  C   UNL     1     -39.213 -48.477  13.365  1.00  0.00     0.124 C 
ENDBRANCH  12  14
ENDBRANCH   4   7
BRANCH   3  19
HETATM   19  C   UNL     1     -43.380 -51.836  13.975  1.00  0.00     0.089 C 
HETATM   20  C   UNL     1     -42.412 -51.704  15.155  1.00  0.00     0.055 C 
HETATM   21  C   UNL     1     -41.173 -52.560  14.907  1.00  0.00     0.275 C 
HETATM   22  N   UNL     1     -41.501 -53.985  14.755  1.00  0.00     0.093 N 
HETATM   23  C   UNL     1     -42.496 -54.208  13.704  1.00  0.00     0.275 C 
HETATM   24  C   UNL     1     -43.743 -53.317  13.807  1.00  0.00     0.055 C 
BRANCH  22  25
HETATM   25  C   UNL     1     -41.850 -54.613  16.046  1.00  0.00     0.223 A 
HETATM   26  C   UNL     1     -40.955 -55.703  16.581  1.00  0.00     0.038 A 
HETATM   27  C   UNL     1     -42.329 -56.037  16.084  1.00  0.00     0.038 A 
ENDBRANCH  22  25
ENDBRANCH   3  19
TORSDOF 4
ENDMDL
MODEL 5
REMARK VINA RESULT:      -5.7      2.898      7.776
REMARK  4 active torsions:
REMARK  status: ('A' for Active; 'I' for Inactive)
REMARK       I    between atoms: C_2  and  N_3 
REMARK       I    between atoms: C_2  and  N_13 
REMARK    1  A    between atoms: N_3  and  C_4 
REMARK    2  A    between atoms: N_7  and  C_10 
REMARK    3  A    between atoms: N_13  and  C_14 
REMARK    4  A    between atoms: C_20  and  N_21 
ROOT
HETATM    1  O   UNL     1     -42.453 -49.904  13.202  1.00  0.00    -0.254 OA
HETATM    2  C   UNL     1     -41.944 -49.854  12.091  1.00  0.00     0.299 C 
HETATM    3  N   UNL     1     -42.249 -48.897  11.147  1.00  0.00    -0.343 N 
HETATM    4  N   UNL     1     -41.034 -50.754  11.564  1.00  0.00    -0.207 NA
HETATM    5  H   UNL     1     -41.450 -48.623  10.591  1.00  0.00     0.164 HD
HETATM    6  H   UNL     1     -41.365 -51.026  10.646  1.00  0.00     0.138 HD
ENDROOT
BRANCH   4   7
HETATM    7  C   UNL     1     -40.646 -51.862  12.357  1.00  0.00     0.060 A 
HETATM    8  C   UNL     1     -41.263 -53.094  12.109  1.00  0.00     0.029 A 
HETATM    9  C   UNL     1     -40.953 -54.185  12.905  1.00  0.00     0.019 A 
HETATM   10  C   UNL     1     -40.012 -54.002  13.896  1.00  0.00     0.090 A 
HETATM   11  N   UNL     1     -39.380 -52.832  14.140  1.00  0.00    -0.351 N 
HETATM   12  C   UNL     1     -39.687 -51.744  13.388  1.00  0.00     0.125 A 
ATOM     13  HN  UNL     1     -38.681 -52.767  14.880  1.00  0.00     0.166 HD
BRANCH  12  14
HETATM   14  N   UNL     1     -39.060 -50.561  13.720  1.00  0.00    -0.366 N 
HETATM   15  C   UNL     1     -37.751 -50.140  13.250  1.00  0.00     0.124 C 
HETATM   16  C   UNL     1     -37.460 -48.841  14.005  1.00  0.00     0.021 C 
HETATM   17  C   UNL     1     -38.722 -48.552  14.805  1.00  0.00     0.021 C 
HETATM   18  C   UNL     1     -39.363 -49.920  14.990  1.00  0.00     0.124 C 
ENDBRANCH  12  14
ENDBRANCH   4   7
BRANCH   3  19
HETATM   19  C   UNL     1     -43.277 -47.886  11.393  1.00  0.00     0.089 C 
HETATM   20  C   UNL     1     -43.471 -46.982  10.172  1.00  0.00     0.055 C 
HETATM   21  C   UNL     1     -42.194 -46.188   9.909  1.00  0.00     0.275 C 
HETATM   22  N   UNL     1     -41.826 -45.331  11.046  1.00  0.00     0.093 N 
HETATM   23  C   UNL     1     -41.706 -46.096  12.290  1.00  0.00     0.275 C 
HETATM   24  C   UNL     1     -42.903 -47.009  12.594  1.00  0.00     0.055 C 
BRANCH  22  25
HETATM   25  C   UNL     1     -42.706 -44.151  11.157  1.00  0.00     0.223 A 
HETATM   26  C   UNL     1     -42.074 -42.781  11.167  1.00  0.00     0.038 A 
HETATM   27  C   UNL     1     -42.703 -43.326  12.413  1.00  0.00     0.038 A 
ENDBRANCH  22  25
ENDBRANCH   3  19
TORSDOF 4
ENDMDL
MODEL 6
REMARK VINA RESULT:      -5.5      2.505      4.334
REMARK  4 active torsions:
REMARK  status: ('A' for Active; 'I' for Inactive)
REMARK       I    between atoms: C_2  and  N_3 
REMARK       I    between atoms: C_2  and  N_13 
REMARK    1  A    between atoms: N_3  and  C_4 
REMARK    2  A    between atoms: N_7  and  C_10 
REMARK    3  A    between atoms: N_13  and  C_14 
REMARK    4  A    between atoms: C_20  and  N_21 
ROOT
HETATM    1  O   UNL     1     -41.069 -48.918  10.533  1.00  0.00    -0.254 OA
HETATM    2  C   UNL     1     -41.879 -49.159  11.416  1.00  0.00     0.299 C 
HETATM    3  N   UNL     1     -41.770 -50.217  12.293  1.00  0.00    -0.343 N 
HETATM    4  N   UNL     1     -43.055 -48.470  11.662  1.00  0.00    -0.207 NA
HETATM    5  H   UNL     1     -42.104 -49.996  13.221  1.00  0.00     0.164 HD
HETATM    6  H   UNL     1     -43.800 -49.150  11.741  1.00  0.00     0.138 HD
ENDROOT
BRANCH   4   7
HETATM    7  C   UNL     1     -43.389 -47.384  10.816  1.00  0.00     0.060 A 
HETATM    8  C   UNL     1     -44.157 -47.654   9.676  1.00  0.00     0.029 A 
HETATM    9  C   UNL     1     -44.451 -46.628   8.793  1.00  0.00     0.019 A 
HETATM   10  C   UNL     1     -43.989 -45.367   9.107  1.00  0.00     0.090 A 
HETATM   11  N   UNL     1     -43.270 -45.073  10.214  1.00  0.00    -0.351 N 
HETATM   12  C   UNL     1     -42.949 -46.068  11.080  1.00  0.00     0.125 A 
ATOM     13  HN  UNL     1     -42.972 -44.114  10.395  1.00  0.00     0.166 HD
BRANCH  12  14
HETATM   14  N   UNL     1     -42.160 -45.724  12.158  1.00  0.00    -0.366 N 
HETATM   15  C   UNL     1     -40.716 -45.862  12.222  1.00  0.00     0.124 C 
HETATM   16  C   UNL     1     -40.346 -45.476  13.656  1.00  0.00     0.021 C 
HETATM   17  C   UNL     1     -41.652 -45.030  14.300  1.00  0.00     0.021 C 
HETATM   18  C   UNL     1     -42.724 -45.755  13.499  1.00  0.00     0.124 C 
ENDBRANCH  12  14
ENDBRANCH   4   7
BRANCH   3  19
HETATM   19  C   UNL     1     -40.682 -51.188  12.182  1.00  0.00     0.089 C 
HETATM   20  C   UNL     1     -41.223 -52.614  12.037  1.00  0.00     0.055 C 
HETATM   21  C   UNL     1     -41.978 -53.012  13.302  1.00  0.00     0.275 C 
HETATM   22  N   UNL     1     -41.122 -52.978  14.497  1.00  0.00     0.093 N 
HETATM   23  C   UNL     1     -40.481 -51.673  14.673  1.00  0.00     0.275 C 
HETATM   24  C   UNL     1     -39.777 -51.135  13.419  1.00  0.00     0.055 C 
BRANCH  22  25
HETATM   25  C   UNL     1     -40.178 -54.113  14.534  1.00  0.00     0.223 A 
HETATM   26  C   UNL     1     -40.213 -55.040  15.723  1.00  0.00     0.038 A 
HETATM   27  C   UNL     1     -39.048 -54.119  15.524  1.00  0.00     0.038 A 
ENDBRANCH  22  25
ENDBRANCH   3  19
TORSDOF 4
ENDMDL
MODEL 7
REMARK VINA RESULT:      -5.4      2.480      8.184
REMARK  4 active torsions:
REMARK  status: ('A' for Active; 'I' for Inactive)
REMARK       I    between atoms: C_2  and  N_3 
REMARK       I    between atoms: C_2  and  N_13 
REMARK    1  A    between atoms: N_3  and  C_4 
REMARK    2  A    between atoms: N_7  and  C_10 
REMARK    3  A    between atoms: N_13  and  C_14 
REMARK    4  A    between atoms: C_20  and  N_21 
ROOT
HETATM    1  O   UNL     1     -43.334 -49.867  15.070  1.00  0.00    -0.254 OA
HETATM    2  C   UNL     1     -43.105 -49.895  13.869  1.00  0.00     0.299 C 
HETATM    3  N   UNL     1     -42.345 -48.954  13.209  1.00  0.00    -0.343 N 
HETATM    4  N   UNL     1     -43.597 -50.817  12.961  1.00  0.00    -0.207 NA
HETATM    5  H   UNL     1     -41.793 -49.348  12.459  1.00  0.00     0.164 HD
HETATM    6  H   UNL     1     -43.982 -50.304  12.178  1.00  0.00     0.138 HD
ENDROOT
BRANCH   4   7
HETATM    7  C   UNL     1     -44.465 -51.831  13.434  1.00  0.00     0.060 A 
HETATM    8  C   UNL     1     -45.841 -51.573  13.425  1.00  0.00     0.029 A 
HETATM    9  C   UNL     1     -46.717 -52.517  13.937  1.00  0.00     0.019 A 
HETATM   10  C   UNL     1     -46.176 -53.695  14.407  1.00  0.00     0.090 A 
HETATM   11  N   UNL     1     -44.855 -53.983  14.402  1.00  0.00    -0.351 N 
HETATM   12  C   UNL     1     -43.978 -53.062  13.928  1.00  0.00     0.125 A 
ATOM     13  HN  UNL     1     -44.522 -54.882  14.750  1.00  0.00     0.166 HD
BRANCH  12  14
HETATM   14  N   UNL     1     -42.638 -53.382  14.005  1.00  0.00    -0.366 N 
HETATM   15  C   UNL     1     -41.809 -53.809  12.892  1.00  0.00     0.124 C 
HETATM   16  C   UNL     1     -40.459 -54.166  13.520  1.00  0.00     0.021 C 
HETATM   17  C   UNL     1     -40.594 -53.802  14.992  1.00  0.00     0.021 C 
HETATM   18  C   UNL     1     -42.091 -53.883  15.256  1.00  0.00     0.124 C 
ENDBRANCH  12  14
ENDBRANCH   4   7
BRANCH   3  19
HETATM   19  C   UNL     1     -41.800 -47.790  13.907  1.00  0.00     0.089 C 
HETATM   20  C   UNL     1     -42.658 -46.544  13.665  1.00  0.00     0.055 C 
HETATM   21  C   UNL     1     -42.620 -46.169  12.186  1.00  0.00     0.275 C 
HETATM   22  N   UNL     1     -41.258 -45.871  11.720  1.00  0.00     0.093 N 
HETATM   23  C   UNL     1     -40.333 -46.974  11.992  1.00  0.00     0.275 C 
HETATM   24  C   UNL     1     -40.370 -47.494  13.437  1.00  0.00     0.055 C 
BRANCH  22  25
HETATM   25  C   UNL     1     -40.780 -44.562  12.210  1.00  0.00     0.223 A 
HETATM   26  C   UNL     1     -40.333 -43.535  11.199  1.00  0.00     0.038 A 
HETATM   27  C   UNL     1     -39.327 -44.199  12.090  1.00  0.00     0.038 A 
ENDBRANCH  22  25
ENDBRANCH   3  19
TORSDOF 4
ENDMDL
MODEL 8
REMARK VINA RESULT:      -5.4      1.946      2.499
REMARK  4 active torsions:
REMARK  status: ('A' for Active; 'I' for Inactive)
REMARK       I    between atoms: C_2  and  N_3 
REMARK       I    between atoms: C_2  and  N_13 
REMARK    1  A    between atoms: N_3  and  C_4 
REMARK    2  A    between atoms: N_7  and  C_10 
REMARK    3  A    between atoms: N_13  and  C_14 
REMARK    4  A    between atoms: C_20  and  N_21 
ROOT
HETATM    1  O   UNL     1     -40.902 -48.429  12.365  1.00  0.00    -0.254 OA
HETATM    2  C   UNL     1     -42.082 -48.741  12.442  1.00  0.00     0.299 C 
HETATM    3  N   UNL     1     -42.526 -50.031  12.642  1.00  0.00    -0.343 N 
HETATM    4  N   UNL     1     -43.167 -47.894  12.292  1.00  0.00    -0.207 NA
HETATM    5  H   UNL     1     -43.356 -50.078  13.218  1.00  0.00     0.164 HD
HETATM    6  H   UNL     1     -43.806 -48.324  11.635  1.00  0.00     0.138 HD
ENDROOT
BRANCH   4   7
HETATM    7  C   UNL     1     -42.920 -46.529  12.004  1.00  0.00     0.060 A 
HETATM    8  C   UNL     1     -42.442 -45.717  13.041  1.00  0.00     0.029 A 
HETATM    9  C   UNL     1     -42.248 -44.364  12.813  1.00  0.00     0.019 A 
HETATM   10  C   UNL     1     -42.510 -43.889  11.545  1.00  0.00     0.090 A 
HETATM   11  N   UNL     1     -42.944 -44.654  10.519  1.00  0.00    -0.351 N 
HETATM   12  C   UNL     1     -43.165 -45.978  10.727  1.00  0.00     0.125 A 
ATOM     13  HN  UNL     1     -43.104 -44.242   9.600  1.00  0.00     0.166 HD
BRANCH  12  14
HETATM   14  N   UNL     1     -43.669 -46.699   9.664  1.00  0.00    -0.366 N 
HETATM   15  C   UNL     1     -45.063 -47.064   9.480  1.00  0.00     0.124 C 
HETATM   16  C   UNL     1     -45.074 -47.961   8.239  1.00  0.00     0.021 C 
HETATM   17  C   UNL     1     -43.640 -47.955   7.728  1.00  0.00     0.021 C 
HETATM   18  C   UNL     1     -42.809 -47.641   8.964  1.00  0.00     0.124 C 
ENDBRANCH  12  14
ENDBRANCH   4   7
BRANCH   3  19
HETATM   19  C   UNL     1     -41.592 -51.155  12.712  1.00  0.00     0.089 C 
HETATM   20  C   UNL     1     -42.203 -52.423  12.108  1.00  0.00     0.055 C 
HETATM   21  C   UNL     1     -43.409 -52.861  12.934  1.00  0.00     0.275 C 
HETATM   22  N   UNL     1     -43.051 -53.158  14.329  1.00  0.00     0.093 N 
HETATM   23  C   UNL     1     -42.373 -52.030  14.972  1.00  0.00     0.275 C 
HETATM   24  C   UNL     1     -41.202 -51.448  14.167  1.00  0.00     0.055 C 
BRANCH  22  25
HETATM   25  C   UNL     1     -42.323 -54.437  14.454  1.00  0.00     0.223 A 
HETATM   26  C   UNL     1     -42.861 -55.482  15.399  1.00  0.00     0.038 A 
HETATM   27  C   UNL     1     -41.587 -54.763  15.722  1.00  0.00     0.038 A 
ENDBRANCH  22  25
ENDBRANCH   3  19
TORSDOF 4
ENDMDL
MODEL 9
REMARK VINA RESULT:      -5.4      3.870      6.025
REMARK  4 active torsions:
REMARK  status: ('A' for Active; 'I' for Inactive)
REMARK       I    between atoms: C_2  and  N_3 
REMARK       I    between atoms: C_2  and  N_13 
REMARK    1  A    between atoms: N_3  and  C_4 
REMARK    2  A    between atoms: N_7  and  C_10 
REMARK    3  A    between atoms: N_13  and  C_14 
REMARK    4  A    between atoms: C_20  and  N_21 
ROOT
HETATM    1  O   UNL     1     -40.883 -48.759  10.732  1.00  0.00    -0.254 OA
HETATM    2  C   UNL     1     -41.197 -48.353  11.841  1.00  0.00     0.299 C 
HETATM    3  N   UNL     1     -40.570 -48.736  13.007  1.00  0.00    -0.343 N 
HETATM    4  N   UNL     1     -42.247 -47.500  12.136  1.00  0.00    -0.207 NA
HETATM    5  H   UNL     1     -40.510 -47.990  13.687  1.00  0.00     0.164 HD
HETATM    6  H   UNL     1     -42.778 -47.914  12.891  1.00  0.00     0.138 HD
ENDROOT
BRANCH   4   7
HETATM    7  C   UNL     1     -43.066 -47.048  11.072  1.00  0.00     0.060 A 
HETATM    8  C   UNL     1     -44.107 -47.882  10.646  1.00  0.00     0.029 A 
HETATM    9  C   UNL     1     -44.891 -47.501   9.569  1.00  0.00     0.019 A 
HETATM   10  C   UNL     1     -44.617 -46.282   8.984  1.00  0.00     0.090 A 
HETATM   11  N   UNL     1     -43.638 -45.444   9.392  1.00  0.00    -0.351 N 
HETATM   12  C   UNL     1     -42.842 -45.810  10.430  1.00  0.00     0.125 A 
ATOM     13  HN  UNL     1     -43.498 -44.548   8.925  1.00  0.00     0.166 HD
BRANCH  12  14
HETATM   14  N   UNL     1     -41.819 -44.947  10.764  1.00  0.00    -0.366 N 
HETATM   15  C   UNL     1     -40.412 -45.154  10.464  1.00  0.00     0.124 C 
HETATM   16  C   UNL     1     -39.688 -43.996  11.155  1.00  0.00     0.021 C 
HETATM   17  C   UNL     1     -40.792 -43.122  11.734  1.00  0.00     0.021 C 
HETATM   18  C   UNL     1     -41.960 -44.080  11.923  1.00  0.00     0.124 C 
ENDBRANCH  12  14
ENDBRANCH   4   7
BRANCH   3  19
HETATM   19  C   UNL     1     -39.499 -49.732  13.004  1.00  0.00     0.089 C 
HETATM   20  C   UNL     1     -39.621 -50.684  14.198  1.00  0.00     0.055 C 
HETATM   21  C   UNL     1     -39.433 -49.908  15.499  1.00  0.00     0.275 C 
HETATM   22  N   UNL     1     -38.115 -49.260  15.576  1.00  0.00     0.093 N 
HETATM   23  C   UNL     1     -37.864 -48.393  14.423  1.00  0.00     0.275 C 
HETATM   24  C   UNL     1     -38.125 -49.053  13.061  1.00  0.00     0.055 C 
BRANCH  22  25
HETATM   25  C   UNL     1     -37.034 -50.233  15.834  1.00  0.00     0.223 A 
HETATM   26  C   UNL     1     -36.557 -50.419  17.254  1.00  0.00     0.038 A 
HETATM   27  C   UNL     1     -35.672 -49.751  16.246  1.00  0.00     0.038 A 
ENDBRANCH  22  25
ENDBRANCH   3  19
TORSDOF 4
ENDMDL
