MODEL 1
REMARK VINA RESULT:      -6.1      0.000      0.000
REMARK  3 active torsions:
REMARK  status: ('A' for Active; 'I' for Inactive)
REMARK    1  A    between atoms: C_2  and  N_3 
REMARK    2  A    between atoms: C_5  and  N_6 
REMARK       I    between atoms: N_6  and  C_7 
REMARK       I    between atoms: C_7  and  N_9 
REMARK    3  A    between atoms: N_9  and  C_10 
ROOT
HETATM    1  N   UNL     1     -41.405 -48.817  10.302  1.00  0.00    -0.306 N 
HETATM    2  C   UNL     1     -41.466 -49.622  11.415  1.00  0.00     0.321 C 
HETATM    3  O   UNL     1     -42.276 -49.517  12.332  1.00  0.00    -0.247 OA
HETATM    4  N   UNL     1     -40.477 -50.584  11.450  1.00  0.00    -0.338 N 
HETATM    5  H   UNL     1     -40.694 -48.990   9.607  1.00  0.00     0.171 HD
HETATM    6  H   UNL     1     -39.987 -50.821  10.601  1.00  0.00     0.164 HD
ENDROOT
BRANCH   1   7
HETATM    7  C   UNL     1     -42.242 -47.729  10.104  1.00  0.00     0.070 A 
HETATM    8  C   UNL     1     -43.339 -47.658   9.280  1.00  0.00     0.141 A 
HETATM    9  N   UNL     1     -43.881 -46.419   9.450  1.00  0.00    -0.302 N 
HETATM   10  N   UNL     1     -43.186 -45.650  10.309  1.00  0.00    -0.308 N 
HETATM   11  C   UNL     1     -42.191 -46.453  10.708  1.00  0.00     0.138 A 
ATOM     12  HN  UNL     1     -43.372 -44.687  10.588  1.00  0.00     0.186 HD
BRANCH   9  13
HETATM   13  C   UNL     1     -45.108 -45.947   8.842  1.00  0.00     0.143 C 
HETATM   14  C   UNL     1     -46.280 -46.873   9.111  1.00  0.00     0.028 C 
ENDBRANCH   9  13
ENDBRANCH   1   7
BRANCH   4  15
HETATM   15  C   UNL     1     -40.447 -51.522  12.573  1.00  0.00     0.086 C 
HETATM   16  C   UNL     1     -39.079 -51.504  13.261  1.00  0.00     0.025 C 
HETATM   17  C   UNL     1     -39.164 -52.023  14.696  1.00  0.00     0.002 C 
HETATM   18  C   UNL     1     -39.044 -53.535  14.858  1.00  0.00     0.000 C 
HETATM   19  C   UNL     1     -39.678 -54.414  13.783  1.00  0.00     0.000 C 
HETATM   20  C   UNL     1     -41.028 -53.934  13.261  1.00  0.00     0.002 C 
HETATM   21  C   UNL     1     -40.897 -52.920  12.124  1.00  0.00     0.025 C 
ENDBRANCH   4  15
TORSDOF 3
ENDMDL
MODEL 2
REMARK VINA RESULT:      -6.0      1.732      2.221
REMARK  3 active torsions:
REMARK  status: ('A' for Active; 'I' for Inactive)
REMARK    1  A    between atoms: C_2  and  N_3 
REMARK    2  A    between atoms: C_5  and  N_6 
REMARK       I    between atoms: N_6  and  C_7 
REMARK       I    between atoms: C_7  and  N_9 
REMARK    3  A    between atoms: N_9  and  C_10 
ROOT
HETATM    1  N   UNL     1     -41.888 -47.720   9.649  1.00  0.00    -0.306 N 
HETATM    2  C   UNL     1     -41.522 -48.225  10.876  1.00  0.00     0.321 C 
HETATM    3  O   UNL     1     -42.222 -48.237  11.884  1.00  0.00    -0.247 OA
HETATM    4  N   UNL     1     -40.229 -48.707  10.904  1.00  0.00    -0.338 N 
HETATM    5  H   UNL     1     -41.232 -47.757   8.885  1.00  0.00     0.171 HD
HETATM    6  H   UNL     1     -39.760 -48.919  10.037  1.00  0.00     0.164 HD
ENDROOT
BRANCH   1   7
HETATM    7  C   UNL     1     -43.108 -47.102   9.416  1.00  0.00     0.070 A 
HETATM    8  C   UNL     1     -44.334 -47.704   9.262  1.00  0.00     0.141 A 
HETATM    9  N   UNL     1     -45.247 -46.705   9.109  1.00  0.00    -0.302 N 
HETATM   10  N   UNL     1     -44.696 -45.476   9.114  1.00  0.00    -0.308 N 
HETATM   11  C   UNL     1     -43.393 -45.723   9.305  1.00  0.00     0.138 A 
ATOM     12  HN  UNL     1     -45.159 -44.575   8.999  1.00  0.00     0.186 HD
BRANCH   9  13
HETATM   13  C   UNL     1     -46.681 -46.885   9.008  1.00  0.00     0.143 C 
HETATM   14  C   UNL     1     -47.074 -48.347   8.903  1.00  0.00     0.028 C 
ENDBRANCH   9  13
ENDBRANCH   1   7
BRANCH   4  15
HETATM   15  C   UNL     1     -39.725 -49.295  12.147  1.00  0.00     0.086 C 
HETATM   16  C   UNL     1     -38.241 -48.967  12.341  1.00  0.00     0.025 C 
HETATM   17  C   UNL     1     -37.828 -49.079  13.807  1.00  0.00     0.002 C 
HETATM   18  C   UNL     1     -37.414 -50.472  14.272  1.00  0.00     0.000 C 
HETATM   19  C   UNL     1     -38.169 -51.664  13.691  1.00  0.00     0.000 C 
HETATM   20  C   UNL     1     -39.672 -51.467  13.527  1.00  0.00     0.002 C 
HETATM   21  C   UNL     1     -40.042 -50.796  12.203  1.00  0.00     0.025 C 
ENDBRANCH   4  15
TORSDOF 3
ENDMDL
MODEL 3
REMARK VINA RESULT:      -5.8      2.798      3.915
REMARK  3 active torsions:
REMARK  status: ('A' for Active; 'I' for Inactive)
REMARK    1  A    between atoms: C_2  and  N_3 
REMARK    2  A    between atoms: C_5  and  N_6 
REMARK       I    between atoms: N_6  and  C_7 
REMARK       I    between atoms: C_7  and  N_9 
REMARK    3  A    between atoms: N_9  and  C_10 
ROOT
HETATM    1  N   UNL     1     -41.391 -50.155  11.162  1.00  0.00    -0.306 N 
HETATM    2  C   UNL     1     -42.105 -50.731  12.188  1.00  0.00     0.321 C 
HETATM    3  O   UNL     1     -42.444 -50.173  13.227  1.00  0.00    -0.247 OA
HETATM    4  N   UNL     1     -42.396 -52.063  11.970  1.00  0.00    -0.338 N 
HETATM    5  H   UNL     1     -41.162 -50.707  10.351  1.00  0.00     0.171 HD
HETATM    6  H   UNL     1     -42.338 -52.436  11.035  1.00  0.00     0.164 HD
ENDROOT
BRANCH   1   7
HETATM    7  C   UNL     1     -40.912 -48.854  11.208  1.00  0.00     0.070 A 
HETATM    8  C   UNL     1     -41.453 -47.743  10.606  1.00  0.00     0.141 A 
HETATM    9  N   UNL     1     -40.680 -46.681  10.970  1.00  0.00    -0.302 N 
HETATM   10  N   UNL     1     -39.636 -47.027  11.746  1.00  0.00    -0.308 N 
HETATM   11  C   UNL     1     -39.784 -48.351  11.892  1.00  0.00     0.138 A 
ATOM     12  HN  UNL     1     -38.907 -46.426  12.130  1.00  0.00     0.186 HD
BRANCH   9  13
HETATM   13  C   UNL     1     -40.942 -45.297  10.634  1.00  0.00     0.143 C 
HETATM   14  C   UNL     1     -39.683 -44.554  10.224  1.00  0.00     0.028 C 
ENDBRANCH   9  13
ENDBRANCH   1   7
BRANCH   4  15
HETATM   15  C   UNL     1     -43.175 -52.786  12.977  1.00  0.00     0.086 C 
HETATM   16  C   UNL     1     -42.446 -54.059  13.417  1.00  0.00     0.025 C 
HETATM   17  C   UNL     1     -42.922 -54.534  14.789  1.00  0.00     0.002 C 
HETATM   18  C   UNL     1     -44.153 -55.436  14.783  1.00  0.00     0.000 C 
HETATM   19  C   UNL     1     -45.242 -55.139  13.756  1.00  0.00     0.000 C 
HETATM   20  C   UNL     1     -45.533 -53.660  13.523  1.00  0.00     0.002 C 
HETATM   21  C   UNL     1     -44.607 -53.031  12.482  1.00  0.00     0.025 C 
ENDBRANCH   4  15
TORSDOF 3
ENDMDL
MODEL 4
REMARK VINA RESULT:      -5.7      3.039      7.079
REMARK  3 active torsions:
REMARK  status: ('A' for Active; 'I' for Inactive)
REMARK    1  A    between atoms: C_2  and  N_3 
REMARK    2  A    between atoms: C_5  and  N_6 
REMARK       I    between atoms: N_6  and  C_7 
REMARK       I    between atoms: C_7  and  N_9 
REMARK    3  A    between atoms: N_9  and  C_10 
ROOT
HETATM    1  N   UNL     1     -42.178 -52.070  11.919  1.00  0.00    -0.306 N 
HETATM    2  C   UNL     1     -42.164 -50.726  12.214  1.00  0.00     0.321 C 
HETATM    3  O   UNL     1     -42.657 -50.206  13.211  1.00  0.00    -0.247 OA
HETATM    4  N   UNL     1     -41.558 -49.958  11.240  1.00  0.00    -0.338 N 
HETATM    5  H   UNL     1     -41.744 -52.391  11.068  1.00  0.00     0.171 HD
HETATM    6  H   UNL     1     -40.951 -50.401  10.567  1.00  0.00     0.164 HD
ENDROOT
BRANCH   1   7
HETATM    7  C   UNL     1     -42.814 -53.015  12.711  1.00  0.00     0.070 A 
HETATM    8  C   UNL     1     -44.125 -53.420  12.637  1.00  0.00     0.141 A 
HETATM    9  N   UNL     1     -44.288 -54.400  13.569  1.00  0.00    -0.302 N 
HETATM   10  N   UNL     1     -43.174 -54.642  14.284  1.00  0.00    -0.308 N 
HETATM   11  C   UNL     1     -42.277 -53.799  13.755  1.00  0.00     0.138 A 
ATOM     12  HN  UNL     1     -43.043 -55.307  15.046  1.00  0.00     0.186 HD
BRANCH   9  13
HETATM   13  C   UNL     1     -45.495 -55.175  13.772  1.00  0.00     0.143 C 
HETATM   14  C   UNL     1     -46.439 -54.524  14.768  1.00  0.00     0.028 C 
ENDBRANCH   9  13
ENDBRANCH   1   7
BRANCH   4  15
HETATM   15  C   UNL     1     -41.456 -48.513  11.447  1.00  0.00     0.086 C 
HETATM   16  C   UNL     1     -42.192 -47.752  10.339  1.00  0.00     0.025 C 
HETATM   17  C   UNL     1     -42.568 -46.339  10.782  1.00  0.00     0.002 C 
HETATM   18  C   UNL     1     -41.494 -45.275  10.575  1.00  0.00     0.000 C 
HETATM   19  C   UNL     1     -40.041 -45.687  10.792  1.00  0.00     0.000 C 
HETATM   20  C   UNL     1     -39.796 -46.617  11.975  1.00  0.00     0.002 C 
HETATM   21  C   UNL     1     -39.989 -48.092  11.619  1.00  0.00     0.025 C 
ENDBRANCH   4  15
TORSDOF 3
ENDMDL
MODEL 5
REMARK VINA RESULT:      -5.6      3.745      5.809
REMARK  3 active torsions:
REMARK  status: ('A' for Active; 'I' for Inactive)
REMARK    1  A    between atoms: C_2  and  N_3 
REMARK    2  A    between atoms: C_5  and  N_6 
REMARK       I    between atoms: N_6  and  C_7 
REMARK       I    between atoms: C_7  and  N_9 
REMARK    3  A    between atoms: N_9  and  C_10 
ROOT
HETATM    1  N   UNL     1     -42.348 -49.930  11.775  1.00  0.00    -0.306 N 
HETATM    2  C   UNL     1     -42.797 -50.772  12.765  1.00  0.00     0.321 C 
HETATM    3  O   UNL     1     -42.125 -51.207  13.696  1.00  0.00    -0.247 OA
HETATM    4  N   UNL     1     -44.118 -51.143  12.610  1.00  0.00    -0.338 N 
HETATM    5  H   UNL     1     -42.986 -49.634  11.053  1.00  0.00     0.171 HD
HETATM    6  H   UNL     1     -44.717 -50.600  12.008  1.00  0.00     0.164 HD
ENDROOT
BRANCH   1   7
HETATM    7  C   UNL     1     -41.031 -49.504  11.679  1.00  0.00     0.070 A 
HETATM    8  C   UNL     1     -39.896 -50.272  11.773  1.00  0.00     0.141 A 
HETATM    9  N   UNL     1     -38.837 -49.440  11.563  1.00  0.00    -0.302 N 
HETATM   10  N   UNL     1     -39.201 -48.157  11.376  1.00  0.00    -0.308 N 
HETATM   11  C   UNL     1     -40.538 -48.202  11.443  1.00  0.00     0.138 A 
ATOM     12  HN  UNL     1     -38.602 -47.347  11.220  1.00  0.00     0.186 HD
BRANCH   9  13
HETATM   13  C   UNL     1     -37.450 -49.848  11.483  1.00  0.00     0.143 C 
HETATM   14  C   UNL     1     -37.148 -51.048  12.361  1.00  0.00     0.028 C 
ENDBRANCH   9  13
ENDBRANCH   1   7
BRANCH   4  15
HETATM   15  C   UNL     1     -44.724 -52.019  13.614  1.00  0.00     0.086 C 
HETATM   16  C   UNL     1     -44.907 -53.435  13.060  1.00  0.00     0.025 C 
HETATM   17  C   UNL     1     -45.016 -54.468  14.182  1.00  0.00     0.002 C 
HETATM   18  C   UNL     1     -46.418 -54.682  14.746  1.00  0.00     0.000 C 
HETATM   19  C   UNL     1     -47.328 -53.463  14.860  1.00  0.00     0.000 C 
HETATM   20  C   UNL     1     -46.645 -52.180  15.320  1.00  0.00     0.002 C 
HETATM   21  C   UNL     1     -46.015 -51.397  14.167  1.00  0.00     0.025 C 
ENDBRANCH   4  15
TORSDOF 3
ENDMDL
MODEL 6
REMARK VINA RESULT:      -5.6      3.577      4.746
REMARK  3 active torsions:
REMARK  status: ('A' for Active; 'I' for Inactive)
REMARK    1  A    between atoms: C_2  and  N_3 
REMARK    2  A    between atoms: C_5  and  N_6 
REMARK       I    between atoms: N_6  and  C_7 
REMARK       I    between atoms: C_7  and  N_9 
REMARK    3  A    between atoms: N_9  and  C_10 
ROOT
HETATM    1  N   UNL     1     -43.466 -48.827  11.926  1.00  0.00    -0.306 N 
HETATM    2  C   UNL     1     -43.412 -50.008  12.629  1.00  0.00     0.321 C 
HETATM    3  O   UNL     1     -42.401 -50.508  13.115  1.00  0.00    -0.247 OA
HETATM    4  N   UNL     1     -44.633 -50.645  12.723  1.00  0.00    -0.338 N 
HETATM    5  H   UNL     1     -44.351 -48.508  11.567  1.00  0.00     0.171 HD
HETATM    6  H   UNL     1     -45.478 -50.123  12.548  1.00  0.00     0.164 HD
ENDROOT
BRANCH   1   7
HETATM    7  C   UNL     1     -42.343 -48.067  11.631  1.00  0.00     0.070 A 
HETATM    8  C   UNL     1     -41.890 -46.953  12.295  1.00  0.00     0.141 A 
HETATM    9  N   UNL     1     -40.730 -46.576  11.688  1.00  0.00    -0.302 N 
HETATM   10  N   UNL     1     -40.406 -47.351  10.635  1.00  0.00    -0.308 N 
HETATM   11  C   UNL     1     -41.389 -48.261  10.607  1.00  0.00     0.138 A 
ATOM     12  HN  UNL     1     -39.606 -47.266  10.010  1.00  0.00     0.186 HD
BRANCH   9  13
HETATM   13  C   UNL     1     -39.865 -45.499  12.123  1.00  0.00     0.143 C 
HETATM   14  C   UNL     1     -40.162 -44.194  11.407  1.00  0.00     0.028 C 
ENDBRANCH   9  13
ENDBRANCH   1   7
BRANCH   4  15
HETATM   15  C   UNL     1     -44.715 -51.902  13.469  1.00  0.00     0.086 C 
HETATM   16  C   UNL     1     -44.757 -53.099  12.514  1.00  0.00     0.025 C 
HETATM   17  C   UNL     1     -44.308 -54.386  13.205  1.00  0.00     0.002 C 
HETATM   18  C   UNL     1     -45.399 -55.149  13.950  1.00  0.00     0.000 C 
HETATM   19  C   UNL     1     -46.466 -54.331  14.672  1.00  0.00     0.000 C 
HETATM   20  C   UNL     1     -45.960 -53.084  15.387  1.00  0.00     0.002 C 
HETATM   21  C   UNL     1     -45.881 -51.864  14.468  1.00  0.00     0.025 C 
ENDBRANCH   4  15
TORSDOF 3
ENDMDL
MODEL 7
REMARK VINA RESULT:      -5.5      1.000      2.018
REMARK  3 active torsions:
REMARK  status: ('A' for Active; 'I' for Inactive)
REMARK    1  A    between atoms: C_2  and  N_3 
REMARK    2  A    between atoms: C_5  and  N_6 
REMARK       I    between atoms: N_6  and  C_7 
REMARK       I    between atoms: C_7  and  N_9 
REMARK    3  A    between atoms: N_9  and  C_10 
ROOT
HETATM    1  N   UNL     1     -41.442 -48.838  10.457  1.00  0.00    -0.306 N 
HETATM    2  C   UNL     1     -41.423 -49.624  11.586  1.00  0.00     0.321 C 
HETATM    3  O   UNL     1     -41.975 -49.365  12.651  1.00  0.00    -0.247 OA
HETATM    4  N   UNL     1     -40.666 -50.770  11.440  1.00  0.00    -0.338 N 
HETATM    5  H   UNL     1     -40.950 -49.145   9.633  1.00  0.00     0.171 HD
HETATM    6  H   UNL     1     -40.431 -51.094  10.514  1.00  0.00     0.164 HD
ENDROOT
BRANCH   1   7
HETATM    7  C   UNL     1     -42.063 -47.598  10.407  1.00  0.00     0.070 A 
HETATM    8  C   UNL     1     -41.627 -46.422  10.970  1.00  0.00     0.141 A 
HETATM    9  N   UNL     1     -42.524 -45.459  10.616  1.00  0.00    -0.302 N 
HETATM   10  N   UNL     1     -43.550 -45.934   9.885  1.00  0.00    -0.308 N 
HETATM   11  C   UNL     1     -43.262 -47.236   9.756  1.00  0.00     0.138 A 
ATOM     12  HN  UNL     1     -44.353 -45.424   9.517  1.00  0.00     0.186 HD
BRANCH   9  13
HETATM   13  C   UNL     1     -42.405 -44.048  10.918  1.00  0.00     0.143 C 
HETATM   14  C   UNL     1     -41.178 -43.737  11.755  1.00  0.00     0.028 C 
ENDBRANCH   9  13
ENDBRANCH   1   7
BRANCH   4  15
HETATM   15  C   UNL     1     -40.586 -51.707  12.562  1.00  0.00     0.086 C 
HETATM   16  C   UNL     1     -39.236 -51.582  13.277  1.00  0.00     0.025 C 
HETATM   17  C   UNL     1     -39.309 -52.111  14.709  1.00  0.00     0.002 C 
HETATM   18  C   UNL     1     -39.073 -53.609  14.872  1.00  0.00     0.000 C 
HETATM   19  C   UNL     1     -39.615 -54.532  13.784  1.00  0.00     0.000 C 
HETATM   20  C   UNL     1     -40.988 -54.158  13.236  1.00  0.00     0.002 C 
HETATM   21  C   UNL     1     -40.915 -53.134  12.103  1.00  0.00     0.025 C 
ENDBRANCH   4  15
TORSDOF 3
ENDMDL
MODEL 8
REMARK VINA RESULT:      -5.2      2.954      7.118
REMARK  3 active torsions:
REMARK  status: ('A' for Active; 'I' for Inactive)
REMARK    1  A    between atoms: C_2  and  N_3 
REMARK    2  A    between atoms: C_5  and  N_6 
REMARK       I    between atoms: N_6  and  C_7 
REMARK       I    between atoms: C_7  and  N_9 
REMARK    3  A    between atoms: N_9  and  C_10 
ROOT
HETATM    1  N   UNL     1     -42.110 -50.351  11.941  1.00  0.00    -0.306 N 
HETATM    2  C   UNL     1     -41.127 -49.396  12.059  1.00  0.00     0.321 C 
HETATM    3  O   UNL     1     -39.998 -49.581  12.506  1.00  0.00    -0.247 OA
HETATM    4  N   UNL     1     -41.532 -48.141  11.652  1.00  0.00    -0.338 N 
HETATM    5  H   UNL     1     -43.007 -50.090  11.561  1.00  0.00     0.171 HD
HETATM    6  H   UNL     1     -42.349 -48.049  11.068  1.00  0.00     0.164 HD
ENDROOT
BRANCH   1   7
HETATM    7  C   UNL     1     -41.954 -51.659  12.374  1.00  0.00     0.070 A 
HETATM    8  C   UNL     1     -42.515 -52.244  13.484  1.00  0.00     0.141 A 
HETATM    9  N   UNL     1     -42.130 -53.551  13.479  1.00  0.00    -0.302 N 
HETATM   10  N   UNL     1     -41.314 -53.859  12.454  1.00  0.00    -0.308 N 
HETATM   11  C   UNL     1     -41.214 -52.705  11.781  1.00  0.00     0.138 A 
ATOM     12  HN  UNL     1     -40.877 -54.755  12.240  1.00  0.00     0.186 HD
BRANCH   9  13
HETATM   13  C   UNL     1     -42.568 -54.560  14.421  1.00  0.00     0.143 C 
HETATM   14  C   UNL     1     -44.069 -54.782  14.374  1.00  0.00     0.028 C 
ENDBRANCH   9  13
ENDBRANCH   1   7
BRANCH   4  15
HETATM   15  C   UNL     1     -40.568 -47.040  11.704  1.00  0.00     0.086 C 
HETATM   16  C   UNL     1     -40.588 -46.365  13.080  1.00  0.00     0.025 C 
HETATM   17  C   UNL     1     -39.287 -45.613  13.356  1.00  0.00     0.002 C 
HETATM   18  C   UNL     1     -39.229 -44.181  12.833  1.00  0.00     0.000 C 
HETATM   19  C   UNL     1     -39.908 -43.888  11.499  1.00  0.00     0.000 C 
HETATM   20  C   UNL     1     -39.740 -44.962  10.431  1.00  0.00     0.002 C 
HETATM   21  C   UNL     1     -40.788 -46.071  10.534  1.00  0.00     0.025 C 
ENDBRANCH   4  15
TORSDOF 3
ENDMDL
MODEL 9
REMARK VINA RESULT:      -5.0      2.412      3.644
REMARK  3 active torsions:
REMARK  status: ('A' for Active; 'I' for Inactive)
REMARK    1  A    between atoms: C_2  and  N_3 
REMARK    2  A    between atoms: C_5  and  N_6 
REMARK       I    between atoms: N_6  and  C_7 
REMARK       I    between atoms: C_7  and  N_9 
REMARK    3  A    between atoms: N_9  and  C_10 
ROOT
HETATM    1  N   UNL     1     -40.607 -51.248  11.768  1.00  0.00    -0.306 N 
HETATM    2  C   UNL     1     -40.805 -51.728  13.042  1.00  0.00     0.321 C 
HETATM    3  O   UNL     1     -40.888 -51.047  14.060  1.00  0.00    -0.247 OA
HETATM    4  N   UNL     1     -40.870 -53.106  13.102  1.00  0.00    -0.338 N 
HETATM    5  H   UNL     1     -40.551 -51.898  10.999  1.00  0.00     0.171 HD
HETATM    6  H   UNL     1     -41.050 -53.631  12.260  1.00  0.00     0.164 HD
ENDROOT
BRANCH   1   7
HETATM    7  C   UNL     1     -40.421 -49.903  11.484  1.00  0.00     0.070 A 
HETATM    8  C   UNL     1     -41.366 -48.999  11.061  1.00  0.00     0.141 A 
HETATM    9  N   UNL     1     -40.742 -47.792  10.964  1.00  0.00    -0.302 N 
HETATM   10  N   UNL     1     -39.429 -47.848  11.261  1.00  0.00    -0.308 N 
HETATM   11  C   UNL     1     -39.239 -49.135  11.581  1.00  0.00     0.138 A 
ATOM     12  HN  UNL     1     -38.745 -47.093  11.245  1.00  0.00     0.186 HD
BRANCH   9  13
HETATM   13  C   UNL     1     -41.386 -46.537  10.639  1.00  0.00     0.143 C 
HETATM   14  C   UNL     1     -40.407 -45.377  10.599  1.00  0.00     0.028 C 
ENDBRANCH   9  13
ENDBRANCH   1   7
BRANCH   4  15
HETATM   15  C   UNL     1     -41.103 -53.742  14.400  1.00  0.00     0.086 C 
HETATM   16  C   UNL     1     -39.905 -54.607  14.805  1.00  0.00     0.025 C 
HETATM   17  C   UNL     1     -39.863 -54.837  16.315  1.00  0.00     0.002 C 
HETATM   18  C   UNL     1     -40.681 -56.020  16.824  1.00  0.00     0.000 C 
HETATM   19  C   UNL     1     -42.011 -56.308  16.134  1.00  0.00     0.000 C 
HETATM   20  C   UNL     1     -42.832 -55.079  15.760  1.00  0.00     0.002 C 
HETATM   21  C   UNL     1     -42.441 -54.496  14.401  1.00  0.00     0.025 C 
ENDBRANCH   4  15
TORSDOF 3
ENDMDL
