MODEL 1
REMARK VINA RESULT:      -6.1      0.000      0.000
REMARK  5 active torsions:
REMARK  status: ('A' for Active; 'I' for Inactive)
REMARK    1  A    between atoms: C_2  and  C_3 
REMARK    2  A    between atoms: C_6  and  C_7 
REMARK    3  A    between atoms: C_7  and  C_8 
REMARK    4  A    between atoms: C_8  and  N_9 
REMARK       I    between atoms: N_9  and  C_10 
REMARK    5  A    between atoms: C_10  and  C_12 
ROOT
HETATM    1  C   UNL     1     -42.205 -50.613  13.113  1.00  0.00     0.129 C 
ENDROOT
BRANCH   1   2
HETATM    2  C   UNL     1     -41.329 -50.459  11.870  1.00  0.00     0.084 C 
BRANCH   2   3
HETATM    3  C   UNL     1     -41.393 -49.059  11.349  1.00  0.00     0.053 A 
HETATM    4  N   UNL     1     -42.344 -48.603  10.563  1.00  0.00    -0.356 N 
HETATM    5  C   UNL     1     -42.110 -47.270  10.249  1.00  0.00     0.022 A 
ATOM      6  HN  UNL     1     -43.139 -49.150  10.230  1.00  0.00     0.166 HD
HETATM    7  C   UNL     1     -40.958 -46.738  10.805  1.00  0.00     0.003 A 
HETATM    8  S   UNL     1     -40.168 -47.925  11.754  1.00  0.00    -0.080 SA
HETATM    9  C   UNL     1     -40.392 -45.368  10.676  1.00  0.00     0.058 C 
BRANCH   5  10
HETATM   10  C   UNL     1     -43.098 -46.568   9.372  1.00  0.00     0.054 C 
HETATM   11  C   UNL     1     -43.737 -47.497   8.354  1.00  0.00     0.011 C 
ENDBRANCH   5  10
ENDBRANCH   2   3
ENDBRANCH   1   2
BRANCH   1  12
HETATM   12  N   UNL     1     -43.497 -51.212  12.813  1.00  0.00    -0.360 N 
HETATM   13  C   UNL     1     -43.754 -52.529  13.126  1.00  0.00     0.221 C 
HETATM   14  O   UNL     1     -42.906 -53.243  13.655  1.00  0.00    -0.273 OA
HETATM   15  H   UNL     1     -44.205 -50.647  12.364  1.00  0.00     0.162 HD
BRANCH  13  16
HETATM   16  C   UNL     1     -45.148 -53.030  12.727  1.00  0.00     0.078 C 
HETATM   17  C   UNL     1     -46.203 -51.916  12.710  1.00  0.00     0.014 C 
HETATM   18  C   UNL     1     -46.576 -51.438  14.112  1.00  0.00     0.001 C 
HETATM   19  C   UNL     1     -47.005 -52.589  15.018  1.00  0.00     0.000 C 
HETATM   20  C   UNL     1     -45.980 -53.717  15.042  1.00  0.00     0.001 C 
HETATM   21  C   UNL     1     -45.609 -54.184  13.634  1.00  0.00     0.014 C 
ENDBRANCH  13  16
ENDBRANCH   1  12
TORSDOF 5
ENDMDL
MODEL 2
REMARK VINA RESULT:      -5.8      3.477      4.146
REMARK  5 active torsions:
REMARK  status: ('A' for Active; 'I' for Inactive)
REMARK    1  A    between atoms: C_2  and  C_3 
REMARK    2  A    between atoms: C_6  and  C_7 
REMARK    3  A    between atoms: C_7  and  C_8 
REMARK    4  A    between atoms: C_8  and  N_9 
REMARK       I    between atoms: N_9  and  C_10 
REMARK    5  A    between atoms: C_10  and  C_12 
ROOT
HETATM    1  C   UNL     1     -41.998 -54.286  13.999  1.00  0.00     0.129 C 
ENDROOT
BRANCH   1   2
HETATM    2  C   UNL     1     -40.953 -54.089  12.901  1.00  0.00     0.084 C 
BRANCH   2   3
HETATM    3  C   UNL     1     -40.177 -52.832  13.130  1.00  0.00     0.053 A 
HETATM    4  N   UNL     1     -39.915 -51.942  12.197  1.00  0.00    -0.356 N 
HETATM    5  C   UNL     1     -39.169 -50.896  12.727  1.00  0.00     0.022 A 
ATOM      6  HN  UNL     1     -40.216 -52.010  11.225  1.00  0.00     0.166 HD
HETATM    7  C   UNL     1     -38.864 -51.026  14.073  1.00  0.00     0.003 A 
HETATM    8  S   UNL     1     -39.546 -52.473  14.686  1.00  0.00    -0.080 SA
HETATM    9  C   UNL     1     -38.082 -50.119  14.956  1.00  0.00     0.058 C 
BRANCH   5  10
HETATM   10  C   UNL     1     -38.784 -49.773  11.818  1.00  0.00     0.054 C 
HETATM   11  C   UNL     1     -37.414 -49.972  11.191  1.00  0.00     0.011 C 
ENDBRANCH   5  10
ENDBRANCH   2   3
ENDBRANCH   1   2
BRANCH   1  12
HETATM   12  N   UNL     1     -43.352 -54.035  13.529  1.00  0.00    -0.360 N 
HETATM   13  C   UNL     1     -44.441 -54.328  14.323  1.00  0.00     0.221 C 
HETATM   14  O   UNL     1     -44.310 -54.819  15.441  1.00  0.00    -0.273 OA
HETATM   15  H   UNL     1     -43.485 -53.645  12.606  1.00  0.00     0.162 HD
BRANCH  13  16
HETATM   16  C   UNL     1     -45.805 -54.035  13.686  1.00  0.00     0.078 C 
HETATM   17  C   UNL     1     -45.781 -52.818  12.751  1.00  0.00     0.014 C 
HETATM   18  C   UNL     1     -45.646 -51.498  13.508  1.00  0.00     0.001 C 
HETATM   19  C   UNL     1     -46.712 -51.342  14.589  1.00  0.00     0.000 C 
HETATM   20  C   UNL     1     -46.768 -52.545  15.523  1.00  0.00     0.001 C 
HETATM   21  C   UNL     1     -46.896 -53.861  14.755  1.00  0.00     0.014 C 
ENDBRANCH  13  16
ENDBRANCH   1  12
TORSDOF 5
ENDMDL
MODEL 3
REMARK VINA RESULT:      -5.5      3.134      5.613
REMARK  5 active torsions:
REMARK  status: ('A' for Active; 'I' for Inactive)
REMARK    1  A    between atoms: C_2  and  C_3 
REMARK    2  A    between atoms: C_6  and  C_7 
REMARK    3  A    between atoms: C_7  and  C_8 
REMARK    4  A    between atoms: C_8  and  N_9 
REMARK       I    between atoms: N_9  and  C_10 
REMARK    5  A    between atoms: C_10  and  C_12 
ROOT
HETATM    1  C   UNL     1     -42.343 -50.415  12.718  1.00  0.00     0.129 C 
ENDROOT
BRANCH   1   2
HETATM    2  C   UNL     1     -41.448 -51.528  12.173  1.00  0.00     0.084 C 
BRANCH   2   3
HETATM    3  C   UNL     1     -41.256 -52.600  13.198  1.00  0.00     0.053 A 
HETATM    4  N   UNL     1     -42.221 -53.363  13.663  1.00  0.00    -0.356 N 
HETATM    5  C   UNL     1     -41.719 -54.250  14.608  1.00  0.00     0.022 A 
ATOM      6  HN  UNL     1     -43.198 -53.310  13.373  1.00  0.00     0.166 HD
HETATM    7  C   UNL     1     -40.360 -54.129  14.852  1.00  0.00     0.003 A 
HETATM    8  S   UNL     1     -39.700 -52.897  13.862  1.00  0.00    -0.080 SA
HETATM    9  C   UNL     1     -39.498 -54.891  15.794  1.00  0.00     0.058 C 
BRANCH   5  10
HETATM   10  C   UNL     1     -42.669 -55.216  15.243  1.00  0.00     0.054 C 
HETATM   11  C   UNL     1     -43.232 -54.701  16.557  1.00  0.00     0.011 C 
ENDBRANCH   5  10
ENDBRANCH   2   3
ENDBRANCH   1   2
BRANCH   1  12
HETATM   12  N   UNL     1     -43.758 -50.745  12.629  1.00  0.00    -0.360 N 
HETATM   13  C   UNL     1     -44.510 -50.938  13.768  1.00  0.00     0.221 C 
HETATM   14  O   UNL     1     -44.017 -50.851  14.889  1.00  0.00    -0.273 OA
HETATM   15  H   UNL     1     -44.182 -50.836  11.716  1.00  0.00     0.162 HD
BRANCH  13  16
HETATM   16  C   UNL     1     -45.978 -51.305  13.519  1.00  0.00     0.078 C 
HETATM   17  C   UNL     1     -46.792 -51.434  14.814  1.00  0.00     0.014 C 
HETATM   18  C   UNL     1     -46.426 -52.681  15.616  1.00  0.00     0.001 C 
HETATM   19  C   UNL     1     -46.520 -53.953  14.778  1.00  0.00     0.000 C 
HETATM   20  C   UNL     1     -45.732 -53.847  13.477  1.00  0.00     0.001 C 
HETATM   21  C   UNL     1     -46.101 -52.591  12.685  1.00  0.00     0.014 C 
ENDBRANCH  13  16
ENDBRANCH   1  12
TORSDOF 5
ENDMDL
MODEL 4
REMARK VINA RESULT:      -5.4      2.367      6.912
REMARK  5 active torsions:
REMARK  status: ('A' for Active; 'I' for Inactive)
REMARK    1  A    between atoms: C_2  and  C_3 
REMARK    2  A    between atoms: C_6  and  C_7 
REMARK    3  A    between atoms: C_7  and  C_8 
REMARK    4  A    between atoms: C_8  and  N_9 
REMARK       I    between atoms: N_9  and  C_10 
REMARK    5  A    between atoms: C_10  and  C_12 
ROOT
HETATM    1  C   UNL     1     -41.018 -50.894  13.029  1.00  0.00     0.129 C 
ENDROOT
BRANCH   1   2
HETATM    2  C   UNL     1     -41.379 -52.156  12.247  1.00  0.00     0.084 C 
BRANCH   2   3
HETATM    3  C   UNL     1     -42.748 -52.633  12.617  1.00  0.00     0.053 A 
HETATM    4  N   UNL     1     -43.840 -51.908  12.505  1.00  0.00    -0.356 N 
HETATM    5  C   UNL     1     -44.943 -52.633  12.940  1.00  0.00     0.022 A 
ATOM      6  HN  UNL     1     -43.873 -50.951  12.151  1.00  0.00     0.166 HD
HETATM    7  C   UNL     1     -44.655 -53.910  13.393  1.00  0.00     0.003 A 
HETATM    8  S   UNL     1     -42.976 -54.213  13.248  1.00  0.00    -0.080 SA
HETATM    9  C   UNL     1     -45.571 -54.949  13.936  1.00  0.00     0.058 C 
BRANCH   5  10
HETATM   10  C   UNL     1     -46.287 -51.978  12.875  1.00  0.00     0.054 C 
HETATM   11  C   UNL     1     -46.731 -51.423  14.218  1.00  0.00     0.011 C 
ENDBRANCH   5  10
ENDBRANCH   2   3
ENDBRANCH   1   2
BRANCH   1  12
HETATM   12  N   UNL     1     -40.944 -49.715  12.179  1.00  0.00    -0.360 N 
HETATM   13  C   UNL     1     -42.007 -48.842  12.088  1.00  0.00     0.221 C 
HETATM   14  O   UNL     1     -43.050 -49.032  12.706  1.00  0.00    -0.273 OA
HETATM   15  H   UNL     1     -40.099 -49.546  11.649  1.00  0.00     0.162 HD
BRANCH  13  16
HETATM   16  C   UNL     1     -41.794 -47.660  11.135  1.00  0.00     0.078 C 
HETATM   17  C   UNL     1     -40.362 -47.109  11.171  1.00  0.00     0.014 C 
HETATM   18  C   UNL     1     -40.054 -46.358  12.464  1.00  0.00     0.001 C 
HETATM   19  C   UNL     1     -41.074 -45.259  12.749  1.00  0.00     0.000 C 
HETATM   20  C   UNL     1     -42.507 -45.775  12.704  1.00  0.00     0.001 C 
HETATM   21  C   UNL     1     -42.803 -46.532  11.408  1.00  0.00     0.014 C 
ENDBRANCH  13  16
ENDBRANCH   1  12
TORSDOF 5
ENDMDL
MODEL 5
REMARK VINA RESULT:      -5.3      3.586      7.266
REMARK  5 active torsions:
REMARK  status: ('A' for Active; 'I' for Inactive)
REMARK    1  A    between atoms: C_2  and  C_3 
REMARK    2  A    between atoms: C_6  and  C_7 
REMARK    3  A    between atoms: C_7  and  C_8 
REMARK    4  A    between atoms: C_8  and  N_9 
REMARK       I    between atoms: N_9  and  C_10 
REMARK    5  A    between atoms: C_10  and  C_12 
ROOT
HETATM    1  C   UNL     1     -40.719 -53.462  14.194  1.00  0.00     0.129 C 
ENDROOT
BRANCH   1   2
HETATM    2  C   UNL     1     -41.647 -54.209  13.236  1.00  0.00     0.084 C 
BRANCH   2   3
HETATM    3  C   UNL     1     -43.075 -53.845  13.492  1.00  0.00     0.053 A 
HETATM    4  N   UNL     1     -43.664 -52.772  13.009  1.00  0.00    -0.356 N 
HETATM    5  C   UNL     1     -44.985 -52.717  13.438  1.00  0.00     0.022 A 
ATOM      6  HN  UNL     1     -43.216 -52.081  12.407  1.00  0.00     0.166 HD
HETATM    7  C   UNL     1     -45.370 -53.761  14.264  1.00  0.00     0.003 A 
HETATM    8  S   UNL     1     -44.059 -54.841  14.485  1.00  0.00    -0.080 SA
HETATM    9  C   UNL     1     -46.685 -54.017  14.912  1.00  0.00     0.058 C 
BRANCH   5  10
HETATM   10  C   UNL     1     -45.828 -51.570  12.978  1.00  0.00     0.054 C 
HETATM   11  C   UNL     1     -46.716 -51.935  11.800  1.00  0.00     0.011 C 
ENDBRANCH   5  10
ENDBRANCH   2   3
ENDBRANCH   1   2
BRANCH   1  12
HETATM   12  N   UNL     1     -39.702 -52.691  13.496  1.00  0.00    -0.360 N 
HETATM   13  C   UNL     1     -39.978 -51.428  13.017  1.00  0.00     0.221 C 
HETATM   14  O   UNL     1     -41.086 -50.917  13.150  1.00  0.00    -0.273 OA
HETATM   15  H   UNL     1     -38.786 -53.098  13.362  1.00  0.00     0.162 HD
BRANCH  13  16
HETATM   16  C   UNL     1     -38.818 -50.746  12.281  1.00  0.00     0.078 C 
HETATM   17  C   UNL     1     -37.471 -50.913  12.998  1.00  0.00     0.014 C 
HETATM   18  C   UNL     1     -37.382 -50.089  14.281  1.00  0.00     0.001 C 
HETATM   19  C   UNL     1     -37.700 -48.616  14.042  1.00  0.00     0.000 C 
HETATM   20  C   UNL     1     -39.026 -48.421  13.317  1.00  0.00     0.001 C 
HETATM   21  C   UNL     1     -39.108 -49.256  12.038  1.00  0.00     0.014 C 
ENDBRANCH  13  16
ENDBRANCH   1  12
TORSDOF 5
ENDMDL
MODEL 6
REMARK VINA RESULT:      -5.3      3.822      4.497
REMARK  5 active torsions:
REMARK  status: ('A' for Active; 'I' for Inactive)
REMARK    1  A    between atoms: C_2  and  C_3 
REMARK    2  A    between atoms: C_6  and  C_7 
REMARK    3  A    between atoms: C_7  and  C_8 
REMARK    4  A    between atoms: C_8  and  N_9 
REMARK       I    between atoms: N_9  and  C_10 
REMARK    5  A    between atoms: C_10  and  C_12 
ROOT
HETATM    1  C   UNL     1     -41.372 -53.993  13.804  1.00  0.00     0.129 C 
ENDROOT
BRANCH   1   2
HETATM    2  C   UNL     1     -41.057 -53.149  15.038  1.00  0.00     0.084 C 
BRANCH   2   3
HETATM    3  C   UNL     1     -39.880 -52.261  14.785  1.00  0.00     0.053 A 
HETATM    4  N   UNL     1     -39.268 -52.155  13.625  1.00  0.00    -0.356 N 
HETATM    5  C   UNL     1     -38.210 -51.258  13.722  1.00  0.00     0.022 A 
ATOM      6  HN  UNL     1     -39.531 -52.658  12.778  1.00  0.00     0.166 HD
HETATM    7  C   UNL     1     -38.033 -50.705  14.979  1.00  0.00     0.003 A 
HETATM    8  S   UNL     1     -39.228 -51.303  16.051  1.00  0.00    -0.080 SA
HETATM    9  C   UNL     1     -37.009 -49.732  15.448  1.00  0.00     0.058 C 
BRANCH   5  10
HETATM   10  C   UNL     1     -37.398 -50.991  12.494  1.00  0.00     0.054 C 
HETATM   11  C   UNL     1     -37.805 -49.705  11.794  1.00  0.00     0.011 C 
ENDBRANCH   5  10
ENDBRANCH   2   3
ENDBRANCH   1   2
BRANCH   1  12
HETATM   12  N   UNL     1     -42.799 -54.218  13.633  1.00  0.00    -0.360 N 
HETATM   13  C   UNL     1     -43.581 -53.311  12.951  1.00  0.00     0.221 C 
HETATM   14  O   UNL     1     -43.108 -52.282  12.476  1.00  0.00    -0.273 OA
HETATM   15  H   UNL     1     -43.213 -55.052  14.028  1.00  0.00     0.162 HD
BRANCH  13  16
HETATM   16  C   UNL     1     -45.070 -53.668  12.873  1.00  0.00     0.078 C 
HETATM   17  C   UNL     1     -45.953 -52.477  12.475  1.00  0.00     0.014 C 
HETATM   18  C   UNL     1     -46.074 -51.438  13.587  1.00  0.00     0.001 C 
HETATM   19  C   UNL     1     -46.540 -52.054  14.904  1.00  0.00     0.000 C 
HETATM   20  C   UNL     1     -45.689 -53.250  15.315  1.00  0.00     0.001 C 
HETATM   21  C   UNL     1     -45.569 -54.281  14.192  1.00  0.00     0.014 C 
ENDBRANCH  13  16
ENDBRANCH   1  12
TORSDOF 5
ENDMDL
MODEL 7
REMARK VINA RESULT:      -5.3      1.814      2.426
REMARK  5 active torsions:
REMARK  status: ('A' for Active; 'I' for Inactive)
REMARK    1  A    between atoms: C_2  and  C_3 
REMARK    2  A    between atoms: C_6  and  C_7 
REMARK    3  A    between atoms: C_7  and  C_8 
REMARK    4  A    between atoms: C_8  and  N_9 
REMARK       I    between atoms: N_9  and  C_10 
REMARK    5  A    between atoms: C_10  and  C_12 
ROOT
HETATM    1  C   UNL     1     -41.726 -53.139  13.552  1.00  0.00     0.129 C 
ENDROOT
BRANCH   1   2
HETATM    2  C   UNL     1     -41.033 -52.831  12.225  1.00  0.00     0.084 C 
BRANCH   2   3
HETATM    3  C   UNL     1     -40.779 -51.364  12.090  1.00  0.00     0.053 A 
HETATM    4  N   UNL     1     -41.479 -50.558  11.321  1.00  0.00    -0.356 N 
HETATM    5  C   UNL     1     -40.985 -49.262  11.410  1.00  0.00     0.022 A 
ATOM      6  HN  UNL     1     -42.269 -50.843  10.742  1.00  0.00     0.166 HD
HETATM    7  C   UNL     1     -39.894 -49.114  12.250  1.00  0.00     0.003 A 
HETATM    8  S   UNL     1     -39.495 -50.623  12.957  1.00  0.00    -0.080 SA
HETATM    9  C   UNL     1     -39.109 -47.892  12.574  1.00  0.00     0.058 C 
BRANCH   5  10
HETATM   10  C   UNL     1     -41.665 -48.192  10.614  1.00  0.00     0.054 C 
HETATM   11  C   UNL     1     -43.092 -47.943  11.071  1.00  0.00     0.011 C 
ENDBRANCH   5  10
ENDBRANCH   2   3
ENDBRANCH   1   2
BRANCH   1  12
HETATM   12  N   UNL     1     -42.759 -52.167  13.879  1.00  0.00    -0.360 N 
HETATM   13  C   UNL     1     -44.027 -52.281  13.352  1.00  0.00     0.221 C 
HETATM   14  O   UNL     1     -44.327 -53.191  12.585  1.00  0.00    -0.273 OA
HETATM   15  H   UNL     1     -42.530 -51.401  14.498  1.00  0.00     0.162 HD
BRANCH  13  16
HETATM   16  C   UNL     1     -45.002 -51.171  13.765  1.00  0.00     0.078 C 
HETATM   17  C   UNL     1     -44.818 -50.722  15.221  1.00  0.00     0.014 C 
HETATM   18  C   UNL     1     -45.299 -51.768  16.224  1.00  0.00     0.001 C 
HETATM   19  C   UNL     1     -46.738 -52.202  15.959  1.00  0.00     0.000 C 
HETATM   20  C   UNL     1     -46.953 -52.639  14.515  1.00  0.00     0.001 C 
HETATM   21  C   UNL     1     -46.462 -51.588  13.519  1.00  0.00     0.014 C 
ENDBRANCH  13  16
ENDBRANCH   1  12
TORSDOF 5
ENDMDL
MODEL 8
REMARK VINA RESULT:      -5.3      1.481      1.742
REMARK  5 active torsions:
REMARK  status: ('A' for Active; 'I' for Inactive)
REMARK    1  A    between atoms: C_2  and  C_3 
REMARK    2  A    between atoms: C_6  and  C_7 
REMARK    3  A    between atoms: C_7  and  C_8 
REMARK    4  A    between atoms: C_8  and  N_9 
REMARK       I    between atoms: N_9  and  C_10 
REMARK    5  A    between atoms: C_10  and  C_12 
ROOT
HETATM    1  C   UNL     1     -40.808 -51.597  13.730  1.00  0.00     0.129 C 
ENDROOT
BRANCH   1   2
HETATM    2  C   UNL     1     -40.058 -51.343  12.423  1.00  0.00     0.084 C 
BRANCH   2   3
HETATM    3  C   UNL     1     -40.392 -49.990  11.878  1.00  0.00     0.053 A 
HETATM    4  N   UNL     1     -41.446 -49.730  11.134  1.00  0.00    -0.356 N 
HETATM    5  C   UNL     1     -41.464 -48.386  10.782  1.00  0.00     0.022 A 
ATOM      6  HN  UNL     1     -42.148 -50.416  10.856  1.00  0.00     0.166 HD
HETATM    7  C   UNL     1     -40.396 -47.646  11.264  1.00  0.00     0.003 A 
HETATM    8  S   UNL     1     -39.366 -48.651  12.194  1.00  0.00    -0.080 SA
HETATM    9  C   UNL     1     -40.085 -46.203  11.078  1.00  0.00     0.058 C 
BRANCH   5  10
HETATM   10  C   UNL     1     -42.601 -47.892   9.945  1.00  0.00     0.054 C 
HETATM   11  C   UNL     1     -43.829 -47.552  10.772  1.00  0.00     0.011 C 
ENDBRANCH   5  10
ENDBRANCH   2   3
ENDBRANCH   1   2
BRANCH   1  12
HETATM   12  N   UNL     1     -41.699 -52.745  13.647  1.00  0.00    -0.360 N 
HETATM   13  C   UNL     1     -43.004 -52.597  13.230  1.00  0.00     0.221 C 
HETATM   14  O   UNL     1     -43.464 -51.499  12.929  1.00  0.00    -0.273 OA
HETATM   15  H   UNL     1     -41.346 -53.657  13.904  1.00  0.00     0.162 HD
BRANCH  13  16
HETATM   16  C   UNL     1     -43.830 -53.889  13.217  1.00  0.00     0.078 C 
HETATM   17  C   UNL     1     -45.338 -53.636  13.075  1.00  0.00     0.014 C 
HETATM   18  C   UNL     1     -45.955 -53.039  14.338  1.00  0.00     0.001 C 
HETATM   19  C   UNL     1     -45.651 -53.875  15.579  1.00  0.00     0.000 C 
HETATM   20  C   UNL     1     -44.160 -54.154  15.736  1.00  0.00     0.001 C 
HETATM   21  C   UNL     1     -43.551 -54.745  14.463  1.00  0.00     0.014 C 
ENDBRANCH  13  16
ENDBRANCH   1  12
TORSDOF 5
ENDMDL
MODEL 9
REMARK VINA RESULT:      -5.2      2.831      3.512
REMARK  5 active torsions:
REMARK  status: ('A' for Active; 'I' for Inactive)
REMARK    1  A    between atoms: C_2  and  C_3 
REMARK    2  A    between atoms: C_6  and  C_7 
REMARK    3  A    between atoms: C_7  and  C_8 
REMARK    4  A    between atoms: C_8  and  N_9 
REMARK       I    between atoms: N_9  and  C_10 
REMARK    5  A    between atoms: C_10  and  C_12 
ROOT
HETATM    1  C   UNL     1     -41.067 -50.280  11.682  1.00  0.00     0.129 C 
ENDROOT
BRANCH   1   2
HETATM    2  C   UNL     1     -42.261 -49.513  12.250  1.00  0.00     0.084 C 
BRANCH   2   3
HETATM    3  C   UNL     1     -42.487 -48.247  11.486  1.00  0.00     0.053 A 
HETATM    4  N   UNL     1     -42.853 -48.199  10.224  1.00  0.00    -0.356 N 
HETATM    5  C   UNL     1     -42.968 -46.877   9.808  1.00  0.00     0.022 A 
ATOM      6  HN  UNL     1     -43.028 -49.013   9.635  1.00  0.00     0.166 HD
HETATM    7  C   UNL     1     -42.667 -45.936  10.780  1.00  0.00     0.003 A 
HETATM    8  S   UNL     1     -42.256 -46.724  12.244  1.00  0.00    -0.080 SA
HETATM    9  C   UNL     1     -42.668 -44.451  10.689  1.00  0.00     0.058 C 
BRANCH   5  10
HETATM   10  C   UNL     1     -43.392 -46.616   8.398  1.00  0.00     0.054 C 
HETATM   11  C   UNL     1     -43.531 -47.892   7.585  1.00  0.00     0.011 C 
ENDBRANCH   5  10
ENDBRANCH   2   3
ENDBRANCH   1   2
BRANCH   1  12
HETATM   12  N   UNL     1     -41.189 -51.718  11.871  1.00  0.00    -0.360 N 
HETATM   13  C   UNL     1     -40.445 -52.370  12.830  1.00  0.00     0.221 C 
HETATM   14  O   UNL     1     -39.649 -51.769  13.546  1.00  0.00    -0.273 OA
HETATM   15  H   UNL     1     -41.828 -52.236  11.282  1.00  0.00     0.162 HD
BRANCH  13  16
HETATM   16  C   UNL     1     -40.659 -53.887  12.896  1.00  0.00     0.078 C 
HETATM   17  C   UNL     1     -42.088 -54.274  13.301  1.00  0.00     0.014 C 
HETATM   18  C   UNL     1     -42.381 -53.985  14.771  1.00  0.00     0.001 C 
HETATM   19  C   UNL     1     -41.353 -54.625  15.701  1.00  0.00     0.000 C 
HETATM   20  C   UNL     1     -39.923 -54.269  15.312  1.00  0.00     0.001 C 
HETATM   21  C   UNL     1     -39.642 -54.556  13.836  1.00  0.00     0.014 C 
ENDBRANCH  13  16
ENDBRANCH   1  12
TORSDOF 5
ENDMDL
