MODEL 1
REMARK VINA RESULT:      -6.3      0.000      0.000
REMARK  5 active torsions:
REMARK  status: ('A' for Active; 'I' for Inactive)
REMARK    1  A    between atoms: N_5  and  C_6 
REMARK    2  A    between atoms: C_6  and  C_7 
REMARK    3  A    between atoms: C_7  and  N_8 
REMARK       I    between atoms: N_8  and  C_9 
REMARK    4  A    between atoms: C_9  and  C_11 
REMARK    5  A    between atoms: C_11  and  N_12 
ROOT
HETATM    1  N   UNL     1     -41.119 -51.484  11.577  1.00  0.00    -0.358 N 
HETATM    2  C   UNL     1     -41.095 -50.169  11.998  1.00  0.00     0.237 C 
HETATM    3  O   UNL     1     -41.530 -49.790  13.082  1.00  0.00    -0.272 OA
HETATM    4  H   UNL     1     -40.487 -51.720  10.810  1.00  0.00     0.162 HD
ENDROOT
BRANCH   1   5
HETATM    5  C   UNL     1     -41.573 -52.562  12.440  1.00  0.00     0.152 C 
BRANCH   5   6
HETATM    6  C   UNL     1     -43.073 -52.865  12.256  1.00  0.00     0.292 C 
BRANCH   6   7
HETATM    7  N   UNL     1     -43.802 -53.206  13.492  1.00  0.00     0.090 N 
HETATM    8  C   UNL     1     -45.174 -53.675  13.271  1.00  0.00     0.273 C 
HETATM    9  C   UNL     1     -46.125 -52.580  12.781  1.00  0.00     0.034 C 
HETATM   10  C   UNL     1     -46.132 -51.357  13.708  1.00  0.00    -0.015 C 
HETATM   11  C   UNL     1     -46.905 -51.640  14.998  1.00  0.00     0.010 C 
HETATM   12  C   UNL     1     -44.695 -50.907  14.007  1.00  0.00     0.034 C 
HETATM   13  C   UNL     1     -43.789 -52.070  14.431  1.00  0.00     0.273 C 
ENDBRANCH   6   7
ENDBRANCH   5   6
ENDBRANCH   1   5
BRANCH   2  14
HETATM   14  C   UNL     1     -40.545 -49.194  10.986  1.00  0.00     0.251 C 
BRANCH  14  15
HETATM   15  N   UNL     1     -41.517 -48.153  10.725  1.00  0.00    -0.288 N 
HETATM   16  N   UNL     1     -42.772 -48.520  10.390  1.00  0.00    -0.303 N 
HETATM   17  C   UNL     1     -43.380 -47.368  10.091  1.00  0.00     0.024 A 
ATOM     18  HN  UNL     1     -43.166 -49.461  10.369  1.00  0.00     0.186 HD
HETATM   19  C   UNL     1     -44.792 -47.354   9.645  1.00  0.00     0.070 C 
HETATM   20  C   UNL     1     -42.505 -46.267  10.234  1.00  0.00     0.052 A 
HETATM   21  C   UNL     1     -41.302 -46.803  10.640  1.00  0.00     0.027 A 
HETATM   22  C   UNL     1     -39.993 -46.160  10.912  1.00  0.00     0.070 C 
ENDBRANCH  14  15
ENDBRANCH   2  14
TORSDOF 5
ENDMDL
MODEL 2
REMARK VINA RESULT:      -5.6      1.369      1.947
REMARK  5 active torsions:
REMARK  status: ('A' for Active; 'I' for Inactive)
REMARK    1  A    between atoms: N_5  and  C_6 
REMARK    2  A    between atoms: C_6  and  C_7 
REMARK    3  A    between atoms: C_7  and  N_8 
REMARK       I    between atoms: N_8  and  C_9 
REMARK    4  A    between atoms: C_9  and  C_11 
REMARK    5  A    between atoms: C_11  and  N_12 
ROOT
HETATM    1  N   UNL     1     -41.036 -50.999  11.432  1.00  0.00    -0.358 N 
HETATM    2  C   UNL     1     -40.543 -49.949  12.181  1.00  0.00     0.237 C 
HETATM    3  O   UNL     1     -40.270 -50.031  13.376  1.00  0.00    -0.272 OA
HETATM    4  H   UNL     1     -40.952 -50.902  10.418  1.00  0.00     0.162 HD
ENDROOT
BRANCH   1   5
HETATM    5  C   UNL     1     -41.176 -52.339  11.978  1.00  0.00     0.152 C 
BRANCH   5   6
HETATM    6  C   UNL     1     -42.650 -52.743  12.163  1.00  0.00     0.292 C 
BRANCH   6   7
HETATM    7  N   UNL     1     -43.217 -52.460  13.495  1.00  0.00     0.090 N 
HETATM    8  C   UNL     1     -43.074 -53.560  14.455  1.00  0.00     0.273 C 
HETATM    9  C   UNL     1     -43.943 -54.777  14.128  1.00  0.00     0.034 C 
HETATM   10  C   UNL     1     -45.425 -54.408  13.970  1.00  0.00    -0.015 C 
HETATM   11  C   UNL     1     -46.079 -54.136  15.327  1.00  0.00     0.010 C 
HETATM   12  C   UNL     1     -45.578 -53.208  13.026  1.00  0.00     0.034 C 
HETATM   13  C   UNL     1     -44.630 -52.055  13.381  1.00  0.00     0.273 C 
ENDBRANCH   6   7
ENDBRANCH   5   6
ENDBRANCH   1   5
BRANCH   2  14
HETATM   14  C   UNL     1     -40.421 -48.643  11.434  1.00  0.00     0.251 C 
BRANCH  14  15
HETATM   15  N   UNL     1     -41.704 -48.273  10.875  1.00  0.00    -0.288 N 
HETATM   16  N   UNL     1     -41.846 -48.296   9.532  1.00  0.00    -0.303 N 
HETATM   17  C   UNL     1     -43.066 -47.790   9.326  1.00  0.00     0.024 A 
ATOM     18  HN  UNL     1     -41.177 -48.623   8.836  1.00  0.00     0.186 HD
HETATM   19  C   UNL     1     -43.591 -47.627   7.950  1.00  0.00     0.070 C 
HETATM   20  C   UNL     1     -43.697 -47.442  10.542  1.00  0.00     0.052 A 
HETATM   21  C   UNL     1     -42.791 -47.759  11.531  1.00  0.00     0.027 A 
HETATM   22  C   UNL     1     -42.857 -47.586  13.002  1.00  0.00     0.070 C 
ENDBRANCH  14  15
ENDBRANCH   2  14
TORSDOF 5
ENDMDL
MODEL 3
REMARK VINA RESULT:      -5.6      1.599      2.368
REMARK  5 active torsions:
REMARK  status: ('A' for Active; 'I' for Inactive)
REMARK    1  A    between atoms: N_5  and  C_6 
REMARK    2  A    between atoms: C_6  and  C_7 
REMARK    3  A    between atoms: C_7  and  N_8 
REMARK       I    between atoms: N_8  and  C_9 
REMARK    4  A    between atoms: C_9  and  C_11 
REMARK    5  A    between atoms: C_11  and  N_12 
ROOT
HETATM    1  N   UNL     1     -42.871 -52.830  12.018  1.00  0.00    -0.358 N 
HETATM    2  C   UNL     1     -42.435 -51.584  12.427  1.00  0.00     0.237 C 
HETATM    3  O   UNL     1     -43.122 -50.799  13.073  1.00  0.00    -0.272 OA
HETATM    4  H   UNL     1     -42.141 -53.493  11.750  1.00  0.00     0.162 HD
ENDROOT
BRANCH   1   5
HETATM    5  C   UNL     1     -44.163 -53.364  12.416  1.00  0.00     0.152 C 
BRANCH   5   6
HETATM    6  C   UNL     1     -44.235 -53.653  13.927  1.00  0.00     0.292 C 
BRANCH   6   7
HETATM    7  N   UNL     1     -45.597 -53.797  14.475  1.00  0.00     0.090 N 
HETATM    8  C   UNL     1     -46.575 -52.863  13.909  1.00  0.00     0.273 C 
HETATM    9  C   UNL     1     -46.350 -51.408  14.331  1.00  0.00     0.034 C 
HETATM   10  C   UNL     1     -46.292 -51.247  15.856  1.00  0.00    -0.015 C 
HETATM   11  C   UNL     1     -47.686 -51.354  16.481  1.00  0.00     0.010 C 
HETATM   12  C   UNL     1     -45.328 -52.274  16.464  1.00  0.00     0.034 C 
HETATM   13  C   UNL     1     -45.577 -53.696  15.946  1.00  0.00     0.273 C 
ENDBRANCH   6   7
ENDBRANCH   5   6
ENDBRANCH   1   5
BRANCH   2  14
HETATM   14  C   UNL     1     -41.048 -51.217  11.958  1.00  0.00     0.251 C 
BRANCH  14  15
HETATM   15  N   UNL     1     -40.976 -49.796  11.695  1.00  0.00    -0.288 N 
HETATM   16  N   UNL     1     -41.992 -49.220  11.016  1.00  0.00    -0.303 N 
HETATM   17  C   UNL     1     -41.581 -47.963  10.821  1.00  0.00     0.024 A 
ATOM     18  HN  UNL     1     -42.870 -49.646  10.720  1.00  0.00     0.186 HD
HETATM   19  C   UNL     1     -42.427 -47.001  10.077  1.00  0.00     0.070 C 
HETATM   20  C   UNL     1     -40.299 -47.743  11.374  1.00  0.00     0.052 A 
HETATM   21  C   UNL     1     -39.926 -48.948  11.930  1.00  0.00     0.027 A 
HETATM   22  C   UNL     1     -38.676 -49.358  12.614  1.00  0.00     0.070 C 
ENDBRANCH  14  15
ENDBRANCH   2  14
TORSDOF 5
ENDMDL
MODEL 4
REMARK VINA RESULT:      -5.5      3.104      4.308
REMARK  5 active torsions:
REMARK  status: ('A' for Active; 'I' for Inactive)
REMARK    1  A    between atoms: N_5  and  C_6 
REMARK    2  A    between atoms: C_6  and  C_7 
REMARK    3  A    between atoms: C_7  and  N_8 
REMARK       I    between atoms: N_8  and  C_9 
REMARK    4  A    between atoms: C_9  and  C_11 
REMARK    5  A    between atoms: C_11  and  N_12 
ROOT
HETATM    1  N   UNL     1     -42.588 -51.992  12.230  1.00  0.00    -0.358 N 
HETATM    2  C   UNL     1     -41.229 -52.165  12.054  1.00  0.00     0.237 C 
HETATM    3  O   UNL     1     -40.672 -53.259  12.074  1.00  0.00    -0.272 OA
HETATM    4  H   UNL     1     -42.970 -51.099  11.913  1.00  0.00     0.162 HD
ENDROOT
BRANCH   1   5
HETATM    5  C   UNL     1     -43.500 -53.117  12.351  1.00  0.00     0.152 C 
BRANCH   5   6
HETATM    6  C   UNL     1     -43.774 -53.491  13.820  1.00  0.00     0.292 C 
BRANCH   6   7
HETATM    7  N   UNL     1     -45.193 -53.707  14.160  1.00  0.00     0.090 N 
HETATM    8  C   UNL     1     -46.110 -52.730  13.563  1.00  0.00     0.273 C 
HETATM    9  C   UNL     1     -45.981 -51.325  14.157  1.00  0.00     0.034 C 
HETATM   10  C   UNL     1     -46.133 -51.322  15.684  1.00  0.00    -0.015 C 
HETATM   11  C   UNL     1     -47.594 -51.509  16.099  1.00  0.00     0.010 C 
HETATM   12  C   UNL     1     -45.233 -52.396  16.311  1.00  0.00     0.034 C 
HETATM   13  C   UNL     1     -45.374 -53.759  15.622  1.00  0.00     0.273 C 
ENDBRANCH   6   7
ENDBRANCH   5   6
ENDBRANCH   1   5
BRANCH   2  14
HETATM   14  C   UNL     1     -40.446 -50.885  11.897  1.00  0.00     0.251 C 
BRANCH  14  15
HETATM   15  N   UNL     1     -39.335 -50.869  12.825  1.00  0.00    -0.288 N 
HETATM   16  N   UNL     1     -39.568 -51.224  14.107  1.00  0.00    -0.303 N 
HETATM   17  C   UNL     1     -38.407 -50.987  14.727  1.00  0.00     0.024 A 
ATOM     18  HN  UNL     1     -40.431 -51.588  14.511  1.00  0.00     0.186 HD
HETATM   19  C   UNL     1     -38.265 -51.233  16.180  1.00  0.00     0.070 C 
HETATM   20  C   UNL     1     -37.437 -50.477  13.835  1.00  0.00     0.052 A 
HETATM   21  C   UNL     1     -38.065 -50.404  12.610  1.00  0.00     0.027 A 
HETATM   22  C   UNL     1     -37.582 -49.911  11.297  1.00  0.00     0.070 C 
ENDBRANCH  14  15
ENDBRANCH   2  14
TORSDOF 5
ENDMDL
MODEL 5
REMARK VINA RESULT:      -5.5      2.297      3.410
REMARK  5 active torsions:
REMARK  status: ('A' for Active; 'I' for Inactive)
REMARK    1  A    between atoms: N_5  and  C_6 
REMARK    2  A    between atoms: C_6  and  C_7 
REMARK    3  A    between atoms: C_7  and  N_8 
REMARK       I    between atoms: N_8  and  C_9 
REMARK    4  A    between atoms: C_9  and  C_11 
REMARK    5  A    between atoms: C_11  and  N_12 
ROOT
HETATM    1  N   UNL     1     -40.909 -53.571  14.770  1.00  0.00    -0.358 N 
HETATM    2  C   UNL     1     -40.238 -53.152  13.639  1.00  0.00     0.237 C 
HETATM    3  O   UNL     1     -40.351 -53.688  12.540  1.00  0.00    -0.272 OA
HETATM    4  H   UNL     1     -40.963 -52.895  15.535  1.00  0.00     0.162 HD
ENDROOT
BRANCH   1   5
HETATM    5  C   UNL     1     -41.901 -54.633  14.731  1.00  0.00     0.152 C 
BRANCH   5   6
HETATM    6  C   UNL     1     -43.341 -54.089  14.779  1.00  0.00     0.292 C 
BRANCH   6   7
HETATM    7  N   UNL     1     -44.045 -54.060  13.483  1.00  0.00     0.090 N 
HETATM    8  C   UNL     1     -43.811 -52.844  12.697  1.00  0.00     0.273 C 
HETATM    9  C   UNL     1     -44.457 -51.592  13.297  1.00  0.00     0.034 C 
HETATM   10  C   UNL     1     -45.961 -51.776  13.544  1.00  0.00    -0.015 C 
HETATM   11  C   UNL     1     -46.752 -51.721  12.234  1.00  0.00     0.010 C 
HETATM   12  C   UNL     1     -46.221 -53.087  14.299  1.00  0.00     0.034 C 
HETATM   13  C   UNL     1     -45.490 -54.281  13.674  1.00  0.00     0.273 C 
ENDBRANCH   6   7
ENDBRANCH   5   6
ENDBRANCH   1   5
BRANCH   2  14
HETATM   14  C   UNL     1     -39.282 -52.005  13.861  1.00  0.00     0.251 C 
BRANCH  14  15
HETATM   15  N   UNL     1     -39.661 -50.880  13.032  1.00  0.00    -0.288 N 
HETATM   16  N   UNL     1     -40.952 -50.485  13.042  1.00  0.00    -0.303 N 
HETATM   17  C   UNL     1     -41.009 -49.536  12.102  1.00  0.00     0.024 A 
ATOM     18  HN  UNL     1     -41.710 -50.831  13.631  1.00  0.00     0.186 HD
HETATM   19  C   UNL     1     -42.290 -48.860  11.791  1.00  0.00     0.070 C 
HETATM   20  C   UNL     1     -39.751 -49.333  11.491  1.00  0.00     0.052 A 
HETATM   21  C   UNL     1     -38.895 -50.220  12.108  1.00  0.00     0.027 A 
HETATM   22  C   UNL     1     -37.459 -50.509  11.873  1.00  0.00     0.070 C 
ENDBRANCH  14  15
ENDBRANCH   2  14
TORSDOF 5
ENDMDL
MODEL 6
REMARK VINA RESULT:      -5.5      2.798      6.600
REMARK  5 active torsions:
REMARK  status: ('A' for Active; 'I' for Inactive)
REMARK    1  A    between atoms: N_5  and  C_6 
REMARK    2  A    between atoms: C_6  and  C_7 
REMARK    3  A    between atoms: C_7  and  N_8 
REMARK       I    between atoms: N_8  and  C_9 
REMARK    4  A    between atoms: C_9  and  C_11 
REMARK    5  A    between atoms: C_11  and  N_12 
ROOT
HETATM    1  N   UNL     1     -42.577 -52.678  11.830  1.00  0.00    -0.358 N 
HETATM    2  C   UNL     1     -43.131 -53.414  12.859  1.00  0.00     0.237 C 
HETATM    3  O   UNL     1     -42.480 -53.895  13.782  1.00  0.00    -0.272 OA
HETATM    4  H   UNL     1     -43.227 -52.099  11.294  1.00  0.00     0.162 HD
ENDROOT
BRANCH   1   5
HETATM    5  C   UNL     1     -41.170 -52.316  11.809  1.00  0.00     0.152 C 
BRANCH   5   6
HETATM    6  C   UNL     1     -40.957 -50.792  11.880  1.00  0.00     0.292 C 
BRANCH   6   7
HETATM    7  N   UNL     1     -40.615 -50.267  13.216  1.00  0.00     0.090 N 
HETATM    8  C   UNL     1     -40.419 -48.814  13.258  1.00  0.00     0.273 C 
HETATM    9  C   UNL     1     -39.155 -48.343  12.535  1.00  0.00     0.034 C 
HETATM   10  C   UNL     1     -37.895 -49.058  13.043  1.00  0.00    -0.015 C 
HETATM   11  C   UNL     1     -37.469 -48.529  14.415  1.00  0.00     0.010 C 
HETATM   12  C   UNL     1     -38.119 -50.576  13.075  1.00  0.00     0.034 C 
HETATM   13  C   UNL     1     -39.436 -50.963  13.760  1.00  0.00     0.273 C 
ENDBRANCH   6   7
ENDBRANCH   5   6
ENDBRANCH   1   5
BRANCH   2  14
HETATM   14  C   UNL     1     -44.617 -53.651  12.736  1.00  0.00     0.251 C 
BRANCH  14  15
HETATM   15  N   UNL     1     -45.335 -52.727  13.588  1.00  0.00    -0.288 N 
HETATM   16  N   UNL     1     -45.066 -52.737  14.912  1.00  0.00    -0.303 N 
HETATM   17  C   UNL     1     -45.960 -51.890  15.432  1.00  0.00     0.024 A 
ATOM     18  HN  UNL     1     -44.346 -53.269  15.402  1.00  0.00     0.186 HD
HETATM   19  C   UNL     1     -46.002 -51.643  16.892  1.00  0.00     0.070 C 
HETATM   20  C   UNL     1     -46.800 -51.345  14.435  1.00  0.00     0.052 A 
HETATM   21  C   UNL     1     -46.379 -51.908  13.250  1.00  0.00     0.027 A 
HETATM   22  C   UNL     1     -46.895 -51.763  11.867  1.00  0.00     0.070 C 
ENDBRANCH  14  15
ENDBRANCH   2  14
TORSDOF 5
ENDMDL
MODEL 7
REMARK VINA RESULT:      -5.4      2.280      2.922
REMARK  5 active torsions:
REMARK  status: ('A' for Active; 'I' for Inactive)
REMARK    1  A    between atoms: N_5  and  C_6 
REMARK    2  A    between atoms: C_6  and  C_7 
REMARK    3  A    between atoms: C_7  and  N_8 
REMARK       I    between atoms: N_8  and  C_9 
REMARK    4  A    between atoms: C_9  and  C_11 
REMARK    5  A    between atoms: C_11  and  N_12 
ROOT
HETATM    1  N   UNL     1     -40.298 -51.524  11.778  1.00  0.00    -0.358 N 
HETATM    2  C   UNL     1     -40.484 -50.157  11.708  1.00  0.00     0.237 C 
HETATM    3  O   UNL     1     -41.582 -49.622  11.591  1.00  0.00    -0.272 OA
HETATM    4  H   UNL     1     -39.402 -51.835  12.157  1.00  0.00     0.162 HD
ENDROOT
BRANCH   1   5
HETATM    5  C   UNL     1     -41.415 -52.453  11.824  1.00  0.00     0.152 C 
BRANCH   5   6
HETATM    6  C   UNL     1     -41.566 -53.117  13.206  1.00  0.00     0.292 C 
BRANCH   6   7
HETATM    7  N   UNL     1     -42.737 -52.679  13.989  1.00  0.00     0.090 N 
HETATM    8  C   UNL     1     -43.044 -53.534  15.141  1.00  0.00     0.273 C 
HETATM    9  C   UNL     1     -43.575 -54.917  14.754  1.00  0.00     0.034 C 
HETATM   10  C   UNL     1     -44.792 -54.834  13.824  1.00  0.00    -0.015 C 
HETATM   11  C   UNL     1     -46.051 -54.416  14.589  1.00  0.00     0.010 C 
HETATM   12  C   UNL     1     -44.506 -53.879  12.656  1.00  0.00     0.034 C 
HETATM   13  C   UNL     1     -43.919 -52.540  13.120  1.00  0.00     0.273 C 
ENDBRANCH   6   7
ENDBRANCH   5   6
ENDBRANCH   1   5
BRANCH   2  14
HETATM   14  C   UNL     1     -39.210 -49.347  11.720  1.00  0.00     0.251 C 
BRANCH  14  15
HETATM   15  N   UNL     1     -39.516 -47.951  11.952  1.00  0.00    -0.288 N 
HETATM   16  N   UNL     1     -39.830 -47.181  10.888  1.00  0.00    -0.303 N 
HETATM   17  C   UNL     1     -39.927 -45.948  11.396  1.00  0.00     0.024 A 
ATOM     18  HN  UNL     1     -39.962 -47.472   9.919  1.00  0.00     0.186 HD
HETATM   19  C   UNL     1     -40.241 -44.795  10.520  1.00  0.00     0.070 C 
HETATM   20  C   UNL     1     -39.669 -45.937  12.785  1.00  0.00     0.052 A 
HETATM   21  C   UNL     1     -39.400 -47.246  13.121  1.00  0.00     0.027 A 
HETATM   22  C   UNL     1     -39.017 -47.860  14.416  1.00  0.00     0.070 C 
ENDBRANCH  14  15
ENDBRANCH   2  14
TORSDOF 5
ENDMDL
MODEL 8
REMARK VINA RESULT:      -5.4      2.759      6.561
REMARK  5 active torsions:
REMARK  status: ('A' for Active; 'I' for Inactive)
REMARK    1  A    between atoms: N_5  and  C_6 
REMARK    2  A    between atoms: C_6  and  C_7 
REMARK    3  A    between atoms: C_7  and  N_8 
REMARK       I    between atoms: N_8  and  C_9 
REMARK    4  A    between atoms: C_9  and  C_11 
REMARK    5  A    between atoms: C_11  and  N_12 
ROOT
HETATM    1  N   UNL     1     -42.403 -52.359  11.848  1.00  0.00    -0.358 N 
HETATM    2  C   UNL     1     -43.011 -53.310  12.644  1.00  0.00     0.237 C 
HETATM    3  O   UNL     1     -42.404 -54.030  13.432  1.00  0.00    -0.272 OA
HETATM    4  H   UNL     1     -43.019 -51.642  11.458  1.00  0.00     0.162 HD
ENDROOT
BRANCH   1   5
HETATM    5  C   UNL     1     -40.986 -52.053  11.955  1.00  0.00     0.152 C 
BRANCH   5   6
HETATM    6  C   UNL     1     -40.697 -50.552  11.766  1.00  0.00     0.292 C 
BRANCH   6   7
HETATM    7  N   UNL     1     -39.273 -50.174  11.827  1.00  0.00     0.090 N 
HETATM    8  C   UNL     1     -38.559 -50.701  12.995  1.00  0.00     0.273 C 
HETATM    9  C   UNL     1     -38.987 -50.059  14.317  1.00  0.00     0.034 C 
HETATM   10  C   UNL     1     -38.877 -48.529  14.283  1.00  0.00    -0.015 C 
HETATM   11  C   UNL     1     -37.419 -48.073  14.377  1.00  0.00     0.010 C 
HETATM   12  C   UNL     1     -39.555 -47.974  13.022  1.00  0.00     0.034 C 
HETATM   13  C   UNL     1     -39.122 -48.710  11.748  1.00  0.00     0.273 C 
ENDBRANCH   6   7
ENDBRANCH   5   6
ENDBRANCH   1   5
BRANCH   2  14
HETATM   14  C   UNL     1     -44.497 -53.456  12.428  1.00  0.00     0.251 C 
BRANCH  14  15
HETATM   15  N   UNL     1     -45.215 -52.568  13.318  1.00  0.00    -0.288 N 
HETATM   16  N   UNL     1     -44.823 -52.504  14.609  1.00  0.00    -0.303 N 
HETATM   17  C   UNL     1     -45.738 -51.720  15.188  1.00  0.00     0.024 A 
ATOM     18  HN  UNL     1     -44.015 -52.951  15.042  1.00  0.00     0.186 HD
HETATM   19  C   UNL     1     -45.666 -51.422  16.637  1.00  0.00     0.070 C 
HETATM   20  C   UNL     1     -46.715 -51.290  14.262  1.00  0.00     0.052 A 
HETATM   21  C   UNL     1     -46.357 -51.858  13.058  1.00  0.00     0.027 A 
HETATM   22  C   UNL     1     -47.011 -51.812  11.728  1.00  0.00     0.070 C 
ENDBRANCH  14  15
ENDBRANCH   2  14
TORSDOF 5
ENDMDL
MODEL 9
REMARK VINA RESULT:      -5.4      1.139      2.264
REMARK  5 active torsions:
REMARK  status: ('A' for Active; 'I' for Inactive)
REMARK    1  A    between atoms: N_5  and  C_6 
REMARK    2  A    between atoms: C_6  and  C_7 
REMARK    3  A    between atoms: C_7  and  N_8 
REMARK       I    between atoms: N_8  and  C_9 
REMARK    4  A    between atoms: C_9  and  C_11 
REMARK    5  A    between atoms: C_11  and  N_12 
ROOT
HETATM    1  N   UNL     1     -41.278 -51.499  11.531  1.00  0.00    -0.358 N 
HETATM    2  C   UNL     1     -40.902 -50.271  12.040  1.00  0.00     0.237 C 
HETATM    3  O   UNL     1     -40.858 -50.014  13.240  1.00  0.00    -0.272 OA
HETATM    4  H   UNL     1     -41.005 -51.684  10.564  1.00  0.00     0.162 HD
ENDROOT
BRANCH   1   5
HETATM    5  C   UNL     1     -41.555 -52.639  12.389  1.00  0.00     0.152 C 
BRANCH   5   6
HETATM    6  C   UNL     1     -43.018 -53.110  12.279  1.00  0.00     0.292 C 
BRANCH   6   7
HETATM    7  N   UNL     1     -43.734 -53.242  13.561  1.00  0.00     0.090 N 
HETATM    8  C   UNL     1     -45.115 -53.720  13.433  1.00  0.00     0.273 C 
HETATM    9  C   UNL     1     -46.059 -52.704  12.786  1.00  0.00     0.034 C 
HETATM   10  C   UNL     1     -46.039 -51.350  13.509  1.00  0.00    -0.015 C 
HETATM   11  C   UNL     1     -46.799 -51.415  14.836  1.00  0.00     0.010 C 
HETATM   12  C   UNL     1     -44.593 -50.878  13.717  1.00  0.00     0.034 C 
HETATM   13  C   UNL     1     -43.696 -51.972  14.309  1.00  0.00     0.273 C 
ENDBRANCH   6   7
ENDBRANCH   5   6
ENDBRANCH   1   5
BRANCH   2  14
HETATM   14  C   UNL     1     -40.606 -49.221  10.998  1.00  0.00     0.251 C 
BRANCH  14  15
HETATM   15  N   UNL     1     -40.786 -47.900  11.563  1.00  0.00    -0.288 N 
HETATM   16  N   UNL     1     -39.737 -47.326  12.192  1.00  0.00    -0.303 N 
HETATM   17  C   UNL     1     -40.243 -46.200  12.706  1.00  0.00     0.024 A 
ATOM     18  HN  UNL     1     -38.780 -47.672  12.259  1.00  0.00     0.186 HD
HETATM   19  C   UNL     1     -39.391 -45.288  13.504  1.00  0.00     0.070 C 
HETATM   20  C   UNL     1     -41.617 -46.064  12.406  1.00  0.00     0.052 A 
HETATM   21  C   UNL     1     -41.947 -47.181  11.670  1.00  0.00     0.027 A 
HETATM   22  C   UNL     1     -43.244 -47.626  11.105  1.00  0.00     0.070 C 
ENDBRANCH  14  15
ENDBRANCH   2  14
TORSDOF 5
ENDMDL
