MODEL 1
REMARK VINA RESULT:      -6.8      0.000      0.000
REMARK  4 active torsions:
REMARK  status: ('A' for Active; 'I' for Inactive)
REMARK    1  A    between atoms: C_7  and  N_8 
REMARK       I    between atoms: N_8  and  C_9 
REMARK       I    between atoms: C_9  and  N_11 
REMARK    2  A    between atoms: N_11  and  C_12 
REMARK    3  A    between atoms: C_14  and  C_15 
REMARK    4  A    between atoms: C_15  and  O_16 
ROOT
HETATM    1  N   UNL     1     -40.424 -49.712  10.688  1.00  0.00    -0.307 N 
HETATM    2  C   UNL     1     -41.247 -48.601  10.660  1.00  0.00     0.321 C 
HETATM    3  O   UNL     1     -41.364 -47.756  11.536  1.00  0.00    -0.247 OA
HETATM    4  N   UNL     1     -41.947 -48.530   9.475  1.00  0.00    -0.335 N 
HETATM    5  H   UNL     1     -40.420 -50.299   9.865  1.00  0.00     0.170 HD
HETATM    6  H   UNL     1     -42.088 -49.405   8.998  1.00  0.00     0.164 HD
ENDROOT
BRANCH   1   7
HETATM    7  C   UNL     1     -39.535 -50.116  11.723  1.00  0.00     0.061 A 
HETATM    8  C   UNL     1     -38.371 -49.414  12.017  1.00  0.00     0.048 A 
HETATM    9  C   UNL     1     -37.547 -49.877  13.029  1.00  0.00     0.090 A 
HETATM   10  N   UNL     1     -37.804 -50.977  13.762  1.00  0.00    -0.368 N 
HETATM   11  C   UNL     1     -38.940 -51.667  13.486  1.00  0.00     0.029 A 
ATOM     12  HN  UNL     1     -37.167 -51.280  14.500  1.00  0.00     0.165 HD
HETATM   13  C   UNL     1     -39.163 -52.888  14.334  1.00  0.00     0.070 C 
HETATM   14  C   UNL     1     -39.828 -51.269  12.478  1.00  0.00     0.083 A 
HETATM   15 CL   UNL     1     -41.272 -52.175  12.159  1.00  0.00    -0.080 Cl
ENDBRANCH   1   7
BRANCH   4  16
HETATM   16  C   UNL     1     -42.967 -47.519   9.275  1.00  0.00     0.109 C 
HETATM   17  C   UNL     1     -43.894 -47.784   8.075  1.00  0.00     0.040 C 
HETATM   18  C   UNL     1     -45.336 -47.580   8.578  1.00  0.00     0.034 C 
HETATM   19  C   UNL     1     -45.182 -47.668  10.069  1.00  0.00    -0.022 C 
HETATM   20  C   UNL     1     -43.901 -47.596  10.440  1.00  0.00    -0.005 C 
BRANCH  18  21
HETATM   21  C   UNL     1     -46.307 -48.596   7.973  1.00  0.00     0.172 C 
BRANCH  21  22
HETATM   22  O   UNL     1     -45.980 -48.866   6.611  1.00  0.00    -0.400 OA
HETATM   23  H   UNL     1     -46.067 -49.824   6.477  1.00  0.00     0.209 HD
ENDBRANCH  21  22
ENDBRANCH  18  21
ENDBRANCH   4  16
TORSDOF 4
ENDMDL
MODEL 2
REMARK VINA RESULT:      -6.4      3.729      6.432
REMARK  4 active torsions:
REMARK  status: ('A' for Active; 'I' for Inactive)
REMARK    1  A    between atoms: C_7  and  N_8 
REMARK       I    between atoms: N_8  and  C_9 
REMARK       I    between atoms: C_9  and  N_11 
REMARK    2  A    between atoms: N_11  and  C_12 
REMARK    3  A    between atoms: C_14  and  C_15 
REMARK    4  A    between atoms: C_15  and  O_16 
ROOT
HETATM    1  N   UNL     1     -41.946 -49.686  11.395  1.00  0.00    -0.307 N 
HETATM    2  C   UNL     1     -42.428 -50.132  12.611  1.00  0.00     0.321 C 
HETATM    3  O   UNL     1     -42.945 -49.453  13.486  1.00  0.00    -0.247 OA
HETATM    4  N   UNL     1     -42.273 -51.496  12.738  1.00  0.00    -0.335 N 
HETATM    5  H   UNL     1     -41.573 -50.385  10.766  1.00  0.00     0.170 HD
HETATM    6  H   UNL     1     -41.536 -51.904  12.187  1.00  0.00     0.164 HD
ENDROOT
BRANCH   1   7
HETATM    7  C   UNL     1     -41.946 -48.356  10.889  1.00  0.00     0.061 A 
HETATM    8  C   UNL     1     -43.021 -47.833  10.179  1.00  0.00     0.048 A 
HETATM    9  C   UNL     1     -42.943 -46.535   9.703  1.00  0.00     0.090 A 
HETATM   10  N   UNL     1     -41.880 -45.730   9.891  1.00  0.00    -0.368 N 
HETATM   11  C   UNL     1     -40.827 -46.229  10.587  1.00  0.00     0.029 A 
ATOM     12  HN  UNL     1     -41.866 -44.777   9.523  1.00  0.00     0.165 HD
HETATM   13  C   UNL     1     -39.670 -45.283  10.753  1.00  0.00     0.070 C 
HETATM   14  C   UNL     1     -40.822 -47.533  11.101  1.00  0.00     0.083 A 
HETATM   15 CL   UNL     1     -39.459 -48.132  11.990  1.00  0.00    -0.080 Cl
ENDBRANCH   1   7
BRANCH   4  16
HETATM   16  C   UNL     1     -42.590 -52.167  13.983  1.00  0.00     0.109 C 
HETATM   17  C   UNL     1     -44.057 -52.617  14.105  1.00  0.00     0.040 C 
HETATM   18  C   UNL     1     -44.032 -54.079  14.589  1.00  0.00     0.034 C 
HETATM   19  C   UNL     1     -42.626 -54.506  14.280  1.00  0.00    -0.022 C 
HETATM   20  C   UNL     1     -41.843 -53.462  13.991  1.00  0.00    -0.005 C 
BRANCH  18  21
HETATM   21  C   UNL     1     -45.119 -54.927  13.924  1.00  0.00     0.172 C 
BRANCH  21  22
HETATM   22  O   UNL     1     -45.691 -54.241  12.812  1.00  0.00    -0.400 OA
HETATM   23  H   UNL     1     -45.107 -53.495  12.600  1.00  0.00     0.209 HD
ENDBRANCH  21  22
ENDBRANCH  18  21
ENDBRANCH   4  16
TORSDOF 4
ENDMDL
MODEL 3
REMARK VINA RESULT:      -6.2      3.958      4.631
REMARK  4 active torsions:
REMARK  status: ('A' for Active; 'I' for Inactive)
REMARK    1  A    between atoms: C_7  and  N_8 
REMARK       I    between atoms: N_8  and  C_9 
REMARK       I    between atoms: C_9  and  N_11 
REMARK    2  A    between atoms: N_11  and  C_12 
REMARK    3  A    between atoms: C_14  and  C_15 
REMARK    4  A    between atoms: C_15  and  O_16 
ROOT
HETATM    1  N   UNL     1     -43.569 -50.900  13.126  1.00  0.00    -0.307 N 
HETATM    2  C   UNL     1     -42.665 -50.270  12.291  1.00  0.00     0.321 C 
HETATM    3  O   UNL     1     -41.620 -50.736  11.859  1.00  0.00    -0.247 OA
HETATM    4  N   UNL     1     -43.093 -49.001  11.962  1.00  0.00    -0.335 N 
HETATM    5  H   UNL     1     -44.405 -50.385  13.367  1.00  0.00     0.170 HD
HETATM    6  H   UNL     1     -43.720 -48.568  12.619  1.00  0.00     0.164 HD
ENDROOT
BRANCH   1   7
HETATM    7  C   UNL     1     -43.493 -52.216  13.662  1.00  0.00     0.061 A 
HETATM    8  C   UNL     1     -42.390 -52.660  14.384  1.00  0.00     0.048 A 
HETATM    9  C   UNL     1     -42.381 -53.960  14.861  1.00  0.00     0.090 A 
HETATM   10  N   UNL     1     -43.387 -54.836  14.673  1.00  0.00    -0.368 N 
HETATM   11  C   UNL     1     -44.469 -54.411  13.972  1.00  0.00     0.029 A 
ATOM     12  HN  UNL     1     -43.337 -55.785  15.045  1.00  0.00     0.165 HD
HETATM   13  C   UNL     1     -45.551 -55.438  13.791  1.00  0.00     0.070 C 
HETATM   14  C   UNL     1     -44.560 -53.113  13.453  1.00  0.00     0.083 A 
HETATM   15 CL   UNL     1     -45.962 -52.606  12.567  1.00  0.00    -0.080 Cl
ENDBRANCH   1   7
BRANCH   4  16
HETATM   16  C   UNL     1     -42.245 -48.106  11.200  1.00  0.00     0.109 C 
HETATM   17  C   UNL     1     -42.796 -47.741   9.810  1.00  0.00     0.040 C 
HETATM   18  C   UNL     1     -42.674 -46.211   9.674  1.00  0.00     0.034 C 
HETATM   19  C   UNL     1     -42.508 -45.764  11.098  1.00  0.00    -0.022 C 
HETATM   20  C   UNL     1     -42.238 -46.790  11.911  1.00  0.00    -0.005 C 
BRANCH  18  21
HETATM   21  C   UNL     1     -43.874 -45.599   8.947  1.00  0.00     0.172 C 
BRANCH  21  22
HETATM   22  O   UNL     1     -44.128 -44.273   9.408  1.00  0.00    -0.400 OA
HETATM   23  H   UNL     1     -43.958 -43.672   8.666  1.00  0.00     0.209 HD
ENDBRANCH  21  22
ENDBRANCH  18  21
ENDBRANCH   4  16
TORSDOF 4
ENDMDL
MODEL 4
REMARK VINA RESULT:      -6.1      4.033      5.211
REMARK  4 active torsions:
REMARK  status: ('A' for Active; 'I' for Inactive)
REMARK    1  A    between atoms: C_7  and  N_8 
REMARK       I    between atoms: N_8  and  C_9 
REMARK       I    between atoms: C_9  and  N_11 
REMARK    2  A    between atoms: N_11  and  C_12 
REMARK    3  A    between atoms: C_14  and  C_15 
REMARK    4  A    between atoms: C_15  and  O_16 
ROOT
HETATM    1  N   UNL     1     -43.132 -51.429  12.408  1.00  0.00    -0.307 N 
HETATM    2  C   UNL     1     -43.240 -50.116  12.825  1.00  0.00     0.321 C 
HETATM    3  O   UNL     1     -43.547 -49.727  13.943  1.00  0.00    -0.247 OA
HETATM    4  N   UNL     1     -42.935 -49.242  11.804  1.00  0.00    -0.335 N 
HETATM    5  H   UNL     1     -42.836 -51.583  11.453  1.00  0.00     0.170 HD
HETATM    6  H   UNL     1     -43.066 -49.598  10.872  1.00  0.00     0.164 HD
ENDROOT
BRANCH   1   7
HETATM    7  C   UNL     1     -43.344 -52.610  13.173  1.00  0.00     0.061 A 
HETATM    8  C   UNL     1     -42.308 -53.261  13.833  1.00  0.00     0.048 A 
HETATM    9  C   UNL     1     -42.589 -54.415  14.546  1.00  0.00     0.090 A 
HETATM   10  N   UNL     1     -43.819 -54.954  14.648  1.00  0.00    -0.368 N 
HETATM   11  C   UNL     1     -44.837 -54.324  14.010  1.00  0.00     0.029 A 
ATOM     12  HN  UNL     1     -43.979 -55.807  15.186  1.00  0.00     0.165 HD
HETATM   13  C   UNL     1     -46.182 -54.981  14.156  1.00  0.00     0.070 C 
HETATM   14  C   UNL     1     -44.642 -53.153  13.266  1.00  0.00     0.083 A 
HETATM   15 CL   UNL     1     -45.971 -52.374  12.470  1.00  0.00    -0.080 Cl
ENDBRANCH   1   7
BRANCH   4  16
HETATM   16  C   UNL     1     -43.105 -47.812  11.974  1.00  0.00     0.109 C 
HETATM   17  C   UNL     1     -41.791 -47.039  12.186  1.00  0.00     0.040 C 
HETATM   18  C   UNL     1     -41.833 -45.828  11.234  1.00  0.00     0.034 C 
HETATM   19  C   UNL     1     -42.897 -46.218  10.249  1.00  0.00    -0.022 C 
HETATM   20  C   UNL     1     -43.606 -47.268  10.674  1.00  0.00    -0.005 C 
BRANCH  18  21
HETATM   21  C   UNL     1     -40.465 -45.533  10.616  1.00  0.00     0.172 C 
BRANCH  21  22
HETATM   22  O   UNL     1     -39.739 -46.738  10.384  1.00  0.00    -0.400 OA
HETATM   23  H   UNL     1     -38.910 -46.678  10.886  1.00  0.00     0.209 HD
ENDBRANCH  21  22
ENDBRANCH  18  21
ENDBRANCH   4  16
TORSDOF 4
ENDMDL
MODEL 5
REMARK VINA RESULT:      -6.0      3.081      4.062
REMARK  4 active torsions:
REMARK  status: ('A' for Active; 'I' for Inactive)
REMARK    1  A    between atoms: C_7  and  N_8 
REMARK       I    between atoms: N_8  and  C_9 
REMARK       I    between atoms: C_9  and  N_11 
REMARK    2  A    between atoms: N_11  and  C_12 
REMARK    3  A    between atoms: C_14  and  C_15 
REMARK    4  A    between atoms: C_15  and  O_16 
ROOT
HETATM    1  N   UNL     1     -41.952 -51.043  11.825  1.00  0.00    -0.307 N 
HETATM    2  C   UNL     1     -42.506 -49.839  12.220  1.00  0.00     0.321 C 
HETATM    3  O   UNL     1     -42.963 -49.572  13.322  1.00  0.00    -0.247 OA
HETATM    4  N   UNL     1     -42.474 -48.916  11.196  1.00  0.00    -0.335 N 
HETATM    5  H   UNL     1     -41.589 -51.091  10.882  1.00  0.00     0.170 HD
HETATM    6  H   UNL     1     -42.446 -49.298  10.266  1.00  0.00     0.164 HD
ENDROOT
BRANCH   1   7
HETATM    7  C   UNL     1     -41.785 -52.224  12.599  1.00  0.00     0.061 A 
HETATM    8  C   UNL     1     -42.828 -53.116  12.825  1.00  0.00     0.048 A 
HETATM    9  C   UNL     1     -42.594 -54.238  13.603  1.00  0.00     0.090 A 
HETATM   10  N   UNL     1     -41.403 -54.530  14.159  1.00  0.00    -0.368 N 
HETATM   11  C   UNL     1     -40.378 -53.668  13.941  1.00  0.00     0.029 A 
ATOM     12  HN  UNL     1     -41.276 -55.370  14.725  1.00  0.00     0.165 HD
HETATM   13  C   UNL     1     -39.079 -54.047  14.597  1.00  0.00     0.070 C 
HETATM   14  C   UNL     1     -40.528 -52.508  13.168  1.00  0.00     0.083 A 
HETATM   15 CL   UNL     1     -39.192 -51.435  12.909  1.00  0.00    -0.080 Cl
ENDBRANCH   1   7
BRANCH   4  16
HETATM   16  C   UNL     1     -43.116 -47.624  11.341  1.00  0.00     0.109 C 
HETATM   17  C   UNL     1     -42.204 -46.525  11.914  1.00  0.00     0.040 C 
HETATM   18  C   UNL     1     -42.380 -45.290  11.009  1.00  0.00     0.034 C 
HETATM   19  C   UNL     1     -42.987 -45.874   9.767  1.00  0.00    -0.022 C 
HETATM   20  C   UNL     1     -43.418 -47.123   9.965  1.00  0.00    -0.005 C 
BRANCH  18  21
HETATM   21  C   UNL     1     -41.061 -44.545  10.788  1.00  0.00     0.172 C 
BRANCH  21  22
HETATM   22  O   UNL     1     -40.356 -45.076   9.668  1.00  0.00    -0.400 OA
HETATM   23  H   UNL     1     -40.394 -46.044   9.735  1.00  0.00     0.209 HD
ENDBRANCH  21  22
ENDBRANCH  18  21
ENDBRANCH   4  16
TORSDOF 4
ENDMDL
MODEL 6
REMARK VINA RESULT:      -6.0      4.822      6.044
REMARK  4 active torsions:
REMARK  status: ('A' for Active; 'I' for Inactive)
REMARK    1  A    between atoms: C_7  and  N_8 
REMARK       I    between atoms: N_8  and  C_9 
REMARK       I    between atoms: C_9  and  N_11 
REMARK    2  A    between atoms: N_11  and  C_12 
REMARK    3  A    between atoms: C_14  and  C_15 
REMARK    4  A    between atoms: C_15  and  O_16 
ROOT
HETATM    1  N   UNL     1     -44.682 -50.681  12.852  1.00  0.00    -0.307 N 
HETATM    2  C   UNL     1     -43.481 -50.111  13.231  1.00  0.00     0.321 C 
HETATM    3  O   UNL     1     -42.832 -50.373  14.233  1.00  0.00    -0.247 OA
HETATM    4  N   UNL     1     -43.060 -49.178  12.307  1.00  0.00    -0.335 N 
HETATM    5  H   UNL     1     -45.077 -50.374  11.973  1.00  0.00     0.170 HD
HETATM    6  H   UNL     1     -43.785 -48.759  11.749  1.00  0.00     0.164 HD
ENDROOT
BRANCH   1   7
HETATM    7  C   UNL     1     -45.421 -51.692  13.527  1.00  0.00     0.061 A 
HETATM    8  C   UNL     1     -46.447 -51.392  14.416  1.00  0.00     0.048 A 
HETATM    9  C   UNL     1     -47.112 -52.430  15.048  1.00  0.00     0.090 A 
HETATM   10  N   UNL     1     -46.829 -53.732  14.852  1.00  0.00    -0.368 N 
HETATM   11  C   UNL     1     -45.832 -54.036  13.983  1.00  0.00     0.029 A 
ATOM     12  HN  UNL     1     -47.347 -54.464  15.339  1.00  0.00     0.165 HD
HETATM   13  C   UNL     1     -45.561 -55.505  13.815  1.00  0.00     0.070 C 
HETATM   14  C   UNL     1     -45.107 -53.048  13.302  1.00  0.00     0.083 A 
HETATM   15 CL   UNL     1     -43.843 -53.477  12.195  1.00  0.00    -0.080 Cl
ENDBRANCH   1   7
BRANCH   4  16
HETATM   16  C   UNL     1     -41.890 -48.359  12.560  1.00  0.00     0.109 C 
HETATM   17  C   UNL     1     -41.374 -47.595  11.327  1.00  0.00     0.040 C 
HETATM   18  C   UNL     1     -41.141 -46.140  11.775  1.00  0.00     0.034 C 
HETATM   19  C   UNL     1     -41.942 -46.052  13.043  1.00  0.00    -0.022 C 
HETATM   20  C   UNL     1     -42.311 -47.259  13.481  1.00  0.00    -0.005 C 
BRANCH  18  21
HETATM   21  C   UNL     1     -41.541 -45.133  10.694  1.00  0.00     0.172 C 
BRANCH  21  22
HETATM   22  O   UNL     1     -40.883 -45.420   9.462  1.00  0.00    -0.400 OA
HETATM   23  H   UNL     1     -41.543 -45.332   8.755  1.00  0.00     0.209 HD
ENDBRANCH  21  22
ENDBRANCH  18  21
ENDBRANCH   4  16
TORSDOF 4
ENDMDL
MODEL 7
REMARK VINA RESULT:      -6.0      4.534      6.771
REMARK  4 active torsions:
REMARK  status: ('A' for Active; 'I' for Inactive)
REMARK    1  A    between atoms: C_7  and  N_8 
REMARK       I    between atoms: N_8  and  C_9 
REMARK       I    between atoms: C_9  and  N_11 
REMARK    2  A    between atoms: N_11  and  C_12 
REMARK    3  A    between atoms: C_14  and  C_15 
REMARK    4  A    between atoms: C_15  and  O_16 
ROOT
HETATM    1  N   UNL     1     -43.877 -50.985  12.898  1.00  0.00    -0.307 N 
HETATM    2  C   UNL     1     -42.691 -50.616  13.503  1.00  0.00     0.321 C 
HETATM    3  O   UNL     1     -42.305 -50.944  14.616  1.00  0.00    -0.247 OA
HETATM    4  N   UNL     1     -41.939 -49.810  12.675  1.00  0.00    -0.335 N 
HETATM    5  H   UNL     1     -44.033 -50.652  11.956  1.00  0.00     0.170 HD
HETATM    6  H   UNL     1     -42.455 -49.296  11.981  1.00  0.00     0.164 HD
ENDROOT
BRANCH   1   7
HETATM    7  C   UNL     1     -44.902 -51.823  13.420  1.00  0.00     0.061 A 
HETATM    8  C   UNL     1     -46.051 -51.309  14.009  1.00  0.00     0.048 A 
HETATM    9  C   UNL     1     -46.998 -52.187  14.510  1.00  0.00     0.090 A 
HETATM   10  N   UNL     1     -46.880 -53.528  14.460  1.00  0.00    -0.368 N 
HETATM   11  C   UNL     1     -45.762 -54.039  13.884  1.00  0.00     0.029 A 
ATOM     12  HN  UNL     1     -47.604 -54.137  14.841  1.00  0.00     0.165 HD
HETATM   13  C   UNL     1     -45.687 -55.541  13.867  1.00  0.00     0.070 C 
HETATM   14  C   UNL     1     -44.754 -53.223  13.353  1.00  0.00     0.083 A 
HETATM   15 CL   UNL     1     -43.344 -53.916  12.620  1.00  0.00    -0.080 Cl
ENDBRANCH   1   7
BRANCH   4  16
HETATM   16  C   UNL     1     -40.713 -49.197  13.148  1.00  0.00     0.109 C 
HETATM   17  C   UNL     1     -39.502 -50.146  13.182  1.00  0.00     0.040 C 
HETATM   18  C   UNL     1     -38.334 -49.394  12.515  1.00  0.00     0.034 C 
HETATM   19  C   UNL     1     -39.032 -48.302  11.758  1.00  0.00    -0.022 C 
HETATM   20  C   UNL     1     -40.309 -48.176  12.133  1.00  0.00    -0.005 C 
BRANCH  18  21
HETATM   21  C   UNL     1     -37.470 -50.318  11.654  1.00  0.00     0.172 C 
BRANCH  21  22
HETATM   22  O   UNL     1     -37.490 -49.909  10.288  1.00  0.00    -0.400 OA
HETATM   23  H   UNL     1     -36.750 -49.293  10.160  1.00  0.00     0.209 HD
ENDBRANCH  21  22
ENDBRANCH  18  21
ENDBRANCH   4  16
TORSDOF 4
ENDMDL
MODEL 8
REMARK VINA RESULT:      -5.8      4.407      6.721
REMARK  4 active torsions:
REMARK  status: ('A' for Active; 'I' for Inactive)
REMARK    1  A    between atoms: C_7  and  N_8 
REMARK       I    between atoms: N_8  and  C_9 
REMARK       I    between atoms: C_9  and  N_11 
REMARK    2  A    between atoms: N_11  and  C_12 
REMARK    3  A    between atoms: C_14  and  C_15 
REMARK    4  A    between atoms: C_15  and  O_16 
ROOT
HETATM    1  N   UNL     1     -43.151 -49.148  12.246  1.00  0.00    -0.307 N 
HETATM    2  C   UNL     1     -42.667 -50.419  12.488  1.00  0.00     0.321 C 
HETATM    3  O   UNL     1     -41.629 -50.900  12.056  1.00  0.00    -0.247 OA
HETATM    4  N   UNL     1     -43.508 -51.122  13.325  1.00  0.00    -0.335 N 
HETATM    5  H   UNL     1     -44.015 -48.892  12.707  1.00  0.00     0.170 HD
HETATM    6  H   UNL     1     -44.469 -50.826  13.325  1.00  0.00     0.164 HD
ENDROOT
BRANCH   1   7
HETATM    7  C   UNL     1     -42.561 -48.123  11.455  1.00  0.00     0.061 A 
HETATM    8  C   UNL     1     -41.248 -47.706  11.642  1.00  0.00     0.048 A 
HETATM    9  C   UNL     1     -40.746 -46.691  10.844  1.00  0.00     0.090 A 
HETATM   10  N   UNL     1     -41.456 -46.075   9.880  1.00  0.00    -0.368 N 
HETATM   11  C   UNL     1     -42.738 -46.477   9.687  1.00  0.00     0.029 A 
ATOM     12  HN  UNL     1     -41.045 -45.331   9.314  1.00  0.00     0.165 HD
HETATM   13  C   UNL     1     -43.477 -45.743   8.603  1.00  0.00     0.070 C 
HETATM   14  C   UNL     1     -43.325 -47.495  10.451  1.00  0.00     0.083 A 
HETATM   15 CL   UNL     1     -44.964 -47.984  10.170  1.00  0.00    -0.080 Cl
ENDBRANCH   1   7
BRANCH   4  16
HETATM   16  C   UNL     1     -43.267 -52.522  13.615  1.00  0.00     0.109 C 
HETATM   17  C   UNL     1     -43.916 -53.019  14.919  1.00  0.00     0.040 C 
HETATM   18  C   UNL     1     -44.634 -54.339  14.579  1.00  0.00     0.034 C 
HETATM   19  C   UNL     1     -44.747 -54.279  13.083  1.00  0.00    -0.022 C 
HETATM   20  C   UNL     1     -43.975 -53.319  12.566  1.00  0.00    -0.005 C 
BRANCH  18  21
HETATM   21  C   UNL     1     -45.969 -54.475  15.317  1.00  0.00     0.172 C 
BRANCH  21  22
HETATM   22  O   UNL     1     -46.983 -54.977  14.448  1.00  0.00    -0.400 OA
HETATM   23  H   UNL     1     -46.832 -55.931  14.349  1.00  0.00     0.209 HD
ENDBRANCH  21  22
ENDBRANCH  18  21
ENDBRANCH   4  16
TORSDOF 4
ENDMDL
MODEL 9
REMARK VINA RESULT:      -5.7      4.696      5.967
REMARK  4 active torsions:
REMARK  status: ('A' for Active; 'I' for Inactive)
REMARK    1  A    between atoms: C_7  and  N_8 
REMARK       I    between atoms: N_8  and  C_9 
REMARK       I    between atoms: C_9  and  N_11 
REMARK    2  A    between atoms: N_11  and  C_12 
REMARK    3  A    between atoms: C_14  and  C_15 
REMARK    4  A    between atoms: C_15  and  O_16 
ROOT
HETATM    1  N   UNL     1     -44.080 -51.213  12.902  1.00  0.00    -0.307 N 
HETATM    2  C   UNL     1     -42.747 -50.878  12.755  1.00  0.00     0.321 C 
HETATM    3  O   UNL     1     -41.785 -51.508  13.172  1.00  0.00    -0.247 OA
HETATM    4  N   UNL     1     -42.603 -49.708  12.040  1.00  0.00    -0.335 N 
HETATM    5  H   UNL     1     -44.756 -50.598  12.469  1.00  0.00     0.170 HD
HETATM    6  H   UNL     1     -43.389 -49.081  12.067  1.00  0.00     0.164 HD
ENDROOT
BRANCH   1   7
HETATM    7  C   UNL     1     -44.629 -52.351  13.555  1.00  0.00     0.061 A 
HETATM    8  C   UNL     1     -44.768 -53.578  12.915  1.00  0.00     0.048 A 
HETATM    9  C   UNL     1     -45.326 -54.637  13.611  1.00  0.00     0.090 A 
HETATM   10  N   UNL     1     -45.745 -54.559  14.889  1.00  0.00    -0.368 N 
HETATM   11  C   UNL     1     -45.609 -53.367  15.524  1.00  0.00     0.029 A 
ATOM     12  HN  UNL     1     -46.149 -55.367  15.363  1.00  0.00     0.165 HD
HETATM   13  C   UNL     1     -46.103 -53.344  16.943  1.00  0.00     0.070 C 
HETATM   14  C   UNL     1     -45.057 -52.243  14.894  1.00  0.00     0.083 A 
HETATM   15 CL   UNL     1     -44.896 -50.739  15.741  1.00  0.00    -0.080 Cl
ENDBRANCH   1   7
BRANCH   4  16
HETATM   16  C   UNL     1     -41.299 -49.096  11.873  1.00  0.00     0.109 C 
HETATM   17  C   UNL     1     -41.188 -48.168  10.650  1.00  0.00     0.040 C 
HETATM   18  C   UNL     1     -40.527 -46.866  11.141  1.00  0.00     0.034 C 
HETATM   19  C   UNL     1     -40.720 -46.939  12.629  1.00  0.00    -0.022 C 
HETATM   20  C   UNL     1     -41.101 -48.158  13.021  1.00  0.00    -0.005 C 
BRANCH  18  21
HETATM   21  C   UNL     1     -41.130 -45.627  10.477  1.00  0.00     0.172 C 
BRANCH  21  22
HETATM   22  O   UNL     1     -40.228 -45.069   9.523  1.00  0.00    -0.400 OA
HETATM   23  H   UNL     1     -39.407 -44.853   9.994  1.00  0.00     0.209 HD
ENDBRANCH  21  22
ENDBRANCH  18  21
ENDBRANCH   4  16
TORSDOF 4
ENDMDL
