MODEL 1
REMARK VINA RESULT:      -5.0      0.000      0.000
REMARK  3 active torsions:
REMARK  status: ('A' for Active; 'I' for Inactive)
REMARK    1  A    between atoms: N_1  and  S_2 
REMARK    2  A    between atoms: S_2  and  C_5 
REMARK    3  A    between atoms: C_11  and  N_12 
ROOT
HETATM    1  C   UNL     1     -44.679 -52.800  14.447  1.00  0.00     0.118 A 
HETATM    2  C   UNL     1     -45.686 -52.175  15.216  1.00  0.00     0.030 A 
HETATM    3  C   UNL     1     -45.445 -50.964  15.839  1.00  0.00     0.019 A 
HETATM    4  C   UNL     1     -44.203 -50.406  15.655  1.00  0.00     0.090 A 
HETATM    5  N   UNL     1     -43.242 -50.958  14.880  1.00  0.00    -0.351 N 
ATOM      6  HN  UNL     1     -42.353 -50.472  14.756  1.00  0.00     0.166 HD
HETATM    7  C   UNL     1     -43.448 -52.156  14.262  1.00  0.00     0.126 A 
ENDROOT
BRANCH   1   8
HETATM    8  S   UNL     1     -45.016 -54.481  13.999  1.00  0.00     0.243 S 
HETATM    9  O   UNL     1     -44.242 -55.395  14.805  1.00  0.00    -0.206 OA
HETATM   10  O   UNL     1     -45.002 -54.585  12.557  1.00  0.00    -0.206 OA
BRANCH   8  11
HETATM   11  N   UNL     1     -46.631 -54.713  14.386  1.00  0.00    -0.225 NA
HETATM   12  H   UNL     1     -46.714 -55.266  15.235  1.00  0.00     0.136 HD
HETATM   13  H   UNL     1     -47.124 -55.102  13.581  1.00  0.00     0.136 HD
ENDBRANCH   8  11
ENDBRANCH   1   8
BRANCH   7  14
HETATM   14  N   UNL     1     -42.372 -52.628  13.541  1.00  0.00    -0.362 N 
HETATM   15  C   UNL     1     -41.240 -53.237  14.271  1.00  0.00     0.150 C 
HETATM   16  C   UNL     1     -39.941 -52.437  14.106  1.00  0.00     0.187 C 
HETATM   17  O   UNL     1     -39.636 -52.236  12.719  1.00  0.00    -0.388 OA
HETATM   18  C   UNL     1     -40.671 -51.454  12.117  1.00  0.00     0.187 C 
HETATM   19  C   UNL     1     -42.047 -52.136  12.195  1.00  0.00     0.150 C 
ENDBRANCH   7  14
TORSDOF 3
ENDMDL
MODEL 2
REMARK VINA RESULT:      -4.9      2.421      5.261
REMARK  3 active torsions:
REMARK  status: ('A' for Active; 'I' for Inactive)
REMARK    1  A    between atoms: N_1  and  S_2 
REMARK    2  A    between atoms: S_2  and  C_5 
REMARK    3  A    between atoms: C_11  and  N_12 
ROOT
HETATM    1  C   UNL     1     -40.696 -53.457  13.757  1.00  0.00     0.118 A 
HETATM    2  C   UNL     1     -39.429 -53.965  14.120  1.00  0.00     0.030 A 
HETATM    3  C   UNL     1     -39.305 -54.871  15.157  1.00  0.00     0.019 A 
HETATM    4  C   UNL     1     -40.463 -55.256  15.788  1.00  0.00     0.090 A 
HETATM    5  N   UNL     1     -41.692 -54.827  15.424  1.00  0.00    -0.351 N 
ATOM      6  HN  UNL     1     -42.515 -55.181  15.912  1.00  0.00     0.166 HD
HETATM    7  C   UNL     1     -41.843 -53.925  14.412  1.00  0.00     0.126 A 
ENDROOT
BRANCH   1   8
HETATM    8  S   UNL     1     -40.659 -52.070  12.655  1.00  0.00     0.243 S 
HETATM    9  O   UNL     1     -39.302 -51.653  12.395  1.00  0.00    -0.206 OA
HETATM   10  O   UNL     1     -41.649 -51.111  13.089  1.00  0.00    -0.206 OA
BRANCH   8  11
HETATM   11  N   UNL     1     -41.292 -52.650  11.214  1.00  0.00    -0.225 NA
HETATM   12  H   UNL     1     -41.957 -53.397  11.397  1.00  0.00     0.136 HD
HETATM   13  H   UNL     1     -40.531 -52.910  10.585  1.00  0.00     0.136 HD
ENDBRANCH   8  11
ENDBRANCH   1   8
BRANCH   7  14
HETATM   14  N   UNL     1     -43.144 -53.535  14.174  1.00  0.00    -0.362 N 
HETATM   15  C   UNL     1     -43.905 -52.895  15.267  1.00  0.00     0.150 C 
HETATM   16  C   UNL     1     -45.113 -53.733  15.708  1.00  0.00     0.187 C 
HETATM   17  O   UNL     1     -45.952 -54.051  14.587  1.00  0.00    -0.388 OA
HETATM   18  C   UNL     1     -45.216 -54.855  13.661  1.00  0.00     0.187 C 
HETATM   19  C   UNL     1     -43.968 -54.140  13.118  1.00  0.00     0.150 C 
ENDBRANCH   7  14
TORSDOF 3
ENDMDL
MODEL 3
REMARK VINA RESULT:      -4.8      2.440      4.988
REMARK  3 active torsions:
REMARK  status: ('A' for Active; 'I' for Inactive)
REMARK    1  A    between atoms: N_1  and  S_2 
REMARK    2  A    between atoms: S_2  and  C_5 
REMARK    3  A    between atoms: C_11  and  N_12 
ROOT
HETATM    1  C   UNL     1     -41.388 -51.022  12.692  1.00  0.00     0.118 A 
HETATM    2  C   UNL     1     -40.640 -50.009  12.052  1.00  0.00     0.030 A 
HETATM    3  C   UNL     1     -41.266 -48.885  11.545  1.00  0.00     0.019 A 
HETATM    4  C   UNL     1     -42.627 -48.802  11.714  1.00  0.00     0.090 A 
HETATM    5  N   UNL     1     -43.358 -49.731  12.371  1.00  0.00    -0.351 N 
ATOM      6  HN  UNL     1     -44.361 -49.590  12.493  1.00  0.00     0.166 HD
HETATM    7  C   UNL     1     -42.768 -50.855  12.871  1.00  0.00     0.126 A 
ENDROOT
BRANCH   1   8
HETATM    8  S   UNL     1     -40.509 -52.533  12.980  1.00  0.00     0.243 S 
HETATM    9  O   UNL     1     -41.104 -53.278  14.063  1.00  0.00    -0.206 OA
HETATM   10  O   UNL     1     -39.091 -52.247  12.981  1.00  0.00    -0.206 OA
BRANCH   8  11
HETATM   11  N   UNL     1     -40.721 -53.427  11.577  1.00  0.00    -0.225 NA
HETATM   12  H   UNL     1     -40.639 -54.420  11.778  1.00  0.00     0.136 HD
HETATM   13  H   UNL     1     -40.082 -53.090  10.856  1.00  0.00     0.136 HD
ENDBRANCH   8  11
ENDBRANCH   1   8
BRANCH   7  14
HETATM   14  N   UNL     1     -43.634 -51.742  13.475  1.00  0.00    -0.362 N 
HETATM   15  C   UNL     1     -44.278 -52.783  12.646  1.00  0.00     0.150 C 
HETATM   16  C   UNL     1     -45.803 -52.620  12.587  1.00  0.00     0.187 C 
HETATM   17  O   UNL     1     -46.364 -52.565  13.906  1.00  0.00    -0.388 OA
HETATM   18  C   UNL     1     -45.860 -51.411  14.584  1.00  0.00     0.187 C 
HETATM   19  C   UNL     1     -44.330 -51.433  14.732  1.00  0.00     0.150 C 
ENDBRANCH   7  14
TORSDOF 3
ENDMDL
MODEL 4
REMARK VINA RESULT:      -4.8      2.387      4.680
REMARK  3 active torsions:
REMARK  status: ('A' for Active; 'I' for Inactive)
REMARK    1  A    between atoms: N_1  and  S_2 
REMARK    2  A    between atoms: S_2  and  C_5 
REMARK    3  A    between atoms: C_11  and  N_12 
ROOT
HETATM    1  C   UNL     1     -41.610 -51.477  13.259  1.00  0.00     0.118 A 
HETATM    2  C   UNL     1     -41.416 -50.130  12.884  1.00  0.00     0.030 A 
HETATM    3  C   UNL     1     -42.489 -49.262  12.799  1.00  0.00     0.019 A 
HETATM    4  C   UNL     1     -43.726 -49.770  13.114  1.00  0.00     0.090 A 
HETATM    5  N   UNL     1     -43.930 -51.041  13.528  1.00  0.00    -0.351 N 
ATOM      6  HN  UNL     1     -44.870 -51.345  13.782  1.00  0.00     0.166 HD
HETATM    7  C   UNL     1     -42.891 -51.922  13.610  1.00  0.00     0.126 A 
ENDROOT
BRANCH   1   8
HETATM    8  S   UNL     1     -40.212 -52.535  12.997  1.00  0.00     0.243 S 
HETATM    9  O   UNL     1     -40.041 -53.449  14.100  1.00  0.00    -0.206 OA
HETATM   10  O   UNL     1     -39.104 -51.728  12.536  1.00  0.00    -0.206 OA
BRANCH   8  11
HETATM   11  N   UNL     1     -40.611 -53.446  11.646  1.00  0.00    -0.225 NA
HETATM   12  H   UNL     1     -40.485 -52.896  10.801  1.00  0.00     0.136 HD
HETATM   13  H   UNL     1     -41.549 -53.834  11.759  1.00  0.00     0.136 HD
ENDBRANCH   8  11
ENDBRANCH   1   8
BRANCH   7  14
HETATM   14  N   UNL     1     -43.243 -53.196  14.000  1.00  0.00    -0.362 N 
HETATM   15  C   UNL     1     -43.998 -54.046  13.055  1.00  0.00     0.150 C 
HETATM   16  C   UNL     1     -45.399 -54.394  13.574  1.00  0.00     0.187 C 
HETATM   17  O   UNL     1     -45.330 -54.981  14.881  1.00  0.00    -0.388 OA
HETATM   18  C   UNL     1     -44.785 -54.028  15.797  1.00  0.00     0.187 C 
HETATM   19  C   UNL     1     -43.364 -53.584  15.413  1.00  0.00     0.150 C 
ENDBRANCH   7  14
TORSDOF 3
ENDMDL
MODEL 5
REMARK VINA RESULT:      -4.8      3.530      4.683
REMARK  3 active torsions:
REMARK  status: ('A' for Active; 'I' for Inactive)
REMARK    1  A    between atoms: N_1  and  S_2 
REMARK    2  A    between atoms: S_2  and  C_5 
REMARK    3  A    between atoms: C_11  and  N_12 
ROOT
HETATM    1  C   UNL     1     -40.965 -52.871  13.220  1.00  0.00     0.118 A 
HETATM    2  C   UNL     1     -41.735 -54.051  13.320  1.00  0.00     0.030 A 
HETATM    3  C   UNL     1     -43.088 -54.034  13.037  1.00  0.00     0.019 A 
HETATM    4  C   UNL     1     -43.626 -52.833  12.642  1.00  0.00     0.090 A 
HETATM    5  N   UNL     1     -42.900 -51.702  12.487  1.00  0.00    -0.351 N 
ATOM      6  HN  UNL     1     -43.356 -50.852  12.155  1.00  0.00     0.166 HD
HETATM    7  C   UNL     1     -41.566 -51.687  12.770  1.00  0.00     0.126 A 
ENDROOT
BRANCH   1   8
HETATM    8  S   UNL     1     -39.345 -52.972  13.932  1.00  0.00     0.243 S 
HETATM    9  O   UNL     1     -39.401 -52.830  15.367  1.00  0.00    -0.206 OA
HETATM   10  O   UNL     1     -38.448 -52.151  13.150  1.00  0.00    -0.206 OA
BRANCH   8  11
HETATM   11  N   UNL     1     -38.828 -54.532  13.599  1.00  0.00    -0.225 NA
HETATM   12  H   UNL     1     -39.296 -55.196  14.209  1.00  0.00     0.136 HD
HETATM   13  H   UNL     1     -37.808 -54.570  13.639  1.00  0.00     0.136 HD
ENDBRANCH   8  11
ENDBRANCH   1   8
BRANCH   7  14
HETATM   14  N   UNL     1     -40.956 -50.461  12.614  1.00  0.00    -0.362 N 
HETATM   15  C   UNL     1     -41.157 -49.430  13.653  1.00  0.00     0.150 C 
HETATM   16  C   UNL     1     -41.901 -48.199  13.118  1.00  0.00     0.187 C 
HETATM   17  O   UNL     1     -41.243 -47.667  11.959  1.00  0.00    -0.388 OA
HETATM   18  C   UNL     1     -41.269 -48.643  10.913  1.00  0.00     0.187 C 
HETATM   19  C   UNL     1     -40.548 -49.944  11.300  1.00  0.00     0.150 C 
ENDBRANCH   7  14
TORSDOF 3
ENDMDL
MODEL 6
REMARK VINA RESULT:      -4.7      5.863      7.517
REMARK  3 active torsions:
REMARK  status: ('A' for Active; 'I' for Inactive)
REMARK    1  A    between atoms: N_1  and  S_2 
REMARK    2  A    between atoms: S_2  and  C_5 
REMARK    3  A    between atoms: C_11  and  N_12 
ROOT
HETATM    1  C   UNL     1     -42.595 -46.195  10.628  1.00  0.00     0.118 A 
HETATM    2  C   UNL     1     -43.337 -45.598   9.585  1.00  0.00     0.030 A 
HETATM    3  C   UNL     1     -44.399 -46.266   9.006  1.00  0.00     0.019 A 
HETATM    4  C   UNL     1     -44.698 -47.510   9.506  1.00  0.00     0.090 A 
HETATM    5  N   UNL     1     -44.038 -48.080  10.539  1.00  0.00    -0.351 N 
ATOM      6  HN  UNL     1     -44.335 -48.993  10.886  1.00  0.00     0.166 HD
HETATM    7  C   UNL     1     -42.979 -47.449  11.122  1.00  0.00     0.126 A 
ENDROOT
BRANCH   1   8
HETATM    8  S   UNL     1     -41.077 -45.374  11.031  1.00  0.00     0.243 S 
HETATM    9  O   UNL     1     -40.903 -45.282  12.461  1.00  0.00    -0.206 OA
HETATM   10  O   UNL     1     -40.957 -44.195  10.202  1.00  0.00    -0.206 OA
BRANCH   8  11
HETATM   11  N   UNL     1     -39.874 -46.383  10.441  1.00  0.00    -0.225 NA
HETATM   12  H   UNL     1     -39.391 -46.841  11.210  1.00  0.00     0.136 HD
HETATM   13  H   UNL     1     -39.263 -45.858   9.814  1.00  0.00     0.136 HD
ENDBRANCH   8  11
ENDBRANCH   1   8
BRANCH   7  14
HETATM   14  N   UNL     1     -42.367 -48.159  12.133  1.00  0.00    -0.362 N 
HETATM   15  C   UNL     1     -41.533 -49.326  11.776  1.00  0.00     0.150 C 
HETATM   16  C   UNL     1     -42.104 -50.641  12.325  1.00  0.00     0.187 C 
HETATM   17  O   UNL     1     -42.322 -50.553  13.741  1.00  0.00    -0.388 OA
HETATM   18  C   UNL     1     -43.302 -49.545  14.005  1.00  0.00     0.187 C 
HETATM   19  C   UNL     1     -42.866 -48.154  13.515  1.00  0.00     0.150 C 
ENDBRANCH   7  14
TORSDOF 3
ENDMDL
MODEL 7
REMARK VINA RESULT:      -4.6      4.357      6.102
REMARK  3 active torsions:
REMARK  status: ('A' for Active; 'I' for Inactive)
REMARK    1  A    between atoms: N_1  and  S_2 
REMARK    2  A    between atoms: S_2  and  C_5 
REMARK    3  A    between atoms: C_11  and  N_12 
ROOT
HETATM    1  C   UNL     1     -40.276 -51.081  12.231  1.00  0.00     0.118 A 
HETATM    2  C   UNL     1     -40.453 -52.453  12.519  1.00  0.00     0.030 A 
HETATM    3  C   UNL     1     -41.721 -52.977  12.691  1.00  0.00     0.019 A 
HETATM    4  C   UNL     1     -42.777 -52.110  12.549  1.00  0.00     0.090 A 
HETATM    5  N   UNL     1     -42.636 -50.806  12.221  1.00  0.00    -0.351 N 
ATOM      6  HN  UNL     1     -43.465 -50.224  12.095  1.00  0.00     0.166 HD
HETATM    7  C   UNL     1     -41.397 -50.259  12.056  1.00  0.00     0.126 A 
ENDROOT
BRANCH   1   8
HETATM    8  S   UNL     1     -38.609 -50.497  12.373  1.00  0.00     0.243 S 
HETATM    9  O   UNL     1     -37.698 -51.588  12.624  1.00  0.00    -0.206 OA
HETATM   10  O   UNL     1     -38.602 -49.328  13.225  1.00  0.00    -0.206 OA
BRANCH   8  11
HETATM   11  N   UNL     1     -38.243 -49.872  10.860  1.00  0.00    -0.225 NA
HETATM   12  H   UNL     1     -37.927 -50.614  10.241  1.00  0.00     0.136 HD
HETATM   13  H   UNL     1     -37.584 -49.099  10.959  1.00  0.00     0.136 HD
ENDBRANCH   8  11
ENDBRANCH   1   8
BRANCH   7  14
HETATM   14  N   UNL     1     -41.393 -48.911  11.769  1.00  0.00    -0.362 N 
HETATM   15  C   UNL     1     -41.727 -47.954  12.845  1.00  0.00     0.150 C 
HETATM   16  C   UNL     1     -43.011 -47.168  12.550  1.00  0.00     0.187 C 
HETATM   17  O   UNL     1     -42.936 -46.526  11.270  1.00  0.00    -0.388 OA
HETATM   18  C   UNL     1     -42.827 -47.522  10.248  1.00  0.00     0.187 C 
HETATM   19  C   UNL     1     -41.571 -48.394  10.404  1.00  0.00     0.150 C 
ENDBRANCH   7  14
TORSDOF 3
ENDMDL
MODEL 8
REMARK VINA RESULT:      -4.6      3.840      5.670
REMARK  3 active torsions:
REMARK  status: ('A' for Active; 'I' for Inactive)
REMARK    1  A    between atoms: N_1  and  S_2 
REMARK    2  A    between atoms: S_2  and  C_5 
REMARK    3  A    between atoms: C_11  and  N_12 
ROOT
HETATM    1  C   UNL     1     -39.832 -51.068  13.018  1.00  0.00     0.118 A 
HETATM    2  C   UNL     1     -38.534 -51.362  13.490  1.00  0.00     0.030 A 
HETATM    3  C   UNL     1     -37.549 -50.392  13.488  1.00  0.00     0.019 A 
HETATM    4  C   UNL     1     -37.903 -49.146  13.028  1.00  0.00     0.090 A 
HETATM    5  N   UNL     1     -39.153 -48.826  12.622  1.00  0.00    -0.351 N 
ATOM      6  HN  UNL     1     -39.358 -47.871  12.327  1.00  0.00     0.166 HD
HETATM    7  C   UNL     1     -40.141 -49.766  12.603  1.00  0.00     0.126 A 
ENDROOT
BRANCH   1   8
HETATM    8  S   UNL     1     -40.874 -52.480  12.768  1.00  0.00     0.243 S 
HETATM    9  O   UNL     1     -42.125 -52.330  13.471  1.00  0.00    -0.206 OA
HETATM   10  O   UNL     1     -40.078 -53.675  12.938  1.00  0.00    -0.206 OA
BRANCH   8  11
HETATM   11  N   UNL     1     -41.215 -52.476  11.126  1.00  0.00    -0.225 NA
HETATM   12  H   UNL     1     -42.144 -52.854  10.959  1.00  0.00     0.136 HD
HETATM   13  H   UNL     1     -40.469 -52.954  10.620  1.00  0.00     0.136 HD
ENDBRANCH   8  11
ENDBRANCH   1   8
BRANCH   7  14
HETATM   14  N   UNL     1     -41.354 -49.319  12.124  1.00  0.00    -0.362 N 
HETATM   15  C   UNL     1     -41.419 -48.775  10.752  1.00  0.00     0.150 C 
HETATM   16  C   UNL     1     -41.804 -47.289  10.731  1.00  0.00     0.187 C 
HETATM   17  O   UNL     1     -43.023 -47.066  11.452  1.00  0.00    -0.388 OA
HETATM   18  C   UNL     1     -42.829 -47.414  12.826  1.00  0.00     0.187 C 
HETATM   19  C   UNL     1     -42.444 -48.891  13.012  1.00  0.00     0.150 C 
ENDBRANCH   7  14
TORSDOF 3
ENDMDL
MODEL 9
REMARK VINA RESULT:      -4.5      2.027      2.945
REMARK  3 active torsions:
REMARK  status: ('A' for Active; 'I' for Inactive)
REMARK    1  A    between atoms: N_1  and  S_2 
REMARK    2  A    between atoms: S_2  and  C_5 
REMARK    3  A    between atoms: C_11  and  N_12 
ROOT
HETATM    1  C   UNL     1     -43.551 -53.965  14.382  1.00  0.00     0.118 A 
HETATM    2  C   UNL     1     -43.366 -55.032  15.289  1.00  0.00     0.030 A 
HETATM    3  C   UNL     1     -42.104 -55.348  15.756  1.00  0.00     0.019 A 
HETATM    4  C   UNL     1     -41.063 -54.569  15.310  1.00  0.00     0.090 A 
HETATM    5  N   UNL     1     -41.221 -53.510  14.485  1.00  0.00    -0.351 N 
ATOM      6  HN  UNL     1     -40.410 -52.950  14.221  1.00  0.00     0.166 HD
HETATM    7  C   UNL     1     -42.453 -53.182  14.000  1.00  0.00     0.126 A 
ENDROOT
BRANCH   1   8
HETATM    8  S   UNL     1     -45.150 -53.898  13.622  1.00  0.00     0.243 S 
HETATM    9  O   UNL     1     -45.037 -53.800  12.187  1.00  0.00    -0.206 OA
HETATM   10  O   UNL     1     -45.970 -52.961  14.357  1.00  0.00    -0.206 OA
BRANCH   8  11
HETATM   11  N   UNL     1     -45.854 -55.380  13.971  1.00  0.00    -0.225 NA
HETATM   12  H   UNL     1     -46.079 -55.874  13.112  1.00  0.00     0.136 HD
HETATM   13  H   UNL     1     -46.648 -55.243  14.598  1.00  0.00     0.136 HD
ENDBRANCH   8  11
ENDBRANCH   1   8
BRANCH   7  14
HETATM   14  N   UNL     1     -42.467 -52.110  13.133  1.00  0.00    -0.362 N 
HETATM   15  C   UNL     1     -41.537 -52.114  11.985  1.00  0.00     0.150 C 
HETATM   16  C   UNL     1     -40.511 -50.974  12.062  1.00  0.00     0.187 C 
HETATM   17  O   UNL     1     -41.166 -49.706  12.216  1.00  0.00    -0.388 OA
HETATM   18  C   UNL     1     -41.880 -49.692  13.454  1.00  0.00     0.187 C 
HETATM   19  C   UNL     1     -42.961 -50.783  13.526  1.00  0.00     0.150 C 
ENDBRANCH   7  14
TORSDOF 3
ENDMDL
