MODEL 1
REMARK VINA RESULT:      -6.4      0.000      0.000
REMARK  7 active torsions:
REMARK  status: ('A' for Active; 'I' for Inactive)
REMARK    1  A    between atoms: O_2  and  C_3 
REMARK    2  A    between atoms: C_3  and  C_4 
REMARK    3  A    between atoms: C_4  and  N_5 
REMARK    4  A    between atoms: C_6  and  N_7 
REMARK    5  A    between atoms: C_8  and  N_9 
REMARK    6  A    between atoms: N_9  and  C_10 
REMARK    7  A    between atoms: C_10  and  C_11 
ROOT
HETATM    1  N   UNL     1     -42.332 -54.187  13.589  1.00  0.00    -0.286 N 
HETATM    2  C   UNL     1     -43.392 -53.684  12.841  1.00  0.00     0.111 A 
HETATM    3  C   UNL     1     -44.671 -53.859  13.259  1.00  0.00     0.116 A 
HETATM    4  C   UNL     1     -44.912 -54.648  14.507  1.00  0.00     0.274 A 
HETATM    5  O   UNL     1     -46.052 -54.884  14.902  1.00  0.00    -0.266 OA
HETATM    6  N   UNL     1     -43.810 -55.066  15.178  1.00  0.00    -0.274 N 
HETATM    7  C   UNL     1     -42.522 -54.832  14.807  1.00  0.00     0.330 A 
HETATM    8  O   UNL     1     -41.613 -55.203  15.547  1.00  0.00    -0.246 OA
HETATM    9  H   UNL     1     -43.949 -55.568  16.038  1.00  0.00     0.173 HD
ENDROOT
BRANCH   3  10
HETATM   10  N   UNL     1     -45.786 -53.264  12.629  1.00  0.00    -0.281 NA
HETATM   11  H   UNL     1     -45.668 -53.431  11.623  1.00  0.00     0.128 HD
BRANCH  10  12
HETATM   12  C   UNL     1     -45.977 -51.813  12.740  1.00  0.00     0.131 C 
BRANCH  12  13
HETATM   13  C   UNL     1     -45.967 -51.441  14.203  1.00  0.00    -0.045 A 
HETATM   14  C   UNL     1     -47.116 -51.624  14.984  1.00  0.00     0.008 A 
HETATM   15  C   UNL     1     -47.130 -51.249  16.329  1.00  0.00     0.001 A 
HETATM   16  C   UNL     1     -45.997 -50.680  16.906  1.00  0.00     0.000 A 
HETATM   17  C   UNL     1     -44.848 -50.488  16.138  1.00  0.00     0.001 A 
HETATM   18  C   UNL     1     -44.832 -50.861  14.794  1.00  0.00     0.008 A 
ENDBRANCH  12  13
ENDBRANCH  10  12
ENDBRANCH   3  10
BRANCH   2  19
HETATM   19  N   UNL     1     -43.194 -52.943  11.679  1.00  0.00    -0.287 NA
HETATM   20  H   UNL     1     -42.707 -52.073  11.873  1.00  0.00     0.125 HD
HETATM   21  H   UNL     1     -44.112 -52.736  11.271  1.00  0.00     0.125 HD
ENDBRANCH   2  19
BRANCH   1  22
HETATM   22  C   UNL     1     -40.939 -54.025  13.148  1.00  0.00     0.161 C 
BRANCH  22  23
HETATM   23  C   UNL     1     -40.305 -52.710  13.619  1.00  0.00     0.187 C 
BRANCH  23  24
HETATM   24  O   UNL     1     -39.628 -52.085  12.523  1.00  0.00    -0.394 OA
HETATM   25  C   UNL     1     -40.237 -50.841  12.194  1.00  0.00     0.201 C 
ENDBRANCH  23  24
ENDBRANCH  22  23
ENDBRANCH   1  22
TORSDOF 7
ENDMDL
MODEL 2
REMARK VINA RESULT:      -6.3      4.164      6.348
REMARK  7 active torsions:
REMARK  status: ('A' for Active; 'I' for Inactive)
REMARK    1  A    between atoms: O_2  and  C_3 
REMARK    2  A    between atoms: C_3  and  C_4 
REMARK    3  A    between atoms: C_4  and  N_5 
REMARK    4  A    between atoms: C_6  and  N_7 
REMARK    5  A    between atoms: C_8  and  N_9 
REMARK    6  A    between atoms: N_9  and  C_10 
REMARK    7  A    between atoms: C_10  and  C_11 
ROOT
HETATM    1  N   UNL     1     -42.009 -47.184  10.825  1.00  0.00    -0.286 N 
HETATM    2  C   UNL     1     -42.668 -48.328  11.268  1.00  0.00     0.111 A 
HETATM    3  C   UNL     1     -41.961 -49.389  11.734  1.00  0.00     0.116 A 
HETATM    4  C   UNL     1     -40.468 -49.319  11.707  1.00  0.00     0.274 A 
HETATM    5  O   UNL     1     -39.777 -50.271  12.065  1.00  0.00    -0.266 OA
HETATM    6  N   UNL     1     -39.927 -48.147  11.288  1.00  0.00    -0.274 N 
HETATM    7  C   UNL     1     -40.627 -47.051  10.889  1.00  0.00     0.330 A 
HETATM    8  O   UNL     1     -40.013 -46.024  10.604  1.00  0.00    -0.246 OA
HETATM    9  H   UNL     1     -38.924 -48.066  11.295  1.00  0.00     0.173 HD
ENDROOT
BRANCH   3  10
HETATM   10  N   UNL     1     -42.558 -50.526  12.322  1.00  0.00    -0.281 NA
HETATM   11  H   UNL     1     -43.524 -50.551  11.977  1.00  0.00     0.128 HD
BRANCH  10  12
HETATM   12  C   UNL     1     -42.688 -50.585  13.783  1.00  0.00     0.131 C 
BRANCH  12  13
HETATM   13  C   UNL     1     -44.134 -50.854  14.123  1.00  0.00    -0.045 A 
HETATM   14  C   UNL     1     -44.576 -50.756  15.449  1.00  0.00     0.008 A 
HETATM   15  C   UNL     1     -45.903 -51.037  15.780  1.00  0.00     0.001 A 
HETATM   16  C   UNL     1     -46.801 -51.428  14.789  1.00  0.00     0.000 A 
HETATM   17  C   UNL     1     -46.373 -51.535  13.465  1.00  0.00     0.001 A 
HETATM   18  C   UNL     1     -45.047 -51.253  13.133  1.00  0.00     0.008 A 
ENDBRANCH  12  13
ENDBRANCH  10  12
ENDBRANCH   3  10
BRANCH   2  19
HETATM   19  N   UNL     1     -44.056 -48.417  11.306  1.00  0.00    -0.287 NA
HETATM   20  H   UNL     1     -44.361 -49.355  11.547  1.00  0.00     0.125 HD
HETATM   21  H   UNL     1     -44.419 -48.167  10.380  1.00  0.00     0.125 HD
ENDBRANCH   2  19
BRANCH   1  22
HETATM   22  C   UNL     1     -42.752 -46.029  10.300  1.00  0.00     0.161 C 
BRANCH  22  23
HETATM   23  C   UNL     1     -43.010 -46.112   8.790  1.00  0.00     0.187 C 
BRANCH  23  24
HETATM   24  O   UNL     1     -44.000 -47.112   8.528  1.00  0.00    -0.394 OA
HETATM   25  C   UNL     1     -43.539 -48.038   7.550  1.00  0.00     0.201 C 
ENDBRANCH  23  24
ENDBRANCH  22  23
ENDBRANCH   1  22
TORSDOF 7
ENDMDL
MODEL 3
REMARK VINA RESULT:      -6.1      3.889      6.490
REMARK  7 active torsions:
REMARK  status: ('A' for Active; 'I' for Inactive)
REMARK    1  A    between atoms: O_2  and  C_3 
REMARK    2  A    between atoms: C_3  and  C_4 
REMARK    3  A    between atoms: C_4  and  N_5 
REMARK    4  A    between atoms: C_6  and  N_7 
REMARK    5  A    between atoms: C_8  and  N_9 
REMARK    6  A    between atoms: N_9  and  C_10 
REMARK    7  A    between atoms: C_10  and  C_11 
ROOT
HETATM    1  N   UNL     1     -42.057 -48.014  11.417  1.00  0.00    -0.286 N 
HETATM    2  C   UNL     1     -42.243 -49.266  11.996  1.00  0.00     0.111 A 
HETATM    3  C   UNL     1     -41.187 -50.098  12.184  1.00  0.00     0.116 A 
HETATM    4  C   UNL     1     -39.840 -49.659  11.707  1.00  0.00     0.274 A 
HETATM    5  O   UNL     1     -38.859 -50.394  11.802  1.00  0.00    -0.266 OA
HETATM    6  N   UNL     1     -39.762 -48.408  11.187  1.00  0.00    -0.274 N 
HETATM    7  C   UNL     1     -40.800 -47.538  11.062  1.00  0.00     0.330 A 
HETATM    8  O   UNL     1     -40.578 -46.404  10.642  1.00  0.00    -0.246 OA
HETATM    9  H   UNL     1     -38.858 -48.081  10.892  1.00  0.00     0.173 HD
ENDROOT
BRANCH   3  10
HETATM   10  N   UNL     1     -41.274 -51.321  12.884  1.00  0.00    -0.281 NA
HETATM   11  H   UNL     1     -40.348 -51.479  13.297  1.00  0.00     0.128 HD
BRANCH  10  12
HETATM   12  C   UNL     1     -41.558 -52.551  12.134  1.00  0.00     0.131 C 
BRANCH  12  13
HETATM   13  C   UNL     1     -42.588 -53.348  12.897  1.00  0.00    -0.045 A 
HETATM   14  C   UNL     1     -42.210 -54.097  14.019  1.00  0.00     0.008 A 
HETATM   15  C   UNL     1     -43.147 -54.867  14.711  1.00  0.00     0.001 A 
HETATM   16  C   UNL     1     -44.473 -54.901  14.283  1.00  0.00     0.000 A 
HETATM   17  C   UNL     1     -44.862 -54.164  13.164  1.00  0.00     0.001 A 
HETATM   18  C   UNL     1     -43.926 -53.394  12.472  1.00  0.00     0.008 A 
ENDBRANCH  12  13
ENDBRANCH  10  12
ENDBRANCH   3  10
BRANCH   2  19
HETATM   19  N   UNL     1     -43.486 -49.695  12.452  1.00  0.00    -0.287 NA
HETATM   20  H   UNL     1     -44.239 -49.330  11.877  1.00  0.00     0.125 HD
HETATM   21  H   UNL     1     -43.604 -49.367  13.417  1.00  0.00     0.125 HD
ENDBRANCH   2  19
BRANCH   1  22
HETATM   22  C   UNL     1     -43.188 -47.102  11.187  1.00  0.00     0.161 C 
BRANCH  22  23
HETATM   23  C   UNL     1     -44.015 -47.466   9.946  1.00  0.00     0.187 C 
BRANCH  23  24
HETATM   24  O   UNL     1     -43.376 -46.945   8.776  1.00  0.00    -0.394 OA
HETATM   25  C   UNL     1     -43.500 -47.851   7.685  1.00  0.00     0.201 C 
ENDBRANCH  23  24
ENDBRANCH  22  23
ENDBRANCH   1  22
TORSDOF 7
ENDMDL
MODEL 4
REMARK VINA RESULT:      -6.0      3.866      6.083
REMARK  7 active torsions:
REMARK  status: ('A' for Active; 'I' for Inactive)
REMARK    1  A    between atoms: O_2  and  C_3 
REMARK    2  A    between atoms: C_3  and  C_4 
REMARK    3  A    between atoms: C_4  and  N_5 
REMARK    4  A    between atoms: C_6  and  N_7 
REMARK    5  A    between atoms: C_8  and  N_9 
REMARK    6  A    between atoms: N_9  and  C_10 
REMARK    7  A    between atoms: C_10  and  C_11 
ROOT
HETATM    1  N   UNL     1     -40.470 -48.829  12.423  1.00  0.00    -0.286 N 
HETATM    2  C   UNL     1     -40.873 -50.134  12.159  1.00  0.00     0.111 A 
HETATM    3  C   UNL     1     -40.006 -51.166  12.319  1.00  0.00     0.116 A 
HETATM    4  C   UNL     1     -38.601 -50.859  12.729  1.00  0.00     0.274 A 
HETATM    5  O   UNL     1     -37.759 -51.748  12.836  1.00  0.00    -0.266 OA
HETATM    6  N   UNL     1     -38.320 -49.558  12.993  1.00  0.00    -0.274 N 
HETATM    7  C   UNL     1     -39.202 -48.526  12.908  1.00  0.00     0.330 A 
HETATM    8  O   UNL     1     -38.837 -47.402  13.249  1.00  0.00    -0.246 OA
HETATM    9  H   UNL     1     -37.390 -49.335  13.304  1.00  0.00     0.173 HD
ENDROOT
BRANCH   3  10
HETATM   10  N   UNL     1     -40.378 -52.523  12.201  1.00  0.00    -0.281 NA
HETATM   11  H   UNL     1     -41.331 -52.525  11.820  1.00  0.00     0.128 HD
BRANCH  10  12
HETATM   12  C   UNL     1     -40.465 -53.345  13.414  1.00  0.00     0.131 C 
BRANCH  12  13
HETATM   13  C   UNL     1     -41.884 -53.839  13.555  1.00  0.00    -0.045 A 
HETATM   14  C   UNL     1     -42.848 -53.494  12.599  1.00  0.00     0.008 A 
HETATM   15  C   UNL     1     -44.172 -53.916  12.738  1.00  0.00     0.001 A 
HETATM   16  C   UNL     1     -44.548 -54.680  13.841  1.00  0.00     0.000 A 
HETATM   17  C   UNL     1     -43.599 -55.026  14.804  1.00  0.00     0.001 A 
HETATM   18  C   UNL     1     -42.276 -54.606  14.665  1.00  0.00     0.008 A 
ENDBRANCH  12  13
ENDBRANCH  10  12
ENDBRANCH   3  10
BRANCH   2  19
HETATM   19  N   UNL     1     -42.176 -50.446  11.780  1.00  0.00    -0.287 NA
HETATM   20  H   UNL     1     -42.506 -49.828  11.045  1.00  0.00     0.125 HD
HETATM   21  H   UNL     1     -42.781 -50.351  12.603  1.00  0.00     0.125 HD
ENDBRANCH   2  19
BRANCH   1  22
HETATM   22  C   UNL     1     -41.386 -47.693  12.242  1.00  0.00     0.161 C 
BRANCH  22  23
HETATM   23  C   UNL     1     -41.370 -47.126  10.815  1.00  0.00     0.187 C 
BRANCH  23  24
HETATM   24  O   UNL     1     -42.304 -47.847  10.004  1.00  0.00    -0.394 OA
HETATM   25  C   UNL     1     -43.641 -47.477  10.320  1.00  0.00     0.201 C 
ENDBRANCH  23  24
ENDBRANCH  22  23
ENDBRANCH   1  22
TORSDOF 7
ENDMDL
MODEL 5
REMARK VINA RESULT:      -5.9      2.410      4.095
REMARK  7 active torsions:
REMARK  status: ('A' for Active; 'I' for Inactive)
REMARK    1  A    between atoms: O_2  and  C_3 
REMARK    2  A    between atoms: C_3  and  C_4 
REMARK    3  A    between atoms: C_4  and  N_5 
REMARK    4  A    between atoms: C_6  and  N_7 
REMARK    5  A    between atoms: C_8  and  N_9 
REMARK    6  A    between atoms: N_9  and  C_10 
REMARK    7  A    between atoms: C_10  and  C_11 
ROOT
HETATM    1  N   UNL     1     -40.400 -50.305  13.065  1.00  0.00    -0.286 N 
HETATM    2  C   UNL     1     -41.497 -50.836  12.393  1.00  0.00     0.111 A 
HETATM    3  C   UNL     1     -41.664 -52.181  12.308  1.00  0.00     0.116 A 
HETATM    4  C   UNL     1     -40.618 -53.068  12.904  1.00  0.00     0.274 A 
HETATM    5  O   UNL     1     -40.690 -54.292  12.809  1.00  0.00    -0.266 OA
HETATM    6  N   UNL     1     -39.607 -52.450  13.565  1.00  0.00    -0.274 N 
HETATM    7  C   UNL     1     -39.470 -51.105  13.719  1.00  0.00     0.330 A 
HETATM    8  O   UNL     1     -38.545 -50.677  14.408  1.00  0.00    -0.246 OA
HETATM    9  H   UNL     1     -38.912 -53.029  14.002  1.00  0.00     0.173 HD
ENDROOT
BRANCH   3  10
HETATM   10  N   UNL     1     -42.815 -52.790  11.763  1.00  0.00    -0.281 NA
HETATM   11  H   UNL     1     -43.436 -52.024  11.480  1.00  0.00     0.128 HD
BRANCH  10  12
HETATM   12  C   UNL     1     -43.646 -53.640  12.624  1.00  0.00     0.131 C 
BRANCH  12  13
HETATM   13  C   UNL     1     -44.729 -52.785  13.237  1.00  0.00    -0.045 A 
HETATM   14  C   UNL     1     -44.627 -52.369  14.571  1.00  0.00     0.008 A 
HETATM   15  C   UNL     1     -45.639 -51.609  15.159  1.00  0.00     0.001 A 
HETATM   16  C   UNL     1     -46.769 -51.261  14.420  1.00  0.00     0.000 A 
HETATM   17  C   UNL     1     -46.885 -51.673  13.092  1.00  0.00     0.001 A 
HETATM   18  C   UNL     1     -45.874 -52.433  12.503  1.00  0.00     0.008 A 
ENDBRANCH  12  13
ENDBRANCH  10  12
ENDBRANCH   3  10
BRANCH   2  19
HETATM   19  N   UNL     1     -42.486 -50.032  11.834  1.00  0.00    -0.287 NA
HETATM   20  H   UNL     1     -43.199 -50.588  11.372  1.00  0.00     0.125 HD
HETATM   21  H   UNL     1     -42.043 -49.408  11.151  1.00  0.00     0.125 HD
ENDBRANCH   2  19
BRANCH   1  22
HETATM   22  C   UNL     1     -40.189 -48.852  13.156  1.00  0.00     0.161 C 
BRANCH  22  23
HETATM   23  C   UNL     1     -39.515 -48.262  11.910  1.00  0.00     0.187 C 
BRANCH  23  24
HETATM   24  O   UNL     1     -40.508 -47.669  11.065  1.00  0.00    -0.394 OA
HETATM   25  C   UNL     1     -40.335 -46.258  10.993  1.00  0.00     0.201 C 
ENDBRANCH  23  24
ENDBRANCH  22  23
ENDBRANCH   1  22
TORSDOF 7
ENDMDL
MODEL 6
REMARK VINA RESULT:      -5.8      2.214      5.685
REMARK  7 active torsions:
REMARK  status: ('A' for Active; 'I' for Inactive)
REMARK    1  A    between atoms: O_2  and  C_3 
REMARK    2  A    between atoms: C_3  and  C_4 
REMARK    3  A    between atoms: C_4  and  N_5 
REMARK    4  A    between atoms: C_6  and  N_7 
REMARK    5  A    between atoms: C_8  and  N_9 
REMARK    6  A    between atoms: N_9  and  C_10 
REMARK    7  A    between atoms: C_10  and  C_11 
ROOT
HETATM    1  N   UNL     1     -42.802 -53.432  13.997  1.00  0.00    -0.286 N 
HETATM    2  C   UNL     1     -42.169 -52.548  13.128  1.00  0.00     0.111 A 
HETATM    3  C   UNL     1     -40.832 -52.638  12.911  1.00  0.00     0.116 A 
HETATM    4  C   UNL     1     -40.055 -53.668  13.666  1.00  0.00     0.274 A 
HETATM    5  O   UNL     1     -38.834 -53.758  13.551  1.00  0.00    -0.266 OA
HETATM    6  N   UNL     1     -40.772 -54.500  14.463  1.00  0.00    -0.274 N 
HETATM    7  C   UNL     1     -42.122 -54.466  14.630  1.00  0.00     0.330 A 
HETATM    8  O   UNL     1     -42.656 -55.328  15.325  1.00  0.00    -0.246 OA
HETATM    9  H   UNL     1     -40.273 -55.222  14.953  1.00  0.00     0.173 HD
ENDROOT
BRANCH   3  10
HETATM   10  N   UNL     1     -40.145 -51.869  11.946  1.00  0.00    -0.281 NA
HETATM   11  H   UNL     1     -39.531 -52.521  11.446  1.00  0.00     0.128 HD
BRANCH  10  12
HETATM   12  C   UNL     1     -39.252 -50.795  12.397  1.00  0.00     0.131 C 
BRANCH  12  13
HETATM   13  C   UNL     1     -39.806 -49.478  11.910  1.00  0.00    -0.045 A 
HETATM   14  C   UNL     1     -39.309 -48.272  12.423  1.00  0.00     0.008 A 
HETATM   15  C   UNL     1     -39.839 -47.049  12.007  1.00  0.00     0.001 A 
HETATM   16  C   UNL     1     -40.879 -47.019  11.079  1.00  0.00     0.000 A 
HETATM   17  C   UNL     1     -41.386 -48.213  10.565  1.00  0.00     0.001 A 
HETATM   18  C   UNL     1     -40.857 -49.435  10.979  1.00  0.00     0.008 A 
ENDBRANCH  12  13
ENDBRANCH  10  12
ENDBRANCH   3  10
BRANCH   2  19
HETATM   19  N   UNL     1     -42.871 -51.584  12.410  1.00  0.00    -0.287 NA
HETATM   20  H   UNL     1     -42.845 -50.682  12.876  1.00  0.00     0.125 HD
HETATM   21  H   UNL     1     -43.844 -51.895  12.323  1.00  0.00     0.125 HD
ENDBRANCH   2  19
BRANCH   1  22
HETATM   22  C   UNL     1     -44.246 -53.343  14.261  1.00  0.00     0.161 C 
BRANCH  22  23
HETATM   23  C   UNL     1     -45.094 -54.127  13.251  1.00  0.00     0.187 C 
BRANCH  23  24
HETATM   24  O   UNL     1     -45.541 -53.246  12.215  1.00  0.00    -0.394 OA
HETATM   25  C   UNL     1     -46.383 -52.228  12.744  1.00  0.00     0.201 C 
ENDBRANCH  23  24
ENDBRANCH  22  23
ENDBRANCH   1  22
TORSDOF 7
ENDMDL
MODEL 7
REMARK VINA RESULT:      -5.8      3.644      6.060
REMARK  7 active torsions:
REMARK  status: ('A' for Active; 'I' for Inactive)
REMARK    1  A    between atoms: O_2  and  C_3 
REMARK    2  A    between atoms: C_3  and  C_4 
REMARK    3  A    between atoms: C_4  and  N_5 
REMARK    4  A    between atoms: C_6  and  N_7 
REMARK    5  A    between atoms: C_8  and  N_9 
REMARK    6  A    between atoms: N_9  and  C_10 
REMARK    7  A    between atoms: C_10  and  C_11 
ROOT
HETATM    1  N   UNL     1     -40.273 -48.071  12.150  1.00  0.00    -0.286 N 
HETATM    2  C   UNL     1     -40.941 -49.169  11.616  1.00  0.00     0.111 A 
HETATM    3  C   UNL     1     -40.460 -50.424  11.807  1.00  0.00     0.116 A 
HETATM    4  C   UNL     1     -39.174 -50.588  12.553  1.00  0.00     0.274 A 
HETATM    5  O   UNL     1     -38.664 -51.696  12.708  1.00  0.00    -0.266 OA
HETATM    6  N   UNL     1     -38.622 -49.457  13.060  1.00  0.00    -0.274 N 
HETATM    7  C   UNL     1     -39.135 -48.203  12.938  1.00  0.00     0.330 A 
HETATM    8  O   UNL     1     -38.573 -47.272  13.511  1.00  0.00    -0.246 OA
HETATM    9  H   UNL     1     -37.775 -49.550  13.594  1.00  0.00     0.173 HD
ENDROOT
BRANCH   3  10
HETATM   10  N   UNL     1     -41.149 -51.591  11.414  1.00  0.00    -0.281 NA
HETATM   11  H   UNL     1     -42.017 -51.273  10.968  1.00  0.00     0.128 HD
BRANCH  10  12
HETATM   12  C   UNL     1     -41.591 -52.538  12.445  1.00  0.00     0.131 C 
BRANCH  12  13
HETATM   13  C   UNL     1     -43.048 -52.277  12.740  1.00  0.00    -0.045 A 
HETATM   14  C   UNL     1     -43.422 -51.171  13.514  1.00  0.00     0.008 A 
HETATM   15  C   UNL     1     -44.764 -50.939  13.824  1.00  0.00     0.001 A 
HETATM   16  C   UNL     1     -45.746 -51.817  13.370  1.00  0.00     0.000 A 
HETATM   17  C   UNL     1     -45.386 -52.926  12.603  1.00  0.00     0.001 A 
HETATM   18  C   UNL     1     -44.046 -53.158  12.292  1.00  0.00     0.008 A 
ENDBRANCH  12  13
ENDBRANCH  10  12
ENDBRANCH   3  10
BRANCH   2  19
HETATM   19  N   UNL     1     -42.141 -49.042  10.922  1.00  0.00    -0.287 NA
HETATM   20  H   UNL     1     -42.342 -49.873  10.374  1.00  0.00     0.125 HD
HETATM   21  H   UNL     1     -42.066 -48.232  10.298  1.00  0.00     0.125 HD
ENDBRANCH   2  19
BRANCH   1  22
HETATM   22  C   UNL     1     -40.766 -46.701  11.942  1.00  0.00     0.161 C 
BRANCH  22  23
HETATM   23  C   UNL     1     -40.149 -46.017  10.714  1.00  0.00     0.187 C 
BRANCH  23  24
HETATM   24  O   UNL     1     -41.140 -45.214  10.065  1.00  0.00    -0.394 OA
HETATM   25  C   UNL     1     -42.421 -45.415  10.653  1.00  0.00     0.201 C 
ENDBRANCH  23  24
ENDBRANCH  22  23
ENDBRANCH   1  22
TORSDOF 7
ENDMDL
MODEL 8
REMARK VINA RESULT:      -5.8      2.494      5.890
REMARK  7 active torsions:
REMARK  status: ('A' for Active; 'I' for Inactive)
REMARK    1  A    between atoms: O_2  and  C_3 
REMARK    2  A    between atoms: C_3  and  C_4 
REMARK    3  A    between atoms: C_4  and  N_5 
REMARK    4  A    between atoms: C_6  and  N_7 
REMARK    5  A    between atoms: C_8  and  N_9 
REMARK    6  A    between atoms: N_9  and  C_10 
REMARK    7  A    between atoms: C_10  and  C_11 
ROOT
HETATM    1  N   UNL     1     -42.855 -54.171  13.419  1.00  0.00    -0.286 N 
HETATM    2  C   UNL     1     -41.594 -53.673  13.107  1.00  0.00     0.111 A 
HETATM    3  C   UNL     1     -40.564 -53.818  13.979  1.00  0.00     0.116 A 
HETATM    4  C   UNL     1     -40.831 -54.472  15.296  1.00  0.00     0.274 A 
HETATM    5  O   UNL     1     -39.950 -54.581  16.146  1.00  0.00    -0.266 OA
HETATM    6  N   UNL     1     -42.086 -54.951  15.488  1.00  0.00    -0.274 N 
HETATM    7  C   UNL     1     -43.106 -54.878  14.590  1.00  0.00     0.330 A 
HETATM    8  O   UNL     1     -44.176 -55.420  14.860  1.00  0.00    -0.246 OA
HETATM    9  H   UNL     1     -42.278 -55.426  16.353  1.00  0.00     0.173 HD
ENDROOT
BRANCH   3  10
HETATM   10  N   UNL     1     -39.231 -53.461  13.677  1.00  0.00    -0.281 NA
HETATM   11  H   UNL     1     -38.651 -54.255  13.969  1.00  0.00     0.128 HD
BRANCH  10  12
HETATM   12  C   UNL     1     -38.634 -52.302  14.352  1.00  0.00     0.131 C 
BRANCH  12  13
HETATM   13  C   UNL     1     -38.664 -51.129  13.403  1.00  0.00    -0.045 A 
HETATM   14  C   UNL     1     -37.589 -50.898  12.535  1.00  0.00     0.008 A 
HETATM   15  C   UNL     1     -37.590 -49.795  11.678  1.00  0.00     0.001 A 
HETATM   16  C   UNL     1     -38.663 -48.907  11.686  1.00  0.00     0.000 A 
HETATM   17  C   UNL     1     -39.737 -49.122  12.550  1.00  0.00     0.001 A 
HETATM   18  C   UNL     1     -39.738 -50.224  13.406  1.00  0.00     0.008 A 
ENDBRANCH  12  13
ENDBRANCH  10  12
ENDBRANCH   3  10
BRANCH   2  19
HETATM   19  N   UNL     1     -41.318 -53.064  11.886  1.00  0.00    -0.287 NA
HETATM   20  H   UNL     1     -40.712 -53.641  11.312  1.00  0.00     0.125 HD
HETATM   21  H   UNL     1     -40.858 -52.166  12.072  1.00  0.00     0.125 HD
ENDBRANCH   2  19
BRANCH   1  22
HETATM   22  C   UNL     1     -43.991 -54.011  12.498  1.00  0.00     0.161 C 
BRANCH  22  23
HETATM   23  C   UNL     1     -44.838 -52.767  12.795  1.00  0.00     0.187 C 
BRANCH  23  24
HETATM   24  O   UNL     1     -46.056 -52.827  12.045  1.00  0.00    -0.394 OA
HETATM   25  C   UNL     1     -46.809 -51.629  12.203  1.00  0.00     0.201 C 
ENDBRANCH  23  24
ENDBRANCH  22  23
ENDBRANCH   1  22
TORSDOF 7
ENDMDL
MODEL 9
REMARK VINA RESULT:      -5.7      2.833      6.402
REMARK  7 active torsions:
REMARK  status: ('A' for Active; 'I' for Inactive)
REMARK    1  A    between atoms: O_2  and  C_3 
REMARK    2  A    between atoms: C_3  and  C_4 
REMARK    3  A    between atoms: C_4  and  N_5 
REMARK    4  A    between atoms: C_6  and  N_7 
REMARK    5  A    between atoms: C_8  and  N_9 
REMARK    6  A    between atoms: N_9  and  C_10 
REMARK    7  A    between atoms: C_10  and  C_11 
ROOT
HETATM    1  N   UNL     1     -44.435 -54.352  13.533  1.00  0.00    -0.286 N 
HETATM    2  C   UNL     1     -43.217 -54.682  14.120  1.00  0.00     0.111 A 
HETATM    3  C   UNL     1     -42.066 -54.115  13.677  1.00  0.00     0.116 A 
HETATM    4  C   UNL     1     -42.134 -53.175  12.516  1.00  0.00     0.274 A 
HETATM    5  O   UNL     1     -41.118 -52.675  12.039  1.00  0.00    -0.266 OA
HETATM    6  N   UNL     1     -43.373 -52.895  12.039  1.00  0.00    -0.274 N 
HETATM    7  C   UNL     1     -44.540 -53.401  12.524  1.00  0.00     0.330 A 
HETATM    8  O   UNL     1     -45.602 -53.006  12.048  1.00  0.00    -0.246 OA
HETATM    9  H   UNL     1     -43.445 -52.239  11.281  1.00  0.00     0.173 HD
ENDROOT
BRANCH   3  10
HETATM   10  N   UNL     1     -40.815 -54.297  14.307  1.00  0.00    -0.281 NA
HETATM   11  H   UNL     1     -40.817 -55.255  14.673  1.00  0.00     0.128 HD
BRANCH  10  12
HETATM   12  C   UNL     1     -40.472 -53.461  15.464  1.00  0.00     0.131 C 
BRANCH  12  13
HETATM   13  C   UNL     1     -39.440 -54.190  16.290  1.00  0.00    -0.045 A 
HETATM   14  C   UNL     1     -38.540 -53.470  17.087  1.00  0.00     0.008 A 
HETATM   15  C   UNL     1     -37.558 -54.132  17.827  1.00  0.00     0.001 A 
HETATM   16  C   UNL     1     -37.460 -55.521  17.771  1.00  0.00     0.000 A 
HETATM   17  C   UNL     1     -38.347 -56.249  16.976  1.00  0.00     0.001 A 
HETATM   18  C   UNL     1     -39.329 -55.589  16.237  1.00  0.00     0.008 A 
ENDBRANCH  12  13
ENDBRANCH  10  12
ENDBRANCH   3  10
BRANCH   2  19
HETATM   19  N   UNL     1     -43.127 -55.551  15.204  1.00  0.00    -0.287 NA
HETATM   20  H   UNL     1     -44.041 -55.897  15.478  1.00  0.00     0.125 HD
HETATM   21  H   UNL     1     -42.705 -55.042  15.988  1.00  0.00     0.125 HD
ENDBRANCH   2  19
BRANCH   1  22
HETATM   22  C   UNL     1     -45.693 -54.966  13.984  1.00  0.00     0.161 C 
BRANCH  22  23
HETATM   23  C   UNL     1     -46.394 -54.164  15.088  1.00  0.00     0.187 C 
BRANCH  23  24
HETATM   24  O   UNL     1     -45.876 -54.553  16.365  1.00  0.00    -0.394 OA
HETATM   25  C   UNL     1     -45.349 -53.429  17.062  1.00  0.00     0.201 C 
ENDBRANCH  23  24
ENDBRANCH  22  23
ENDBRANCH   1  22
TORSDOF 7
ENDMDL
