MODEL 1
REMARK VINA RESULT:      -6.3      0.000      0.000
REMARK  4 active torsions:
REMARK  status: ('A' for Active; 'I' for Inactive)
REMARK    1  A    between atoms: C_5  and  N_8 
REMARK       I    between atoms: N_8  and  C_9 
REMARK    2  A    between atoms: C_9  and  C_11 
REMARK    3  A    between atoms: C_11  and  N_12 
REMARK    4  A    between atoms: C_16  and  C_19 
ROOT
HETATM    1  C   UNL     1     -41.285 -49.548  11.320  1.00  0.00     0.234 C 
ENDROOT
BRANCH   1   2
HETATM    2  C   UNL     1     -41.928 -49.950  12.649  1.00  0.00     0.236 C 
HETATM    3  N   UNL     1     -42.936 -50.887  12.535  1.00  0.00    -0.355 N 
HETATM    4  H   UNL     1     -43.167 -51.236  11.608  1.00  0.00     0.162 HD
HETATM    5  O   UNL     1     -41.609 -49.422  13.711  1.00  0.00    -0.272 OA
BRANCH   3   6
HETATM    6  C   UNL     1     -43.635 -51.430  13.696  1.00  0.00     0.084 C 
HETATM    7  C   UNL     1     -42.974 -52.731  14.172  1.00  0.00     0.025 C 
HETATM    8  C   UNL     1     -43.252 -53.908  13.235  1.00  0.00     0.006 C 
HETATM    9  C   UNL     1     -44.745 -54.122  12.966  1.00  0.00    -0.019 C 
HETATM   10  C   UNL     1     -45.466 -54.701  14.190  1.00  0.00     0.010 C 
HETATM   11  C   UNL     1     -45.404 -52.822  12.484  1.00  0.00     0.006 C 
HETATM   12  C   UNL     1     -45.126 -51.630  13.402  1.00  0.00     0.025 C 
ENDBRANCH   3   6
ENDBRANCH   1   2
BRANCH   1  13
HETATM   13  N   UNL     1     -41.608 -48.154  11.017  1.00  0.00    -0.315 N 
HETATM   14  C   UNL     1     -42.875 -47.838  10.565  1.00  0.00     0.095 A 
HETATM   15  C   UNL     1     -43.191 -46.581  10.237  1.00  0.00     0.018 A 
HETATM   16  C   UNL     1     -42.186 -45.552  10.310  1.00  0.00     0.023 A 
HETATM   17  C   UNL     1     -40.932 -45.819  10.719  1.00  0.00     0.115 A 
HETATM   18  C   UNL     1     -40.589 -47.204  11.139  1.00  0.00     0.263 A 
HETATM   19  O   UNL     1     -39.470 -47.500  11.552  1.00  0.00    -0.267 OA
BRANCH  17  20
HETATM   20  C   UNL     1     -39.858 -44.793  10.721  1.00  0.00     0.422 C 
HETATM   21  F   UNL     1     -39.122 -44.688  11.853  1.00  0.00    -0.166 F 
HETATM   22  F   UNL     1     -38.971 -45.029   9.713  1.00  0.00    -0.166 F 
HETATM   23  F   UNL     1     -40.367 -43.554  10.480  1.00  0.00    -0.166 F 
ENDBRANCH  17  20
ENDBRANCH   1  13
TORSDOF 4
ENDMDL
MODEL 2
REMARK VINA RESULT:      -6.2      3.936      5.039
REMARK  4 active torsions:
REMARK  status: ('A' for Active; 'I' for Inactive)
REMARK    1  A    between atoms: C_5  and  N_8 
REMARK       I    between atoms: N_8  and  C_9 
REMARK    2  A    between atoms: C_9  and  C_11 
REMARK    3  A    between atoms: C_11  and  N_12 
REMARK    4  A    between atoms: C_16  and  C_19 
ROOT
HETATM    1  C   UNL     1     -41.357 -54.003  13.028  1.00  0.00     0.234 C 
ENDROOT
BRANCH   1   2
HETATM    2  C   UNL     1     -42.170 -54.041  14.323  1.00  0.00     0.236 C 
HETATM    3  N   UNL     1     -43.474 -53.606  14.193  1.00  0.00    -0.355 N 
HETATM    4  H   UNL     1     -43.793 -53.308  13.273  1.00  0.00     0.162 HD
HETATM    5  O   UNL     1     -41.668 -54.367  15.396  1.00  0.00    -0.272 OA
BRANCH   3   6
HETATM    6  C   UNL     1     -44.417 -53.614  15.306  1.00  0.00     0.084 C 
HETATM    7  C   UNL     1     -45.838 -53.928  14.817  1.00  0.00     0.025 C 
HETATM    8  C   UNL     1     -46.471 -52.760  14.060  1.00  0.00     0.006 C 
HETATM    9  C   UNL     1     -46.445 -51.447  14.852  1.00  0.00    -0.019 C 
HETATM   10  C   UNL     1     -47.446 -51.465  16.013  1.00  0.00     0.010 C 
HETATM   11  C   UNL     1     -45.023 -51.130  15.335  1.00  0.00     0.006 C 
HETATM   12  C   UNL     1     -44.369 -52.293  16.083  1.00  0.00     0.025 C 
ENDBRANCH   3   6
ENDBRANCH   1   2
BRANCH   1  13
HETATM   13  N   UNL     1     -40.876 -52.644  12.785  1.00  0.00    -0.315 N 
HETATM   14  C   UNL     1     -41.713 -51.731  12.173  1.00  0.00     0.095 A 
HETATM   15  C   UNL     1     -41.291 -50.493  11.897  1.00  0.00     0.018 A 
HETATM   16  C   UNL     1     -39.933 -50.120  12.197  1.00  0.00     0.023 A 
HETATM   17  C   UNL     1     -39.074 -50.985  12.769  1.00  0.00     0.115 A 
HETATM   18  C   UNL     1     -39.554 -52.345  13.130  1.00  0.00     0.263 A 
HETATM   19  O   UNL     1     -38.826 -53.166  13.684  1.00  0.00    -0.267 OA
BRANCH  17  20
HETATM   20  C   UNL     1     -37.648 -50.651  13.010  1.00  0.00     0.422 C 
HETATM   21  F   UNL     1     -36.729 -51.452  12.421  1.00  0.00    -0.166 F 
HETATM   22  F   UNL     1     -37.375 -49.386  12.581  1.00  0.00    -0.166 F 
HETATM   23  F   UNL     1     -37.363 -50.658  14.341  1.00  0.00    -0.166 F 
ENDBRANCH  17  20
ENDBRANCH   1  13
TORSDOF 4
ENDMDL
MODEL 3
REMARK VINA RESULT:      -6.2      6.154      8.000
REMARK  4 active torsions:
REMARK  status: ('A' for Active; 'I' for Inactive)
REMARK    1  A    between atoms: C_5  and  N_8 
REMARK       I    between atoms: N_8  and  C_9 
REMARK    2  A    between atoms: C_9  and  C_11 
REMARK    3  A    between atoms: C_11  and  N_12 
REMARK    4  A    between atoms: C_16  and  C_19 
ROOT
HETATM    1  C   UNL     1     -45.214 -55.152  13.958  1.00  0.00     0.234 C 
ENDROOT
BRANCH   1   2
HETATM    2  C   UNL     1     -43.772 -55.111  14.468  1.00  0.00     0.236 C 
HETATM    3  N   UNL     1     -42.936 -54.276  13.754  1.00  0.00    -0.355 N 
HETATM    4  H   UNL     1     -43.327 -53.760  12.969  1.00  0.00     0.162 HD
HETATM    5  O   UNL     1     -43.391 -55.822  15.394  1.00  0.00    -0.272 OA
BRANCH   3   6
HETATM    6  C   UNL     1     -41.539 -54.069  14.119  1.00  0.00     0.084 C 
HETATM    7  C   UNL     1     -41.398 -52.895  15.098  1.00  0.00     0.025 C 
HETATM    8  C   UNL     1     -41.605 -51.538  14.423  1.00  0.00     0.006 C 
HETATM    9  C   UNL     1     -40.709 -51.334  13.196  1.00  0.00    -0.019 C 
HETATM   10  C   UNL     1     -39.245 -51.109  13.594  1.00  0.00     0.010 C 
HETATM   11  C   UNL     1     -40.856 -52.506  12.214  1.00  0.00     0.006 C 
HETATM   12  C   UNL     1     -40.664 -53.872  12.875  1.00  0.00     0.025 C 
ENDBRANCH   3   6
ENDBRANCH   1   2
BRANCH   1  13
HETATM   13  N   UNL     1     -45.826 -53.832  14.099  1.00  0.00    -0.315 N 
HETATM   14  C   UNL     1     -45.892 -52.997  12.999  1.00  0.00     0.095 A 
HETATM   15  C   UNL     1     -46.405 -51.768  13.103  1.00  0.00     0.018 A 
HETATM   16  C   UNL     1     -46.852 -51.288  14.385  1.00  0.00     0.023 A 
HETATM   17  C   UNL     1     -46.782 -52.056  15.489  1.00  0.00     0.115 A 
HETATM   18  C   UNL     1     -46.265 -53.445  15.370  1.00  0.00     0.263 A 
HETATM   19  O   UNL     1     -46.209 -54.203  16.335  1.00  0.00    -0.267 OA
BRANCH  17  20
HETATM   20  C   UNL     1     -47.158 -51.554  16.834  1.00  0.00     0.422 C 
HETATM   21  F   UNL     1     -47.279 -52.480  17.815  1.00  0.00    -0.166 F 
HETATM   22  F   UNL     1     -46.240 -50.649  17.279  1.00  0.00    -0.166 F 
HETATM   23  F   UNL     1     -48.343 -50.885  16.793  1.00  0.00    -0.166 F 
ENDBRANCH  17  20
ENDBRANCH   1  13
TORSDOF 4
ENDMDL
MODEL 4
REMARK VINA RESULT:      -6.0      5.093      7.802
REMARK  4 active torsions:
REMARK  status: ('A' for Active; 'I' for Inactive)
REMARK    1  A    between atoms: C_5  and  N_8 
REMARK       I    between atoms: N_8  and  C_9 
REMARK    2  A    between atoms: C_9  and  C_11 
REMARK    3  A    between atoms: C_11  and  N_12 
REMARK    4  A    between atoms: C_16  and  C_19 
ROOT
HETATM    1  C   UNL     1     -42.147 -52.366  12.175  1.00  0.00     0.234 C 
ENDROOT
BRANCH   1   2
HETATM    2  C   UNL     1     -40.772 -52.377  12.845  1.00  0.00     0.236 C 
HETATM    3  N   UNL     1     -40.376 -51.158  13.360  1.00  0.00    -0.355 N 
HETATM    4  H   UNL     1     -41.010 -50.367  13.265  1.00  0.00     0.162 HD
HETATM    5  O   UNL     1     -40.062 -53.379  12.854  1.00  0.00    -0.272 OA
BRANCH   3   6
HETATM    6  C   UNL     1     -39.118 -50.982  14.078  1.00  0.00     0.084 C 
HETATM    7  C   UNL     1     -39.302 -50.047  15.282  1.00  0.00     0.025 C 
HETATM    8  C   UNL     1     -39.473 -48.585  14.869  1.00  0.00     0.006 C 
HETATM    9  C   UNL     1     -38.350 -48.082  13.956  1.00  0.00    -0.019 C 
HETATM   10  C   UNL     1     -37.036 -47.894  14.724  1.00  0.00     0.010 C 
HETATM   11  C   UNL     1     -38.171 -49.015  12.749  1.00  0.00     0.006 C 
HETATM   12  C   UNL     1     -38.011 -50.485  13.143  1.00  0.00     0.025 C 
ENDBRANCH   3   6
ENDBRANCH   1   2
BRANCH   1  13
HETATM   13  N   UNL     1     -43.156 -52.862  13.108  1.00  0.00    -0.315 N 
HETATM   14  C   UNL     1     -43.107 -54.182  13.515  1.00  0.00     0.095 A 
HETATM   15  C   UNL     1     -44.039 -54.682  14.332  1.00  0.00     0.018 A 
HETATM   16  C   UNL     1     -45.134 -53.849  14.757  1.00  0.00     0.023 A 
HETATM   17  C   UNL     1     -45.238 -52.565  14.364  1.00  0.00     0.115 A 
HETATM   18  C   UNL     1     -44.174 -51.987  13.501  1.00  0.00     0.263 A 
HETATM   19  O   UNL     1     -44.197 -50.813  13.137  1.00  0.00    -0.267 OA
BRANCH  17  20
HETATM   20  C   UNL     1     -46.400 -51.713  14.720  1.00  0.00     0.422 C 
HETATM   21  F   UNL     1     -47.019 -51.074  13.700  1.00  0.00    -0.166 F 
HETATM   22  F   UNL     1     -47.361 -52.453  15.342  1.00  0.00    -0.166 F 
HETATM   23  F   UNL     1     -46.044 -50.749  15.613  1.00  0.00    -0.166 F 
ENDBRANCH  17  20
ENDBRANCH   1  13
TORSDOF 4
ENDMDL
MODEL 5
REMARK VINA RESULT:      -5.9      2.966      4.187
REMARK  4 active torsions:
REMARK  status: ('A' for Active; 'I' for Inactive)
REMARK    1  A    between atoms: C_5  and  N_8 
REMARK       I    between atoms: N_8  and  C_9 
REMARK    2  A    between atoms: C_9  and  C_11 
REMARK    3  A    between atoms: C_11  and  N_12 
REMARK    4  A    between atoms: C_16  and  C_19 
ROOT
HETATM    1  C   UNL     1     -38.994 -51.977  14.626  1.00  0.00     0.234 C 
ENDROOT
BRANCH   1   2
HETATM    2  C   UNL     1     -39.718 -53.217  14.098  1.00  0.00     0.236 C 
HETATM    3  N   UNL     1     -41.093 -53.174  14.225  1.00  0.00    -0.355 N 
HETATM    4  H   UNL     1     -41.512 -52.345  14.642  1.00  0.00     0.162 HD
HETATM    5  O   UNL     1     -39.107 -54.190  13.664  1.00  0.00    -0.272 OA
BRANCH   3   6
HETATM    6  C   UNL     1     -41.958 -54.242  13.735  1.00  0.00     0.084 C 
HETATM    7  C   UNL     1     -43.032 -53.685  12.790  1.00  0.00     0.025 C 
HETATM    8  C   UNL     1     -44.119 -52.904  13.530  1.00  0.00     0.006 C 
HETATM    9  C   UNL     1     -44.759 -53.702  14.672  1.00  0.00    -0.019 C 
HETATM   10  C   UNL     1     -45.673 -54.815  14.144  1.00  0.00     0.010 C 
HETATM   11  C   UNL     1     -43.685 -54.253  15.621  1.00  0.00     0.006 C 
HETATM   12  C   UNL     1     -42.581 -55.026  14.895  1.00  0.00     0.025 C 
ENDBRANCH   3   6
ENDBRANCH   1   2
BRANCH   1  13
HETATM   13  N   UNL     1     -38.738 -51.048  13.527  1.00  0.00    -0.315 N 
HETATM   14  C   UNL     1     -37.565 -51.165  12.804  1.00  0.00     0.095 A 
HETATM   15  C   UNL     1     -37.278 -50.305  11.822  1.00  0.00     0.018 A 
HETATM   16  C   UNL     1     -38.178 -49.216  11.542  1.00  0.00     0.023 A 
HETATM   17  C   UNL     1     -39.319 -49.048  12.238  1.00  0.00     0.115 A 
HETATM   18  C   UNL     1     -39.672 -50.033  13.295  1.00  0.00     0.263 A 
HETATM   19  O   UNL     1     -40.714 -49.950  13.940  1.00  0.00    -0.267 OA
BRANCH  17  20
HETATM   20  C   UNL     1     -40.219 -47.887  12.026  1.00  0.00     0.422 C 
HETATM   21  F   UNL     1     -41.494 -48.165  11.665  1.00  0.00    -0.166 F 
HETATM   22  F   UNL     1     -40.302 -47.134  13.159  1.00  0.00    -0.166 F 
HETATM   23  F   UNL     1     -39.725 -47.055  11.068  1.00  0.00    -0.166 F 
ENDBRANCH  17  20
ENDBRANCH   1  13
TORSDOF 4
ENDMDL
MODEL 6
REMARK VINA RESULT:      -5.8      4.039      7.411
REMARK  4 active torsions:
REMARK  status: ('A' for Active; 'I' for Inactive)
REMARK    1  A    between atoms: C_5  and  N_8 
REMARK       I    between atoms: N_8  and  C_9 
REMARK    2  A    between atoms: C_9  and  C_11 
REMARK    3  A    between atoms: C_11  and  N_12 
REMARK    4  A    between atoms: C_16  and  C_19 
ROOT
HETATM    1  C   UNL     1     -41.424 -51.629  14.318  1.00  0.00     0.234 C 
ENDROOT
BRANCH   1   2
HETATM    2  C   UNL     1     -40.676 -51.164  13.067  1.00  0.00     0.236 C 
HETATM    3  N   UNL     1     -41.056 -49.920  12.602  1.00  0.00    -0.355 N 
HETATM    4  H   UNL     1     -41.778 -49.416  13.112  1.00  0.00     0.162 HD
HETATM    5  O   UNL     1     -39.858 -51.881  12.496  1.00  0.00    -0.272 OA
BRANCH   3   6
HETATM    6  C   UNL     1     -40.422 -49.288  11.449  1.00  0.00     0.084 C 
HETATM    7  C   UNL     1     -39.209 -48.454  11.882  1.00  0.00     0.025 C 
HETATM    8  C   UNL     1     -39.608 -47.160  12.593  1.00  0.00     0.006 C 
HETATM    9  C   UNL     1     -40.594 -46.309  11.783  1.00  0.00    -0.019 C 
HETATM   10  C   UNL     1     -39.915 -45.644  10.580  1.00  0.00     0.010 C 
HETATM   11  C   UNL     1     -41.811 -47.143  11.357  1.00  0.00     0.006 C 
HETATM   12  C   UNL     1     -41.429 -48.449  10.655  1.00  0.00     0.025 C 
ENDBRANCH   3   6
ENDBRANCH   1   2
BRANCH   1  13
HETATM   13  N   UNL     1     -42.628 -52.361  13.931  1.00  0.00    -0.315 N 
HETATM   14  C   UNL     1     -42.552 -53.726  13.729  1.00  0.00     0.095 A 
HETATM   15  C   UNL     1     -43.623 -54.420  13.332  1.00  0.00     0.018 A 
HETATM   16  C   UNL     1     -44.860 -53.732  13.066  1.00  0.00     0.023 A 
HETATM   17  C   UNL     1     -44.973 -52.399  13.223  1.00  0.00     0.115 A 
HETATM   18  C   UNL     1     -43.801 -51.629  13.718  1.00  0.00     0.263 A 
HETATM   19  O   UNL     1     -43.854 -50.417  13.912  1.00  0.00    -0.267 OA
BRANCH  17  20
HETATM   20  C   UNL     1     -46.210 -51.657  12.873  1.00  0.00     0.422 C 
HETATM   21  F   UNL     1     -47.178 -52.357  12.235  1.00  0.00    -0.166 F 
HETATM   22  F   UNL     1     -46.792 -51.145  13.995  1.00  0.00    -0.166 F 
HETATM   23  F   UNL     1     -45.930 -50.585  12.082  1.00  0.00    -0.166 F 
ENDBRANCH  17  20
ENDBRANCH   1  13
TORSDOF 4
ENDMDL
MODEL 7
REMARK VINA RESULT:      -5.6      3.325      4.823
REMARK  4 active torsions:
REMARK  status: ('A' for Active; 'I' for Inactive)
REMARK    1  A    between atoms: C_5  and  N_8 
REMARK       I    between atoms: N_8  and  C_9 
REMARK    2  A    between atoms: C_9  and  C_11 
REMARK    3  A    between atoms: C_11  and  N_12 
REMARK    4  A    between atoms: C_16  and  C_19 
ROOT
HETATM    1  C   UNL     1     -40.868 -53.841  12.899  1.00  0.00     0.234 C 
ENDROOT
BRANCH   1   2
HETATM    2  C   UNL     1     -41.966 -54.183  13.907  1.00  0.00     0.236 C 
HETATM    3  N   UNL     1     -43.163 -53.527  13.693  1.00  0.00    -0.355 N 
HETATM    4  H   UNL     1     -43.228 -52.890  12.902  1.00  0.00     0.162 HD
HETATM    5  O   UNL     1     -41.762 -54.927  14.863  1.00  0.00    -0.272 OA
BRANCH   3   6
HETATM    6  C   UNL     1     -44.342 -53.760  14.520  1.00  0.00     0.084 C 
HETATM    7  C   UNL     1     -45.626 -53.636  13.689  1.00  0.00     0.025 C 
HETATM    8  C   UNL     1     -45.953 -52.187  13.323  1.00  0.00     0.006 C 
HETATM    9  C   UNL     1     -45.999 -51.256  14.540  1.00  0.00    -0.019 C 
HETATM   10  C   UNL     1     -47.247 -51.504  15.397  1.00  0.00     0.010 C 
HETATM   11  C   UNL     1     -44.712 -51.376  15.367  1.00  0.00     0.006 C 
HETATM   12  C   UNL     1     -44.363 -52.820  15.732  1.00  0.00     0.025 C 
ENDBRANCH   3   6
ENDBRANCH   1   2
BRANCH   1  13
HETATM   13  N   UNL     1     -40.128 -52.665  13.353  1.00  0.00    -0.315 N 
HETATM   14  C   UNL     1     -39.296 -52.774  14.452  1.00  0.00     0.095 A 
HETATM   15  C   UNL     1     -38.638 -51.710  14.921  1.00  0.00     0.018 A 
HETATM   16  C   UNL     1     -38.834 -50.423  14.305  1.00  0.00     0.023 A 
HETATM   17  C   UNL     1     -39.655 -50.264  13.249  1.00  0.00     0.115 A 
HETATM   18  C   UNL     1     -40.346 -51.455  12.687  1.00  0.00     0.263 A 
HETATM   19  O   UNL     1     -41.081 -51.377  11.705  1.00  0.00    -0.267 OA
BRANCH  17  20
HETATM   20  C   UNL     1     -39.937 -48.935  12.652  1.00  0.00     0.422 C 
HETATM   21  F   UNL     1     -39.723 -48.810  11.320  1.00  0.00    -0.166 F 
HETATM   22  F   UNL     1     -41.238 -48.585  12.860  1.00  0.00    -0.166 F 
HETATM   23  F   UNL     1     -39.195 -47.963  13.250  1.00  0.00    -0.166 F 
ENDBRANCH  17  20
ENDBRANCH   1  13
TORSDOF 4
ENDMDL
MODEL 8
REMARK VINA RESULT:      -5.6      2.525      3.486
REMARK  4 active torsions:
REMARK  status: ('A' for Active; 'I' for Inactive)
REMARK    1  A    between atoms: C_5  and  N_8 
REMARK       I    between atoms: N_8  and  C_9 
REMARK    2  A    between atoms: C_9  and  C_11 
REMARK    3  A    between atoms: C_11  and  N_12 
REMARK    4  A    between atoms: C_16  and  C_19 
ROOT
HETATM    1  C   UNL     1     -40.145 -50.694  14.239  1.00  0.00     0.234 C 
ENDROOT
BRANCH   1   2
HETATM    2  C   UNL     1     -40.512 -52.034  13.598  1.00  0.00     0.236 C 
HETATM    3  N   UNL     1     -41.732 -52.544  13.997  1.00  0.00    -0.355 N 
HETATM    4  H   UNL     1     -42.284 -52.006  14.662  1.00  0.00     0.162 HD
HETATM    5  O   UNL     1     -39.742 -52.627  12.847  1.00  0.00    -0.272 OA
BRANCH   3   6
HETATM    6  C   UNL     1     -42.275 -53.787  13.458  1.00  0.00     0.084 C 
HETATM    7  C   UNL     1     -43.472 -53.507  12.539  1.00  0.00     0.025 C 
HETATM    8  C   UNL     1     -44.724 -53.091  13.314  1.00  0.00     0.006 C 
HETATM    9  C   UNL     1     -45.104 -54.084  14.418  1.00  0.00    -0.019 C 
HETATM   10  C   UNL     1     -45.681 -55.382  13.840  1.00  0.00     0.010 C 
HETATM   11  C   UNL     1     -43.908 -54.358  15.341  1.00  0.00     0.006 C 
HETATM   12  C   UNL     1     -42.643 -54.763  14.581  1.00  0.00     0.025 C 
ENDBRANCH   3   6
ENDBRANCH   1   2
BRANCH   1  13
HETATM   13  N   UNL     1     -40.273 -49.623  13.253  1.00  0.00    -0.315 N 
HETATM   14  C   UNL     1     -39.141 -49.162  12.607  1.00  0.00     0.095 A 
HETATM   15  C   UNL     1     -39.214 -48.154  11.732  1.00  0.00     0.018 A 
HETATM   16  C   UNL     1     -40.479 -47.509  11.493  1.00  0.00     0.023 A 
HETATM   17  C   UNL     1     -41.603 -47.906  12.119  1.00  0.00     0.115 A 
HETATM   18  C   UNL     1     -41.539 -49.064  13.051  1.00  0.00     0.263 A 
HETATM   19  O   UNL     1     -42.537 -49.492  13.626  1.00  0.00    -0.267 OA
BRANCH  17  20
HETATM   20  C   UNL     1     -42.900 -47.203  11.953  1.00  0.00     0.422 C 
HETATM   21  F   UNL     1     -43.500 -46.763  13.084  1.00  0.00    -0.166 F 
HETATM   22  F   UNL     1     -42.751 -46.109  11.154  1.00  0.00    -0.166 F 
HETATM   23  F   UNL     1     -43.809 -47.998  11.324  1.00  0.00    -0.166 F 
ENDBRANCH  17  20
ENDBRANCH   1  13
TORSDOF 4
ENDMDL
MODEL 9
REMARK VINA RESULT:      -5.5      2.693      3.272
REMARK  4 active torsions:
REMARK  status: ('A' for Active; 'I' for Inactive)
REMARK    1  A    between atoms: C_5  and  N_8 
REMARK       I    between atoms: N_8  and  C_9 
REMARK    2  A    between atoms: C_9  and  C_11 
REMARK    3  A    between atoms: C_11  and  N_12 
REMARK    4  A    between atoms: C_16  and  C_19 
ROOT
HETATM    1  C   UNL     1     -39.331 -48.353  12.008  1.00  0.00     0.234 C 
ENDROOT
BRANCH   1   2
HETATM    2  C   UNL     1     -39.964 -48.973  13.255  1.00  0.00     0.236 C 
HETATM    3  N   UNL     1     -40.332 -50.297  13.111  1.00  0.00    -0.355 N 
HETATM    4  H   UNL     1     -40.156 -50.751  12.218  1.00  0.00     0.162 HD
HETATM    5  O   UNL     1     -40.183 -48.314  14.268  1.00  0.00    -0.272 OA
BRANCH   3   6
HETATM    6  C   UNL     1     -40.907 -51.072  14.205  1.00  0.00     0.084 C 
HETATM    7  C   UNL     1     -40.135 -52.383  14.411  1.00  0.00     0.025 C 
HETATM    8  C   UNL     1     -40.409 -53.407  13.309  1.00  0.00     0.006 C 
HETATM    9  C   UNL     1     -41.903 -53.681  13.102  1.00  0.00    -0.019 C 
HETATM   10  C   UNL     1     -42.493 -54.504  14.254  1.00  0.00     0.010 C 
HETATM   11  C   UNL     1     -42.673 -52.370  12.889  1.00  0.00     0.006 C 
HETATM   12  C   UNL     1     -42.401 -51.329  13.977  1.00  0.00     0.025 C 
ENDBRANCH   3   6
ENDBRANCH   1   2
BRANCH   1  13
HETATM   13  N   UNL     1     -40.224 -47.338  11.452  1.00  0.00    -0.315 N 
HETATM   14  C   UNL     1     -39.949 -46.002  11.678  1.00  0.00     0.095 A 
HETATM   15  C   UNL     1     -40.767 -45.048  11.222  1.00  0.00     0.018 A 
HETATM   16  C   UNL     1     -41.975 -45.417  10.529  1.00  0.00     0.023 A 
HETATM   17  C   UNL     1     -42.296 -46.706  10.310  1.00  0.00     0.115 A 
HETATM   18  C   UNL     1     -41.362 -47.770  10.765  1.00  0.00     0.263 A 
HETATM   19  O   UNL     1     -41.586 -48.962  10.564  1.00  0.00    -0.267 OA
BRANCH  17  20
HETATM   20  C   UNL     1     -43.575 -47.112   9.674  1.00  0.00     0.422 C 
HETATM   21  F   UNL     1     -44.365 -46.116   9.210  1.00  0.00    -0.166 F 
HETATM   22  F   UNL     1     -43.339 -47.933   8.611  1.00  0.00    -0.166 F 
HETATM   23  F   UNL     1     -44.340 -47.837  10.535  1.00  0.00    -0.166 F 
ENDBRANCH  17  20
ENDBRANCH   1  13
TORSDOF 4
ENDMDL
