MODEL 1
REMARK VINA RESULT:      -6.1      0.000      0.000
REMARK  6 active torsions:
REMARK  status: ('A' for Active; 'I' for Inactive)
REMARK    1  A    between atoms: C_2  and  C_3 
REMARK    2  A    between atoms: C_3  and  C_5 
REMARK    3  A    between atoms: C_3  and  N_18 
REMARK    4  A    between atoms: C_5  and  N_6 
REMARK       I    between atoms: N_6  and  C_7 
REMARK    5  A    between atoms: C_7  and  C_9 
REMARK    6  A    between atoms: C_9  and  N_11 
ROOT
HETATM    1  N   UNL     1     -43.315 -49.647  12.354  1.00  0.00    -0.357 N 
HETATM    2  C   UNL     1     -42.497 -48.798  11.643  1.00  0.00     0.242 C 
HETATM    3  O   UNL     1     -41.325 -49.062  11.389  1.00  0.00    -0.271 OA
HETATM    4  H   UNL     1     -44.226 -49.323  12.656  1.00  0.00     0.162 HD
ENDROOT
BRANCH   1   5
HETATM    5  C   UNL     1     -42.839 -50.904  12.898  1.00  0.00     0.164 C 
BRANCH   5   6
HETATM    6  C   UNL     1     -43.901 -51.897  13.473  1.00  0.00     0.171 C 
HETATM    7  C   UNL     1     -44.059 -53.134  12.552  1.00  0.00     0.051 C 
BRANCH   6   8
HETATM    8  C   UNL     1     -45.313 -51.204  13.560  1.00  0.00     0.038 C 
HETATM    9  C   UNL     1     -46.442 -51.745  12.682  1.00  0.00     0.007 C 
ENDBRANCH   6   8
BRANCH   6  10
HETATM   10  N   UNL     1     -43.552 -52.379  14.859  1.00  0.00     0.103 N 
HETATM   11  C   UNL     1     -42.608 -53.509  14.995  1.00  0.00     0.299 C 
HETATM   12  C   UNL     1     -43.252 -54.906  14.971  1.00  0.00     0.198 C 
HETATM   13  O   UNL     1     -44.281 -55.036  15.953  1.00  0.00    -0.388 OA
HETATM   14  C   UNL     1     -45.274 -54.013  15.815  1.00  0.00     0.198 C 
HETATM   15  C   UNL     1     -44.653 -52.605  15.827  1.00  0.00     0.299 C 
ENDBRANCH   6  10
ENDBRANCH   5   6
ENDBRANCH   1   5
BRANCH   2  16
HETATM   16  C   UNL     1     -43.154 -47.499  11.209  1.00  0.00     0.196 C 
HETATM   17  C   UNL     1     -42.180 -46.342  11.408  1.00  0.00     0.044 C 
BRANCH  16  18
HETATM   18  N   UNL     1     -43.622 -47.607   9.839  1.00  0.00    -0.273 N 
HETATM   19  C   UNL     1     -44.890 -47.470   9.358  1.00  0.00     0.202 A 
HETATM   20  N   UNL     1     -44.892 -47.660   8.060  1.00  0.00    -0.346 N 
HETATM   21  C   UNL     1     -43.575 -47.911   7.784  1.00  0.00     0.198 A 
ATOM     22  HN  UNL     1     -45.682 -47.628   7.415  1.00  0.00     0.167 HD
HETATM   23  N   UNL     1     -42.758 -47.893   8.843  1.00  0.00    -0.292 N 
ATOM     24  HN  UNL     1     -41.751 -48.052   8.886  1.00  0.00     0.188 HD
ENDBRANCH  16  18
ENDBRANCH   2  16
TORSDOF 6
ENDMDL
MODEL 2
REMARK VINA RESULT:      -6.1      0.906      1.730
REMARK  6 active torsions:
REMARK  status: ('A' for Active; 'I' for Inactive)
REMARK    1  A    between atoms: C_2  and  C_3 
REMARK    2  A    between atoms: C_3  and  C_5 
REMARK    3  A    between atoms: C_3  and  N_18 
REMARK    4  A    between atoms: C_5  and  N_6 
REMARK       I    between atoms: N_6  and  C_7 
REMARK    5  A    between atoms: C_7  and  C_9 
REMARK    6  A    between atoms: C_9  and  N_11 
ROOT
HETATM    1  N   UNL     1     -43.210 -49.566  12.279  1.00  0.00    -0.357 N 
HETATM    2  C   UNL     1     -42.427 -48.664  11.591  1.00  0.00     0.242 C 
HETATM    3  O   UNL     1     -41.232 -48.849  11.378  1.00  0.00    -0.271 OA
HETATM    4  H   UNL     1     -44.150 -49.303  12.548  1.00  0.00     0.162 HD
ENDROOT
BRANCH   1   5
HETATM    5  C   UNL     1     -42.669 -50.785  12.846  1.00  0.00     0.164 C 
BRANCH   5   6
HETATM    6  C   UNL     1     -43.666 -51.770  13.540  1.00  0.00     0.171 C 
HETATM    7  C   UNL     1     -45.135 -51.344  13.282  1.00  0.00     0.051 C 
BRANCH   6   8
HETATM    8  C   UNL     1     -43.451 -51.761  15.101  1.00  0.00     0.038 C 
HETATM    9  C   UNL     1     -44.627 -51.366  15.993  1.00  0.00     0.007 C 
ENDBRANCH   6   8
BRANCH   6  10
HETATM   10  N   UNL     1     -43.494 -53.193  13.071  1.00  0.00     0.103 N 
HETATM   11  C   UNL     1     -44.706 -54.010  12.845  1.00  0.00     0.299 C 
HETATM   12  C   UNL     1     -45.222 -54.771  14.078  1.00  0.00     0.198 C 
HETATM   13  O   UNL     1     -44.208 -55.590  14.663  1.00  0.00    -0.388 OA
HETATM   14  C   UNL     1     -43.037 -54.830  14.984  1.00  0.00     0.198 C 
HETATM   15  C   UNL     1     -42.506 -54.052  13.766  1.00  0.00     0.299 C 
ENDBRANCH   6  10
ENDBRANCH   5   6
ENDBRANCH   1   5
BRANCH   2  16
HETATM   16  C   UNL     1     -43.155 -47.415  11.128  1.00  0.00     0.196 C 
HETATM   17  C   UNL     1     -42.247 -46.202  11.299  1.00  0.00     0.044 C 
BRANCH  16  18
HETATM   18  N   UNL     1     -43.617 -47.580   9.762  1.00  0.00    -0.273 N 
HETATM   19  C   UNL     1     -44.886 -47.487   9.274  1.00  0.00     0.202 A 
HETATM   20  N   UNL     1     -44.881 -47.722   7.984  1.00  0.00    -0.346 N 
HETATM   21  C   UNL     1     -43.559 -47.956   7.719  1.00  0.00     0.198 A 
ATOM     22  HN  UNL     1     -45.670 -47.729   7.337  1.00  0.00     0.167 HD
HETATM   23  N   UNL     1     -42.745 -47.883   8.778  1.00  0.00    -0.292 N 
ATOM     24  HN  UNL     1     -41.735 -48.020   8.829  1.00  0.00     0.188 HD
ENDBRANCH  16  18
ENDBRANCH   2  16
TORSDOF 6
ENDMDL
MODEL 3
REMARK VINA RESULT:      -6.0      1.736      2.329
REMARK  6 active torsions:
REMARK  status: ('A' for Active; 'I' for Inactive)
REMARK    1  A    between atoms: C_2  and  C_3 
REMARK    2  A    between atoms: C_3  and  C_5 
REMARK    3  A    between atoms: C_3  and  N_18 
REMARK    4  A    between atoms: C_5  and  N_6 
REMARK       I    between atoms: N_6  and  C_7 
REMARK    5  A    between atoms: C_7  and  C_9 
REMARK    6  A    between atoms: C_9  and  N_11 
ROOT
HETATM    1  N   UNL     1     -42.912 -49.793  12.087  1.00  0.00    -0.357 N 
HETATM    2  C   UNL     1     -42.241 -48.750  11.487  1.00  0.00     0.242 C 
HETATM    3  O   UNL     1     -41.039 -48.788  11.239  1.00  0.00    -0.271 OA
HETATM    4  H   UNL     1     -43.867 -49.657  12.396  1.00  0.00     0.162 HD
ENDROOT
BRANCH   1   5
HETATM    5  C   UNL     1     -42.237 -51.002  12.515  1.00  0.00     0.164 C 
BRANCH   5   6
HETATM    6  C   UNL     1     -43.021 -51.981  13.449  1.00  0.00     0.171 C 
HETATM    7  C   UNL     1     -43.891 -52.961  12.620  1.00  0.00     0.051 C 
BRANCH   6   8
HETATM    8  C   UNL     1     -43.999 -51.181  14.390  1.00  0.00     0.038 C 
HETATM    9  C   UNL     1     -45.502 -51.286  14.132  1.00  0.00     0.007 C 
ENDBRANCH   6   8
BRANCH   6  10
HETATM   10  N   UNL     1     -42.108 -52.791  14.336  1.00  0.00     0.103 N 
HETATM   11  C   UNL     1     -40.897 -52.140  14.880  1.00  0.00     0.299 C 
HETATM   12  C   UNL     1     -39.649 -52.226  13.985  1.00  0.00     0.198 C 
HETATM   13  O   UNL     1     -39.337 -53.575  13.633  1.00  0.00    -0.388 OA
HETATM   14  C   UNL     1     -40.453 -54.231  13.019  1.00  0.00     0.198 C 
HETATM   15  C   UNL     1     -41.718 -54.151  13.893  1.00  0.00     0.299 C 
ENDBRANCH   6  10
ENDBRANCH   5   6
ENDBRANCH   1   5
BRANCH   2  16
HETATM   16  C   UNL     1     -43.103 -47.540  11.168  1.00  0.00     0.196 C 
HETATM   17  C   UNL     1     -42.324 -46.265  11.471  1.00  0.00     0.044 C 
BRANCH  16  18
HETATM   18  N   UNL     1     -43.564 -47.601   9.793  1.00  0.00    -0.273 N 
HETATM   19  C   UNL     1     -44.831 -47.455   9.312  1.00  0.00     0.202 A 
HETATM   20  N   UNL     1     -44.827 -47.598   8.009  1.00  0.00    -0.346 N 
HETATM   21  C   UNL     1     -43.507 -47.832   7.730  1.00  0.00     0.198 A 
ATOM     22  HN  UNL     1     -45.614 -47.547   7.362  1.00  0.00     0.167 HD
HETATM   23  N   UNL     1     -42.694 -47.847   8.792  1.00  0.00    -0.292 N 
ATOM     24  HN  UNL     1     -41.687 -48.002   8.834  1.00  0.00     0.188 HD
ENDBRANCH  16  18
ENDBRANCH   2  16
TORSDOF 6
ENDMDL
MODEL 4
REMARK VINA RESULT:      -5.9      2.460      3.339
REMARK  6 active torsions:
REMARK  status: ('A' for Active; 'I' for Inactive)
REMARK    1  A    between atoms: C_2  and  C_3 
REMARK    2  A    between atoms: C_3  and  C_5 
REMARK    3  A    between atoms: C_3  and  N_18 
REMARK    4  A    between atoms: C_5  and  N_6 
REMARK       I    between atoms: N_6  and  C_7 
REMARK    5  A    between atoms: C_7  and  C_9 
REMARK    6  A    between atoms: C_9  and  N_11 
ROOT
HETATM    1  N   UNL     1     -41.989 -50.140  11.730  1.00  0.00    -0.357 N 
HETATM    2  C   UNL     1     -41.805 -48.822  11.371  1.00  0.00     0.242 C 
HETATM    3  O   UNL     1     -40.705 -48.360  11.081  1.00  0.00    -0.271 OA
HETATM    4  H   UNL     1     -42.886 -50.435  12.093  1.00  0.00     0.162 HD
ENDROOT
BRANCH   1   5
HETATM    5  C   UNL     1     -40.885 -51.073  11.837  1.00  0.00     0.164 C 
BRANCH   5   6
HETATM    6  C   UNL     1     -40.266 -51.309  13.253  1.00  0.00     0.171 C 
HETATM    7  C   UNL     1     -41.219 -50.800  14.366  1.00  0.00     0.051 C 
BRANCH   6   8
HETATM    8  C   UNL     1     -38.915 -50.512  13.404  1.00  0.00     0.038 C 
HETATM    9  C   UNL     1     -37.881 -50.619  12.283  1.00  0.00     0.007 C 
ENDBRANCH   6   8
BRANCH   6  10
HETATM   10  N   UNL     1     -39.962 -52.763  13.518  1.00  0.00     0.103 N 
HETATM   11  C   UNL     1     -40.785 -53.788  12.841  1.00  0.00     0.299 C 
HETATM   12  C   UNL     1     -42.061 -54.204  13.593  1.00  0.00     0.198 C 
HETATM   13  O   UNL     1     -41.778 -54.635  14.925  1.00  0.00    -0.388 OA
HETATM   14  C   UNL     1     -41.054 -53.641  15.659  1.00  0.00     0.198 C 
HETATM   15  C   UNL     1     -39.776 -53.201  14.921  1.00  0.00     0.299 C 
ENDBRANCH   6  10
ENDBRANCH   5   6
ENDBRANCH   1   5
BRANCH   2  16
HETATM   16  C   UNL     1     -43.070 -47.981  11.376  1.00  0.00     0.196 C 
HETATM   17  C   UNL     1     -42.802 -46.662  12.093  1.00  0.00     0.044 C 
BRANCH  16  18
HETATM   18  N   UNL     1     -43.553 -47.793  10.020  1.00  0.00    -0.273 N 
HETATM   19  C   UNL     1     -44.789 -47.400   9.603  1.00  0.00     0.202 A 
HETATM   20  N   UNL     1     -44.823 -47.370   8.292  1.00  0.00    -0.346 N 
HETATM   21  C   UNL     1     -43.558 -47.758   7.943  1.00  0.00     0.198 A 
ATOM     22  HN  UNL     1     -45.602 -47.120   7.683  1.00  0.00     0.167 HD
HETATM   23  N   UNL     1     -42.743 -48.031   8.968  1.00  0.00    -0.292 N 
ATOM     24  HN  UNL     1     -41.770 -48.338   8.957  1.00  0.00     0.188 HD
ENDBRANCH  16  18
ENDBRANCH   2  16
TORSDOF 6
ENDMDL
MODEL 5
REMARK VINA RESULT:      -5.8      3.876      5.360
REMARK  6 active torsions:
REMARK  status: ('A' for Active; 'I' for Inactive)
REMARK    1  A    between atoms: C_2  and  C_3 
REMARK    2  A    between atoms: C_3  and  C_5 
REMARK    3  A    between atoms: C_3  and  N_18 
REMARK    4  A    between atoms: C_5  and  N_6 
REMARK       I    between atoms: N_6  and  C_7 
REMARK    5  A    between atoms: C_7  and  C_9 
REMARK    6  A    between atoms: C_9  and  N_11 
ROOT
HETATM    1  N   UNL     1     -42.956 -52.784  15.690  1.00  0.00    -0.357 N 
HETATM    2  C   UNL     1     -42.028 -53.744  15.347  1.00  0.00     0.242 C 
HETATM    3  O   UNL     1     -42.248 -54.947  15.453  1.00  0.00    -0.271 OA
HETATM    4  H   UNL     1     -42.676 -51.811  15.717  1.00  0.00     0.162 HD
ENDROOT
BRANCH   1   5
HETATM    5  C   UNL     1     -44.250 -53.123  16.247  1.00  0.00     0.164 C 
BRANCH   5   6
HETATM    6  C   UNL     1     -45.474 -52.243  15.833  1.00  0.00     0.171 C 
HETATM    7  C   UNL     1     -45.024 -50.803  15.470  1.00  0.00     0.051 C 
BRANCH   6   8
HETATM    8  C   UNL     1     -46.494 -52.120  17.027  1.00  0.00     0.038 C 
HETATM    9  C   UNL     1     -47.786 -51.335  16.800  1.00  0.00     0.007 C 
ENDBRANCH   6   8
BRANCH   6  10
HETATM   10  N   UNL     1     -46.227 -52.815  14.657  1.00  0.00     0.103 N 
HETATM   11  C   UNL     1     -46.414 -54.279  14.586  1.00  0.00     0.299 C 
HETATM   12  C   UNL     1     -45.283 -55.051  13.884  1.00  0.00     0.198 C 
HETATM   13  O   UNL     1     -45.030 -54.548  12.571  1.00  0.00    -0.388 OA
HETATM   14  C   UNL     1     -44.755 -53.143  12.589  1.00  0.00     0.198 C 
HETATM   15  C   UNL     1     -45.869 -52.349  13.296  1.00  0.00     0.299 C 
ENDBRANCH   6  10
ENDBRANCH   5   6
ENDBRANCH   1   5
BRANCH   2  16
HETATM   16  C   UNL     1     -40.705 -53.196  14.841  1.00  0.00     0.196 C 
HETATM   17  C   UNL     1     -39.636 -54.280  14.931  1.00  0.00     0.044 C 
BRANCH  16  18
HETATM   18  N   UNL     1     -40.860 -52.672  13.497  1.00  0.00    -0.273 N 
HETATM   19  C   UNL     1     -41.030 -53.357  12.330  1.00  0.00     0.202 A 
HETATM   20  N   UNL     1     -41.113 -52.511  11.331  1.00  0.00    -0.346 N 
HETATM   21  C   UNL     1     -40.990 -51.295  11.947  1.00  0.00     0.198 A 
ATOM     22  HN  UNL     1     -41.239 -52.711  10.339  1.00  0.00     0.167 HD
HETATM   23  N   UNL     1     -40.830 -51.342  13.274  1.00  0.00    -0.292 N 
ATOM     24  HN  UNL     1     -40.715 -50.578  13.940  1.00  0.00     0.188 HD
ENDBRANCH  16  18
ENDBRANCH   2  16
TORSDOF 6
ENDMDL
MODEL 6
REMARK VINA RESULT:      -5.8      1.842      2.898
REMARK  6 active torsions:
REMARK  status: ('A' for Active; 'I' for Inactive)
REMARK    1  A    between atoms: C_2  and  C_3 
REMARK    2  A    between atoms: C_3  and  C_5 
REMARK    3  A    between atoms: C_3  and  N_18 
REMARK    4  A    between atoms: C_5  and  N_6 
REMARK       I    between atoms: N_6  and  C_7 
REMARK    5  A    between atoms: C_7  and  C_9 
REMARK    6  A    between atoms: C_9  and  N_11 
ROOT
HETATM    1  N   UNL     1     -42.296 -50.957  12.124  1.00  0.00    -0.357 N 
HETATM    2  C   UNL     1     -41.101 -50.288  11.976  1.00  0.00     0.242 C 
HETATM    3  O   UNL     1     -40.029 -50.868  11.825  1.00  0.00    -0.271 OA
HETATM    4  H   UNL     1     -43.126 -50.440  12.384  1.00  0.00     0.162 HD
ENDROOT
BRANCH   1   5
HETATM    5  C   UNL     1     -42.373 -52.404  12.158  1.00  0.00     0.164 C 
BRANCH   5   6
HETATM    6  C   UNL     1     -43.148 -53.064  13.345  1.00  0.00     0.171 C 
HETATM    7  C   UNL     1     -43.397 -52.039  14.482  1.00  0.00     0.051 C 
BRANCH   6   8
HETATM    8  C   UNL     1     -42.306 -54.243  13.964  1.00  0.00     0.038 C 
HETATM    9  C   UNL     1     -40.830 -54.357  13.586  1.00  0.00     0.007 C 
ENDBRANCH   6   8
BRANCH   6  10
HETATM   10  N   UNL     1     -44.478 -53.636  12.922  1.00  0.00     0.103 N 
HETATM   11  C   UNL     1     -45.580 -52.700  12.613  1.00  0.00     0.299 C 
HETATM   12  C   UNL     1     -46.450 -52.294  13.815  1.00  0.00     0.198 C 
HETATM   13  O   UNL     1     -46.979 -53.432  14.499  1.00  0.00    -0.388 OA
HETATM   14  C   UNL     1     -45.943 -54.335  14.900  1.00  0.00     0.198 C 
HETATM   15  C   UNL     1     -45.052 -54.749  13.714  1.00  0.00     0.299 C 
ENDBRANCH   6  10
ENDBRANCH   5   6
ENDBRANCH   1   5
BRANCH   2  16
HETATM   16  C   UNL     1     -41.210 -48.774  12.029  1.00  0.00     0.196 C 
HETATM   17  C   UNL     1     -39.827 -48.156  11.853  1.00  0.00     0.044 C 
BRANCH  16  18
HETATM   18  N   UNL     1     -42.164 -48.305  11.041  1.00  0.00    -0.273 N 
HETATM   19  C   UNL     1     -43.453 -47.902  11.224  1.00  0.00     0.202 A 
HETATM   20  N   UNL     1     -43.979 -47.569  10.069  1.00  0.00    -0.346 N 
HETATM   21  C   UNL     1     -42.953 -47.786   9.190  1.00  0.00     0.198 A 
ATOM     22  HN  UNL     1     -44.922 -47.232   9.875  1.00  0.00     0.167 HD
HETATM   23  N   UNL     1     -41.820 -48.240   9.738  1.00  0.00    -0.292 N 
ATOM     24  HN  UNL     1     -40.934 -48.474   9.291  1.00  0.00     0.188 HD
ENDBRANCH  16  18
ENDBRANCH   2  16
TORSDOF 6
ENDMDL
MODEL 7
REMARK VINA RESULT:      -5.8      3.066      4.076
REMARK  6 active torsions:
REMARK  status: ('A' for Active; 'I' for Inactive)
REMARK    1  A    between atoms: C_2  and  C_3 
REMARK    2  A    between atoms: C_3  and  C_5 
REMARK    3  A    between atoms: C_3  and  N_18 
REMARK    4  A    between atoms: C_5  and  N_6 
REMARK       I    between atoms: N_6  and  C_7 
REMARK    5  A    between atoms: C_7  and  C_9 
REMARK    6  A    between atoms: C_9  and  N_11 
ROOT
HETATM    1  N   UNL     1     -42.660 -51.869  12.123  1.00  0.00    -0.357 N 
HETATM    2  C   UNL     1     -41.315 -51.630  11.941  1.00  0.00     0.242 C 
HETATM    3  O   UNL     1     -40.457 -52.489  12.126  1.00  0.00    -0.271 OA
HETATM    4  H   UNL     1     -43.310 -51.094  12.093  1.00  0.00     0.162 HD
ENDROOT
BRANCH   1   5
HETATM    5  C   UNL     1     -43.162 -53.145  12.593  1.00  0.00     0.164 C 
BRANCH   5   6
HETATM    6  C   UNL     1     -44.220 -53.131  13.745  1.00  0.00     0.171 C 
HETATM    7  C   UNL     1     -45.372 -54.127  13.451  1.00  0.00     0.051 C 
BRANCH   6   8
HETATM    8  C   UNL     1     -44.869 -51.702  13.879  1.00  0.00     0.038 C 
HETATM    9  C   UNL     1     -46.351 -51.544  13.539  1.00  0.00     0.007 C 
ENDBRANCH   6   8
BRANCH   6  10
HETATM   10  N   UNL     1     -43.621 -53.480  15.085  1.00  0.00     0.103 N 
HETATM   11  C   UNL     1     -42.996 -52.401  15.879  1.00  0.00     0.299 C 
HETATM   12  C   UNL     1     -41.506 -52.153  15.588  1.00  0.00     0.198 C 
HETATM   13  O   UNL     1     -40.730 -53.345  15.727  1.00  0.00    -0.388 OA
HETATM   14  C   UNL     1     -41.241 -54.404  14.909  1.00  0.00     0.198 C 
HETATM   15  C   UNL     1     -42.735 -54.665  15.175  1.00  0.00     0.299 C 
ENDBRANCH   6  10
ENDBRANCH   5   6
ENDBRANCH   1   5
BRANCH   2  16
HETATM   16  C   UNL     1     -40.975 -50.215  11.506  1.00  0.00     0.196 C 
HETATM   17  C   UNL     1     -41.939 -49.234  12.164  1.00  0.00     0.044 C 
BRANCH  16  18
HETATM   18  N   UNL     1     -39.586 -49.919  11.804  1.00  0.00    -0.273 N 
HETATM   19  C   UNL     1     -39.058 -49.337  12.917  1.00  0.00     0.202 A 
HETATM   20  N   UNL     1     -37.757 -49.232  12.786  1.00  0.00    -0.346 N 
HETATM   21  C   UNL     1     -37.528 -49.779  11.552  1.00  0.00     0.198 A 
ATOM     22  HN  UNL     1     -37.082 -48.841  13.442  1.00  0.00     0.167 HD
HETATM   23  N   UNL     1     -38.619 -50.211  10.909  1.00  0.00    -0.292 N 
ATOM     24  HN  UNL     1     -38.698 -50.645   9.990  1.00  0.00     0.188 HD
ENDBRANCH  16  18
ENDBRANCH   2  16
TORSDOF 6
ENDMDL
MODEL 8
REMARK VINA RESULT:      -5.7      2.363      3.333
REMARK  6 active torsions:
REMARK  status: ('A' for Active; 'I' for Inactive)
REMARK    1  A    between atoms: C_2  and  C_3 
REMARK    2  A    between atoms: C_3  and  C_5 
REMARK    3  A    between atoms: C_3  and  N_18 
REMARK    4  A    between atoms: C_5  and  N_6 
REMARK       I    between atoms: N_6  and  C_7 
REMARK    5  A    between atoms: C_7  and  C_9 
REMARK    6  A    between atoms: C_9  and  N_11 
ROOT
HETATM    1  N   UNL     1     -44.016 -50.432  12.934  1.00  0.00    -0.357 N 
HETATM    2  C   UNL     1     -43.111 -49.413  13.138  1.00  0.00     0.242 C 
HETATM    3  O   UNL     1     -42.725 -49.081  14.256  1.00  0.00    -0.271 OA
HETATM    4  H   UNL     1     -44.406 -50.572  12.010  1.00  0.00     0.162 HD
ENDROOT
BRANCH   1   5
HETATM    5  C   UNL     1     -44.618 -51.163  14.031  1.00  0.00     0.164 C 
BRANCH   5   6
HETATM    6  C   UNL     1     -45.881 -52.031  13.721  1.00  0.00     0.171 C 
HETATM    7  C   UNL     1     -46.559 -51.573  12.403  1.00  0.00     0.051 C 
BRANCH   6   8
HETATM    8  C   UNL     1     -46.951 -51.877  14.867  1.00  0.00     0.038 C 
HETATM    9  C   UNL     1     -46.561 -51.099  16.124  1.00  0.00     0.007 C 
ENDBRANCH   6   8
BRANCH   6  10
HETATM   10  N   UNL     1     -45.558 -53.500  13.603  1.00  0.00     0.103 N 
HETATM   11  C   UNL     1     -45.466 -54.302  14.841  1.00  0.00     0.299 C 
HETATM   12  C   UNL     1     -44.076 -54.333  15.500  1.00  0.00     0.198 C 
HETATM   13  O   UNL     1     -43.063 -54.762  14.588  1.00  0.00    -0.388 OA
HETATM   14  C   UNL     1     -43.049 -53.961  13.401  1.00  0.00     0.198 C 
HETATM   15  C   UNL     1     -44.433 -53.907  12.728  1.00  0.00     0.299 C 
ENDBRANCH   6  10
ENDBRANCH   5   6
ENDBRANCH   1   5
BRANCH   2  16
HETATM   16  C   UNL     1     -42.638 -48.721  11.871  1.00  0.00     0.196 C 
HETATM   17  C   UNL     1     -43.024 -47.246  11.921  1.00  0.00     0.044 C 
BRANCH  16  18
HETATM   18  N   UNL     1     -41.212 -48.920  11.693  1.00  0.00    -0.273 N 
HETATM   19  C   UNL     1     -40.569 -49.870  10.956  1.00  0.00     0.202 A 
HETATM   20  N   UNL     1     -39.272 -49.716  11.073  1.00  0.00    -0.346 N 
HETATM   21  C   UNL     1     -39.165 -48.636  11.906  1.00  0.00     0.198 A 
ATOM     22  HN  UNL     1     -38.526 -50.267  10.647  1.00  0.00     0.167 HD
HETATM   23  N   UNL     1     -40.327 -48.115  12.316  1.00  0.00    -0.292 N 
ATOM     24  HN  UNL     1     -40.498 -47.322  12.934  1.00  0.00     0.188 HD
ENDBRANCH  16  18
ENDBRANCH   2  16
TORSDOF 6
ENDMDL
MODEL 9
REMARK VINA RESULT:      -5.6      3.626      6.958
REMARK  6 active torsions:
REMARK  status: ('A' for Active; 'I' for Inactive)
REMARK    1  A    between atoms: C_2  and  C_3 
REMARK    2  A    between atoms: C_3  and  C_5 
REMARK    3  A    between atoms: C_3  and  N_18 
REMARK    4  A    between atoms: C_5  and  N_6 
REMARK       I    between atoms: N_6  and  C_7 
REMARK    5  A    between atoms: C_7  and  C_9 
REMARK    6  A    between atoms: C_9  and  N_11 
ROOT
HETATM    1  N   UNL     1     -43.856 -53.547  15.987  1.00  0.00    -0.357 N 
HETATM    2  C   UNL     1     -43.183 -54.728  15.759  1.00  0.00     0.242 C 
HETATM    3  O   UNL     1     -43.637 -55.626  15.055  1.00  0.00    -0.271 OA
HETATM    4  H   UNL     1     -43.504 -52.902  16.683  1.00  0.00     0.162 HD
ENDROOT
BRANCH   1   5
HETATM    5  C   UNL     1     -45.176 -53.293  15.447  1.00  0.00     0.164 C 
BRANCH   5   6
HETATM    6  C   UNL     1     -45.537 -51.818  15.071  1.00  0.00     0.171 C 
HETATM    7  C   UNL     1     -44.791 -50.814  15.988  1.00  0.00     0.051 C 
BRANCH   6   8
HETATM    8  C   UNL     1     -47.079 -51.562  15.266  1.00  0.00     0.038 C 
HETATM    9  C   UNL     1     -47.593 -51.259  16.673  1.00  0.00     0.007 C 
ENDBRANCH   6   8
BRANCH   6  10
HETATM   10  N   UNL     1     -45.205 -51.489  13.637  1.00  0.00     0.103 N 
HETATM   11  C   UNL     1     -45.300 -52.564  12.627  1.00  0.00     0.299 C 
HETATM   12  C   UNL     1     -44.024 -53.402  12.441  1.00  0.00     0.198 C 
HETATM   13  O   UNL     1     -42.888 -52.586  12.149  1.00  0.00    -0.388 OA
HETATM   14  C   UNL     1     -42.695 -51.576  13.145  1.00  0.00     0.198 C 
HETATM   15  C   UNL     1     -43.963 -50.728  13.357  1.00  0.00     0.299 C 
ENDBRANCH   6  10
ENDBRANCH   5   6
ENDBRANCH   1   5
BRANCH   2  16
HETATM   16  C   UNL     1     -41.840 -54.839  16.460  1.00  0.00     0.196 C 
HETATM   17  C   UNL     1     -41.804 -56.115  17.294  1.00  0.00     0.044 C 
BRANCH  16  18
HETATM   18  N   UNL     1     -40.762 -54.774  15.491  1.00  0.00    -0.273 N 
HETATM   19  C   UNL     1     -39.457 -55.138  15.642  1.00  0.00     0.202 A 
HETATM   20  N   UNL     1     -38.802 -54.904  14.530  1.00  0.00    -0.346 N 
HETATM   21  C   UNL     1     -39.767 -54.388  13.708  1.00  0.00     0.198 A 
ATOM     22  HN  UNL     1     -37.816 -55.066  14.328  1.00  0.00     0.167 HD
HETATM   23  N   UNL     1     -40.985 -54.286  14.253  1.00  0.00    -0.292 N 
ATOM     24  HN  UNL     1     -41.850 -53.934  13.843  1.00  0.00     0.188 HD
ENDBRANCH  16  18
ENDBRANCH   2  16
TORSDOF 6
ENDMDL
