MODEL 1
REMARK VINA RESULT:      -7.3      0.000      0.000
REMARK  5 active torsions:
REMARK  status: ('A' for Active; 'I' for Inactive)
REMARK    1  A    between atoms: C_2  and  N_3 
REMARK    2  A    between atoms: C_2  and  C_19 
REMARK       I    between atoms: N_3  and  C_4 
REMARK       I    between atoms: C_4  and  N_6 
REMARK    3  A    between atoms: N_6  and  C_7 
REMARK    4  A    between atoms: C_13  and  N_14 
REMARK       I    between atoms: C_19  and  N_21 
REMARK    5  A    between atoms: N_21  and  C_22 
ROOT
HETATM    1  N   UNL     1     -40.610 -50.064  11.136  1.00  0.00    -0.335 N 
HETATM    2  C   UNL     1     -41.633 -49.142  11.105  1.00  0.00     0.299 C 
HETATM    3  O   UNL     1     -42.373 -48.944  12.057  1.00  0.00    -0.254 OA
HETATM    4  N   UNL     1     -41.629 -48.465   9.900  1.00  0.00    -0.207 NA
HETATM    5  H   UNL     1     -40.460 -50.548  10.261  1.00  0.00     0.164 HD
HETATM    6  H   UNL     1     -40.677 -48.231   9.658  1.00  0.00     0.138 HD
ENDROOT
BRANCH   1   7
HETATM    7  C   UNL     1     -40.293 -50.813  12.353  1.00  0.00     0.173 C 
HETATM    8  C   UNL     1     -38.778 -50.965  12.484  1.00  0.00     0.042 C 
BRANCH   7   9
HETATM    9  C   UNL     1     -40.972 -52.198  12.376  1.00  0.00     0.240 C 
HETATM   10  O   UNL     1     -40.364 -53.243  12.140  1.00  0.00    -0.271 OA
HETATM   11  N   UNL     1     -42.299 -52.182  12.741  1.00  0.00    -0.355 N 
HETATM   12  H   UNL     1     -42.765 -51.275  12.835  1.00  0.00     0.162 HD
BRANCH  11  13
HETATM   13  C   UNL     1     -43.061 -53.398  12.887  1.00  0.00     0.084 C 
HETATM   14  C   UNL     1     -44.541 -53.238  12.534  1.00  0.00     0.025 C 
HETATM   15  C   UNL     1     -45.287 -54.232  13.430  1.00  0.00     0.002 C 
HETATM   16  C   UNL     1     -44.225 -54.921  14.281  1.00  0.00     0.002 C 
HETATM   17  C   UNL     1     -43.076 -53.927  14.315  1.00  0.00     0.025 C 
ENDBRANCH  11  13
ENDBRANCH   7   9
ENDBRANCH   1   7
BRANCH   4  18
HETATM   18  C   UNL     1     -42.561 -47.413   9.695  1.00  0.00     0.060 A 
HETATM   19  C   UNL     1     -43.691 -47.714   8.922  1.00  0.00     0.029 A 
HETATM   20  C   UNL     1     -44.625 -46.727   8.652  1.00  0.00     0.019 A 
HETATM   21  C   UNL     1     -44.402 -45.472   9.178  1.00  0.00     0.090 A 
HETATM   22  N   UNL     1     -43.332 -45.159   9.945  1.00  0.00    -0.351 N 
HETATM   23  C   UNL     1     -42.402 -46.111  10.227  1.00  0.00     0.125 A 
ATOM     24  HN  UNL     1     -43.223 -44.213  10.310  1.00  0.00     0.166 HD
BRANCH  23  25
HETATM   25  N   UNL     1     -41.354 -45.750  11.068  1.00  0.00    -0.366 N 
HETATM   26  C   UNL     1     -40.163 -45.137  10.475  1.00  0.00     0.124 C 
HETATM   27  C   UNL     1     -39.612 -44.195  11.541  1.00  0.00     0.021 C 
HETATM   28  C   UNL     1     -40.770 -43.963  12.501  1.00  0.00     0.021 C 
HETATM   29  C   UNL     1     -41.614 -45.222  12.398  1.00  0.00     0.124 C 
ENDBRANCH  23  25
ENDBRANCH   4  18
TORSDOF 5
ENDMDL
MODEL 2
REMARK VINA RESULT:      -7.2      1.821      8.010
REMARK  5 active torsions:
REMARK  status: ('A' for Active; 'I' for Inactive)
REMARK    1  A    between atoms: C_2  and  N_3 
REMARK    2  A    between atoms: C_2  and  C_19 
REMARK       I    between atoms: N_3  and  C_4 
REMARK       I    between atoms: C_4  and  N_6 
REMARK    3  A    between atoms: N_6  and  C_7 
REMARK    4  A    between atoms: C_13  and  N_14 
REMARK       I    between atoms: C_19  and  N_21 
REMARK    5  A    between atoms: N_21  and  C_22 
ROOT
HETATM    1  N   UNL     1     -42.446 -48.304  10.013  1.00  0.00    -0.335 N 
HETATM    2  C   UNL     1     -41.524 -48.554  11.006  1.00  0.00     0.299 C 
HETATM    3  O   UNL     1     -41.526 -47.962  12.075  1.00  0.00    -0.254 OA
HETATM    4  N   UNL     1     -40.686 -49.588  10.630  1.00  0.00    -0.207 NA
HETATM    5  H   UNL     1     -42.073 -48.366   9.075  1.00  0.00     0.164 HD
HETATM    6  H   UNL     1     -41.238 -50.318  10.202  1.00  0.00     0.138 HD
ENDROOT
BRANCH   1   7
HETATM    7  C   UNL     1     -43.546 -47.360  10.212  1.00  0.00     0.173 C 
HETATM    8  C   UNL     1     -44.690 -47.692   9.256  1.00  0.00     0.042 C 
BRANCH   7   9
HETATM    9  C   UNL     1     -43.098 -45.897  10.020  1.00  0.00     0.240 C 
HETATM   10  O   UNL     1     -43.107 -45.335   8.924  1.00  0.00    -0.271 OA
HETATM   11  N   UNL     1     -42.744 -45.246  11.181  1.00  0.00    -0.355 N 
HETATM   12  H   UNL     1     -42.672 -45.796  12.041  1.00  0.00     0.162 HD
BRANCH  11  13
HETATM   13  C   UNL     1     -42.375 -43.851  11.187  1.00  0.00     0.084 C 
HETATM   14  C   UNL     1     -40.866 -43.618  11.098  1.00  0.00     0.025 C 
HETATM   15  C   UNL     1     -40.603 -42.323  11.872  1.00  0.00     0.002 C 
HETATM   16  C   UNL     1     -41.958 -41.857  12.397  1.00  0.00     0.002 C 
HETATM   17  C   UNL     1     -42.787 -43.128  12.462  1.00  0.00     0.025 C 
ENDBRANCH  11  13
ENDBRANCH   7   9
ENDBRANCH   1   7
BRANCH   4  18
HETATM   18  C   UNL     1     -39.709 -50.055  11.550  1.00  0.00     0.060 A 
HETATM   19  C   UNL     1     -38.482 -49.379  11.562  1.00  0.00     0.029 A 
HETATM   20  C   UNL     1     -37.470 -49.801  12.409  1.00  0.00     0.019 A 
HETATM   21  C   UNL     1     -37.728 -50.882  13.226  1.00  0.00     0.090 A 
HETATM   22  N   UNL     1     -38.909 -51.539  13.251  1.00  0.00    -0.351 N 
HETATM   23  C   UNL     1     -39.920 -51.143  12.432  1.00  0.00     0.125 A 
ATOM     24  HN  UNL     1     -39.042 -52.330  13.882  1.00  0.00     0.166 HD
BRANCH  23  25
HETATM   25  N   UNL     1     -41.133 -51.816  12.541  1.00  0.00    -0.366 N 
HETATM   26  C   UNL     1     -41.130 -53.277  12.436  1.00  0.00     0.124 C 
HETATM   27  C   UNL     1     -42.282 -53.754  13.315  1.00  0.00     0.021 C 
HETATM   28  C   UNL     1     -42.582 -52.585  14.243  1.00  0.00     0.021 C 
HETATM   29  C   UNL     1     -42.162 -51.353  13.458  1.00  0.00     0.124 C 
ENDBRANCH  23  25
ENDBRANCH   4  18
TORSDOF 5
ENDMDL
MODEL 3
REMARK VINA RESULT:      -7.0      1.731      3.447
REMARK  5 active torsions:
REMARK  status: ('A' for Active; 'I' for Inactive)
REMARK    1  A    between atoms: C_2  and  N_3 
REMARK    2  A    between atoms: C_2  and  C_19 
REMARK       I    between atoms: N_3  and  C_4 
REMARK       I    between atoms: C_4  and  N_6 
REMARK    3  A    between atoms: N_6  and  C_7 
REMARK    4  A    between atoms: C_13  and  N_14 
REMARK       I    between atoms: C_19  and  N_21 
REMARK    5  A    between atoms: N_21  and  C_22 
ROOT
HETATM    1  N   UNL     1     -39.098 -48.652  11.248  1.00  0.00    -0.335 N 
HETATM    2  C   UNL     1     -39.881 -47.596  11.657  1.00  0.00     0.299 C 
HETATM    3  O   UNL     1     -40.221 -47.437  12.821  1.00  0.00    -0.254 OA
HETATM    4  N   UNL     1     -40.142 -46.753  10.593  1.00  0.00    -0.207 NA
HETATM    5  H   UNL     1     -39.334 -49.015  10.334  1.00  0.00     0.164 HD
HETATM    6  H   UNL     1     -39.293 -46.627  10.059  1.00  0.00     0.138 HD
ENDROOT
BRANCH   1   7
HETATM    7  C   UNL     1     -38.550 -49.614  12.205  1.00  0.00     0.173 C 
HETATM    8  C   UNL     1     -37.364 -50.345  11.580  1.00  0.00     0.042 C 
BRANCH   7   9
HETATM    9  C   UNL     1     -39.612 -50.628  12.681  1.00  0.00     0.240 C 
HETATM   10  O   UNL     1     -39.987 -50.701  13.851  1.00  0.00    -0.271 OA
HETATM   11  N   UNL     1     -40.153 -51.405  11.681  1.00  0.00    -0.355 N 
HETATM   12  H   UNL     1     -39.732 -51.357  10.749  1.00  0.00     0.162 HD
BRANCH  11  13
HETATM   13  C   UNL     1     -41.212 -52.349  11.943  1.00  0.00     0.084 C 
HETATM   14  C   UNL     1     -42.415 -51.734  12.660  1.00  0.00     0.025 C 
HETATM   15  C   UNL     1     -43.001 -52.858  13.519  1.00  0.00     0.002 C 
HETATM   16  C   UNL     1     -42.116 -54.079  13.287  1.00  0.00     0.002 C 
HETATM   17  C   UNL     1     -40.783 -53.493  12.853  1.00  0.00     0.025 C 
ENDBRANCH  11  13
ENDBRANCH   7   9
ENDBRANCH   1   7
BRANCH   4  18
HETATM   18  C   UNL     1     -40.873 -45.556  10.821  1.00  0.00     0.060 A 
HETATM   19  C   UNL     1     -40.163 -44.480  11.371  1.00  0.00     0.029 A 
HETATM   20  C   UNL     1     -40.819 -43.293  11.652  1.00  0.00     0.019 A 
HETATM   21  C   UNL     1     -42.165 -43.220  11.360  1.00  0.00     0.090 A 
HETATM   22  N   UNL     1     -42.870 -44.234  10.810  1.00  0.00    -0.351 N 
HETATM   23  C   UNL     1     -42.249 -45.410  10.521  1.00  0.00     0.125 A 
ATOM     24  HN  UNL     1     -43.864 -44.119  10.612  1.00  0.00     0.166 HD
BRANCH  23  25
HETATM   25  N   UNL     1     -43.007 -46.398   9.902  1.00  0.00    -0.366 N 
HETATM   26  C   UNL     1     -43.690 -47.383  10.745  1.00  0.00     0.124 C 
HETATM   27  C   UNL     1     -44.952 -47.771   9.982  1.00  0.00     0.021 C 
HETATM   28  C   UNL     1     -45.167 -46.650   8.975  1.00  0.00     0.021 C 
HETATM   29  C   UNL     1     -43.775 -46.106   8.702  1.00  0.00     0.124 C 
ENDBRANCH  23  25
ENDBRANCH   4  18
TORSDOF 5
ENDMDL
MODEL 4
REMARK VINA RESULT:      -6.9      2.225      7.536
REMARK  5 active torsions:
REMARK  status: ('A' for Active; 'I' for Inactive)
REMARK    1  A    between atoms: C_2  and  N_3 
REMARK    2  A    between atoms: C_2  and  C_19 
REMARK       I    between atoms: N_3  and  C_4 
REMARK       I    between atoms: C_4  and  N_6 
REMARK    3  A    between atoms: N_6  and  C_7 
REMARK    4  A    between atoms: C_13  and  N_14 
REMARK       I    between atoms: C_19  and  N_21 
REMARK    5  A    between atoms: N_21  and  C_22 
ROOT
HETATM    1  N   UNL     1     -40.932 -51.057  11.124  1.00  0.00    -0.335 N 
HETATM    2  C   UNL     1     -41.238 -51.537  12.378  1.00  0.00     0.299 C 
HETATM    3  O   UNL     1     -41.043 -50.893  13.399  1.00  0.00    -0.254 OA
HETATM    4  N   UNL     1     -41.839 -52.778  12.281  1.00  0.00    -0.207 NA
HETATM    5  H   UNL     1     -40.589 -51.759  10.483  1.00  0.00     0.164 HD
HETATM    6  H   UNL     1     -42.511 -52.759  11.526  1.00  0.00     0.138 HD
ENDROOT
BRANCH   1   7
HETATM    7  C   UNL     1     -40.424 -49.699  10.929  1.00  0.00     0.173 C 
HETATM    8  C   UNL     1     -39.249 -49.447  11.872  1.00  0.00     0.042 C 
BRANCH   7   9
HETATM    9  C   UNL     1     -41.519 -48.633  11.145  1.00  0.00     0.240 C 
HETATM   10  O   UNL     1     -41.674 -48.044  12.215  1.00  0.00    -0.271 OA
HETATM   11  N   UNL     1     -42.270 -48.346  10.027  1.00  0.00    -0.355 N 
HETATM   12  H   UNL     1     -42.150 -48.935   9.198  1.00  0.00     0.162 HD
BRANCH  11  13
HETATM   13  C   UNL     1     -43.284 -47.319  10.037  1.00  0.00     0.084 C 
HETATM   14  C   UNL     1     -44.706 -47.862   9.883  1.00  0.00     0.025 C 
HETATM   15  C   UNL     1     -45.487 -46.768   9.149  1.00  0.00     0.002 C 
HETATM   16  C   UNL     1     -44.495 -45.638   8.888  1.00  0.00     0.002 C 
HETATM   17  C   UNL     1     -43.140 -46.326   8.892  1.00  0.00     0.025 C 
ENDBRANCH  11  13
ENDBRANCH   7   9
ENDBRANCH   1   7
BRANCH   4  18
HETATM   18  C   UNL     1     -42.305 -53.416  13.463  1.00  0.00     0.060 A 
HETATM   19  C   UNL     1     -41.410 -54.283  14.104  1.00  0.00     0.029 A 
HETATM   20  C   UNL     1     -41.808 -54.965  15.242  1.00  0.00     0.019 A 
HETATM   21  C   UNL     1     -43.088 -54.746  15.707  1.00  0.00     0.090 A 
HETATM   22  N   UNL     1     -43.965 -53.899  15.121  1.00  0.00    -0.351 N 
HETATM   23  C   UNL     1     -43.598 -53.214  14.004  1.00  0.00     0.125 A 
ATOM     24  HN  UNL     1     -44.897 -53.774  15.514  1.00  0.00     0.166 HD
BRANCH  23  25
HETATM   25  N   UNL     1     -44.516 -52.312  13.477  1.00  0.00    -0.366 N 
HETATM   26  C   UNL     1     -45.477 -52.798  12.483  1.00  0.00     0.124 C 
HETATM   27  C   UNL     1     -46.731 -51.951  12.676  1.00  0.00     0.021 C 
HETATM   28  C   UNL     1     -46.594 -51.354  14.070  1.00  0.00     0.021 C 
HETATM   29  C   UNL     1     -45.096 -51.268  14.306  1.00  0.00     0.124 C 
ENDBRANCH  23  25
ENDBRANCH   4  18
TORSDOF 5
ENDMDL
MODEL 5
REMARK VINA RESULT:      -6.8      2.292      7.194
REMARK  5 active torsions:
REMARK  status: ('A' for Active; 'I' for Inactive)
REMARK    1  A    between atoms: C_2  and  N_3 
REMARK    2  A    between atoms: C_2  and  C_19 
REMARK       I    between atoms: N_3  and  C_4 
REMARK       I    between atoms: C_4  and  N_6 
REMARK    3  A    between atoms: N_6  and  C_7 
REMARK    4  A    between atoms: C_13  and  N_14 
REMARK       I    between atoms: C_19  and  N_21 
REMARK    5  A    between atoms: N_21  and  C_22 
ROOT
HETATM    1  N   UNL     1     -41.920 -48.268   9.645  1.00  0.00    -0.335 N 
HETATM    2  C   UNL     1     -41.771 -48.893  10.863  1.00  0.00     0.299 C 
HETATM    3  O   UNL     1     -42.577 -48.768  11.773  1.00  0.00    -0.254 OA
HETATM    4  N   UNL     1     -40.650 -49.702  10.851  1.00  0.00    -0.207 NA
HETATM    5  H   UNL     1     -41.052 -47.959   9.227  1.00  0.00     0.164 HD
HETATM    6  H   UNL     1     -40.616 -50.202   9.973  1.00  0.00     0.138 HD
ENDROOT
BRANCH   1   7
HETATM    7  C   UNL     1     -43.107 -47.471   9.335  1.00  0.00     0.173 C 
HETATM    8  C   UNL     1     -43.487 -47.660   7.867  1.00  0.00     0.042 C 
BRANCH   7   9
HETATM    9  C   UNL     1     -42.898 -45.973   9.643  1.00  0.00     0.240 C 
HETATM   10  O   UNL     1     -43.565 -45.084   9.112  1.00  0.00    -0.271 OA
HETATM   11  N   UNL     1     -41.949 -45.712  10.606  1.00  0.00    -0.355 N 
HETATM   12  H   UNL     1     -41.371 -46.488  10.940  1.00  0.00     0.162 HD
BRANCH  11  13
HETATM   13  C   UNL     1     -41.686 -44.370  11.067  1.00  0.00     0.084 C 
HETATM   14  C   UNL     1     -40.199 -44.071  11.260  1.00  0.00     0.025 C 
HETATM   15  C   UNL     1     -40.128 -43.056  12.405  1.00  0.00     0.002 C 
HETATM   16  C   UNL     1     -41.568 -42.812  12.848  1.00  0.00     0.002 C 
HETATM   17  C   UNL     1     -42.304 -44.072  12.426  1.00  0.00     0.025 C 
ENDBRANCH  11  13
ENDBRANCH   7   9
ENDBRANCH   1   7
BRANCH   4  18
HETATM   18  C   UNL     1     -40.360 -50.499  11.991  1.00  0.00     0.060 A 
HETATM   19  C   UNL     1     -40.852 -51.811  11.983  1.00  0.00     0.029 A 
HETATM   20  C   UNL     1     -40.637 -52.635  13.076  1.00  0.00     0.019 A 
HETATM   21  C   UNL     1     -39.922 -52.118  14.137  1.00  0.00     0.090 A 
HETATM   22  N   UNL     1     -39.417 -50.864  14.162  1.00  0.00    -0.351 N 
HETATM   23  C   UNL     1     -39.612 -50.036  13.100  1.00  0.00     0.125 A 
ATOM     24  HN  UNL     1     -38.892 -50.540  14.974  1.00  0.00     0.166 HD
BRANCH  23  25
HETATM   25  N   UNL     1     -39.020 -48.778  13.153  1.00  0.00    -0.366 N 
HETATM   26  C   UNL     1     -39.806 -47.660  13.681  1.00  0.00     0.124 C 
HETATM   27  C   UNL     1     -38.798 -46.721  14.334  1.00  0.00     0.021 C 
HETATM   28  C   UNL     1     -37.556 -47.571  14.563  1.00  0.00     0.021 C 
HETATM   29  C   UNL     1     -37.610 -48.631  13.476  1.00  0.00     0.124 C 
ENDBRANCH  23  25
ENDBRANCH   4  18
TORSDOF 5
ENDMDL
MODEL 6
REMARK VINA RESULT:      -6.5      2.151      8.053
REMARK  5 active torsions:
REMARK  status: ('A' for Active; 'I' for Inactive)
REMARK    1  A    between atoms: C_2  and  N_3 
REMARK    2  A    between atoms: C_2  and  C_19 
REMARK       I    between atoms: N_3  and  C_4 
REMARK       I    between atoms: C_4  and  N_6 
REMARK    3  A    between atoms: N_6  and  C_7 
REMARK    4  A    between atoms: C_13  and  N_14 
REMARK       I    between atoms: C_19  and  N_21 
REMARK    5  A    between atoms: N_21  and  C_22 
ROOT
HETATM    1  N   UNL     1     -40.586 -50.113  12.753  1.00  0.00    -0.335 N 
HETATM    2  C   UNL     1     -41.232 -51.325  12.861  1.00  0.00     0.299 C 
HETATM    3  O   UNL     1     -41.422 -52.061  11.903  1.00  0.00    -0.254 OA
HETATM    4  N   UNL     1     -41.546 -51.583  14.182  1.00  0.00    -0.207 NA
HETATM    5  H   UNL     1     -40.954 -49.391  13.357  1.00  0.00     0.164 HD
HETATM    6  H   UNL     1     -40.757 -51.333  14.762  1.00  0.00     0.138 HD
ENDROOT
BRANCH   1   7
HETATM    7  C   UNL     1     -40.009 -49.665  11.485  1.00  0.00     0.173 C 
HETATM    8  C   UNL     1     -38.523 -49.365  11.672  1.00  0.00     0.042 C 
BRANCH   7   9
HETATM    9  C   UNL     1     -40.737 -48.426  10.922  1.00  0.00     0.240 C 
HETATM   10  O   UNL     1     -41.833 -48.493  10.363  1.00  0.00    -0.271 OA
HETATM   11  N   UNL     1     -40.094 -47.230  11.147  1.00  0.00    -0.355 N 
HETATM   12  H   UNL     1     -39.147 -47.254  11.535  1.00  0.00     0.162 HD
BRANCH  11  13
HETATM   13  C   UNL     1     -40.677 -45.970  10.754  1.00  0.00     0.084 C 
HETATM   14  C   UNL     1     -39.641 -44.885  10.455  1.00  0.00     0.025 C 
HETATM   15  C   UNL     1     -40.309 -43.561  10.836  1.00  0.00     0.002 C 
HETATM   16  C   UNL     1     -41.698 -43.918  11.357  1.00  0.00     0.002 C 
HETATM   17  C   UNL     1     -41.557 -45.354  11.834  1.00  0.00     0.025 C 
ENDBRANCH  11  13
ENDBRANCH   7   9
ENDBRANCH   1   7
BRANCH   4  18
HETATM   18  C   UNL     1     -42.150 -52.824  14.520  1.00  0.00     0.060 A 
HETATM   19  C   UNL     1     -41.310 -53.804  15.066  1.00  0.00     0.029 A 
HETATM   20  C   UNL     1     -41.824 -55.050  15.387  1.00  0.00     0.019 A 
HETATM   21  C   UNL     1     -43.167 -55.268  15.162  1.00  0.00     0.090 A 
HETATM   22  N   UNL     1     -44.005 -54.334  14.657  1.00  0.00    -0.351 N 
HETATM   23  C   UNL     1     -43.526 -53.101  14.336  1.00  0.00     0.125 A 
ATOM     24  HN  UNL     1     -44.991 -54.553  14.517  1.00  0.00     0.166 HD
BRANCH  23  25
HETATM   25  N   UNL     1     -44.442 -52.160  13.876  1.00  0.00    -0.366 N 
HETATM   26  C   UNL     1     -45.262 -52.498  12.710  1.00  0.00     0.124 C 
HETATM   27  C   UNL     1     -46.581 -51.758  12.907  1.00  0.00     0.021 C 
HETATM   28  C   UNL     1     -46.628 -51.422  14.391  1.00  0.00     0.021 C 
HETATM   29  C   UNL     1     -45.171 -51.313  14.807  1.00  0.00     0.124 C 
ENDBRANCH  23  25
ENDBRANCH   4  18
TORSDOF 5
ENDMDL
MODEL 7
REMARK VINA RESULT:      -6.5      1.893      3.500
REMARK  5 active torsions:
REMARK  status: ('A' for Active; 'I' for Inactive)
REMARK    1  A    between atoms: C_2  and  N_3 
REMARK    2  A    between atoms: C_2  and  C_19 
REMARK       I    between atoms: N_3  and  C_4 
REMARK       I    between atoms: C_4  and  N_6 
REMARK    3  A    between atoms: N_6  and  C_7 
REMARK    4  A    between atoms: C_13  and  N_14 
REMARK       I    between atoms: C_19  and  N_21 
REMARK    5  A    between atoms: N_21  and  C_22 
ROOT
HETATM    1  N   UNL     1     -40.786 -50.837  12.212  1.00  0.00    -0.335 N 
HETATM    2  C   UNL     1     -41.027 -49.483  12.280  1.00  0.00     0.299 C 
HETATM    3  O   UNL     1     -41.417 -48.931  13.298  1.00  0.00    -0.254 OA
HETATM    4  N   UNL     1     -40.698 -48.879  11.081  1.00  0.00    -0.207 NA
HETATM    5  H   UNL     1     -41.029 -51.259  11.326  1.00  0.00     0.164 HD
HETATM    6  H   UNL     1     -39.823 -49.260  10.751  1.00  0.00     0.138 HD
ENDROOT
BRANCH   1   7
HETATM    7  C   UNL     1     -40.907 -51.695  13.392  1.00  0.00     0.173 C 
HETATM    8  C   UNL     1     -39.860 -52.806  13.331  1.00  0.00     0.042 C 
BRANCH   7   9
HETATM    9  C   UNL     1     -42.320 -52.300  13.528  1.00  0.00     0.240 C 
HETATM   10  O   UNL     1     -42.572 -53.473  13.252  1.00  0.00    -0.271 OA
HETATM   11  N   UNL     1     -43.266 -51.441  14.042  1.00  0.00    -0.355 N 
HETATM   12  H   UNL     1     -43.011 -50.457  14.164  1.00  0.00     0.162 HD
BRANCH  11  13
HETATM   13  C   UNL     1     -44.617 -51.871  14.305  1.00  0.00     0.084 C 
HETATM   14  C   UNL     1     -45.560 -51.685  13.115  1.00  0.00     0.025 C 
HETATM   15  C   UNL     1     -46.940 -51.413  13.722  1.00  0.00     0.002 C 
HETATM   16  C   UNL     1     -46.752 -51.434  15.236  1.00  0.00     0.002 C 
HETATM   17  C   UNL     1     -45.284 -51.093  15.432  1.00  0.00     0.025 C 
ENDBRANCH  11  13
ENDBRANCH   7   9
ENDBRANCH   1   7
BRANCH   4  18
HETATM   18  C   UNL     1     -40.800 -47.466  10.968  1.00  0.00     0.060 A 
HETATM   19  C   UNL     1     -39.712 -46.717  11.438  1.00  0.00     0.029 A 
HETATM   20  C   UNL     1     -39.757 -45.333  11.391  1.00  0.00     0.019 A 
HETATM   21  C   UNL     1     -40.887 -44.745  10.861  1.00  0.00     0.090 A 
HETATM   22  N   UNL     1     -41.940 -45.443  10.380  1.00  0.00    -0.351 N 
HETATM   23  C   UNL     1     -41.921 -46.804  10.412  1.00  0.00     0.125 A 
ATOM     24  HN  UNL     1     -42.747 -44.952   9.995  1.00  0.00     0.166 HD
BRANCH  23  25
HETATM   25  N   UNL     1     -43.004 -47.472   9.851  1.00  0.00    -0.366 N 
HETATM   26  C   UNL     1     -44.141 -47.804  10.713  1.00  0.00     0.124 C 
HETATM   27  C   UNL     1     -45.368 -47.768   9.808  1.00  0.00     0.021 C 
HETATM   28  C   UNL     1     -44.938 -46.960   8.591  1.00  0.00     0.021 C 
HETATM   29  C   UNL     1     -43.438 -47.180   8.493  1.00  0.00     0.124 C 
ENDBRANCH  23  25
ENDBRANCH   4  18
TORSDOF 5
ENDMDL
MODEL 8
REMARK VINA RESULT:      -6.2      2.714      7.054
REMARK  5 active torsions:
REMARK  status: ('A' for Active; 'I' for Inactive)
REMARK    1  A    between atoms: C_2  and  N_3 
REMARK    2  A    between atoms: C_2  and  C_19 
REMARK       I    between atoms: N_3  and  C_4 
REMARK       I    between atoms: C_4  and  N_6 
REMARK    3  A    between atoms: N_6  and  C_7 
REMARK    4  A    between atoms: C_13  and  N_14 
REMARK       I    between atoms: C_19  and  N_21 
REMARK    5  A    between atoms: N_21  and  C_22 
ROOT
HETATM    1  N   UNL     1     -42.905 -49.415  11.830  1.00  0.00    -0.335 N 
HETATM    2  C   UNL     1     -43.471 -49.874  13.000  1.00  0.00     0.299 C 
HETATM    3  O   UNL     1     -43.469 -49.223  14.034  1.00  0.00    -0.254 OA
HETATM    4  N   UNL     1     -44.072 -51.101  12.791  1.00  0.00    -0.207 NA
HETATM    5  H   UNL     1     -42.458 -50.133  11.276  1.00  0.00     0.164 HD
HETATM    6  H   UNL     1     -44.576 -51.075  11.916  1.00  0.00     0.138 HD
ENDROOT
BRANCH   1   7
HETATM    7  C   UNL     1     -42.333 -48.072  11.733  1.00  0.00     0.173 C 
HETATM    8  C   UNL     1     -42.428 -47.574  10.292  1.00  0.00     0.042 C 
BRANCH   7   9
HETATM    9  C   UNL     1     -40.869 -48.028  12.217  1.00  0.00     0.240 C 
HETATM   10  O   UNL     1     -40.356 -47.017  12.699  1.00  0.00    -0.271 OA
HETATM   11  N   UNL     1     -40.197 -49.226  12.126  1.00  0.00    -0.355 N 
HETATM   12  H   UNL     1     -40.651 -50.000  11.634  1.00  0.00     0.162 HD
BRANCH  11  13
HETATM   13  C   UNL     1     -38.845 -49.376  12.608  1.00  0.00     0.084 C 
HETATM   14  C   UNL     1     -38.073 -50.504  11.921  1.00  0.00     0.025 C 
HETATM   15  C   UNL     1     -37.096 -51.035  12.973  1.00  0.00     0.002 C 
HETATM   16  C   UNL     1     -37.341 -50.214  14.236  1.00  0.00     0.002 C 
HETATM   17  C   UNL     1     -38.772 -49.726  14.088  1.00  0.00     0.025 C 
ENDBRANCH  11  13
ENDBRANCH   7   9
ENDBRANCH   1   7
BRANCH   4  18
HETATM   18  C   UNL     1     -44.783 -51.713  13.858  1.00  0.00     0.060 A 
HETATM   19  C   UNL     1     -46.106 -51.295  14.053  1.00  0.00     0.029 A 
HETATM   20  C   UNL     1     -46.850 -51.824  15.096  1.00  0.00     0.019 A 
HETATM   21  C   UNL     1     -46.244 -52.766  15.901  1.00  0.00     0.090 A 
HETATM   22  N   UNL     1     -44.977 -53.204  15.723  1.00  0.00    -0.351 N 
HETATM   23  C   UNL     1     -44.227 -52.702  14.704  1.00  0.00     0.125 A 
ATOM     24  HN  UNL     1     -44.585 -53.907  16.349  1.00  0.00     0.166 HD
BRANCH  23  25
HETATM   25  N   UNL     1     -42.952 -53.230  14.529  1.00  0.00    -0.366 N 
HETATM   26  C   UNL     1     -42.705 -54.088  13.367  1.00  0.00     0.124 C 
HETATM   27  C   UNL     1     -41.242 -53.867  12.997  1.00  0.00     0.021 C 
HETATM   28  C   UNL     1     -40.860 -52.552  13.662  1.00  0.00     0.021 C 
HETATM   29  C   UNL     1     -41.771 -52.455  14.874  1.00  0.00     0.124 C 
ENDBRANCH  23  25
ENDBRANCH   4  18
TORSDOF 5
ENDMDL
MODEL 9
REMARK VINA RESULT:      -6.2      1.986      7.428
REMARK  5 active torsions:
REMARK  status: ('A' for Active; 'I' for Inactive)
REMARK    1  A    between atoms: C_2  and  N_3 
REMARK    2  A    between atoms: C_2  and  C_19 
REMARK       I    between atoms: N_3  and  C_4 
REMARK       I    between atoms: C_4  and  N_6 
REMARK    3  A    between atoms: N_6  and  C_7 
REMARK    4  A    between atoms: C_13  and  N_14 
REMARK       I    between atoms: C_19  and  N_21 
REMARK    5  A    between atoms: N_21  and  C_22 
ROOT
HETATM    1  N   UNL     1     -42.334 -48.973  11.151  1.00  0.00    -0.335 N 
HETATM    2  C   UNL     1     -42.077 -49.923  12.114  1.00  0.00     0.299 C 
HETATM    3  O   UNL     1     -42.634 -49.930  13.202  1.00  0.00    -0.254 OA
HETATM    4  N   UNL     1     -41.180 -50.860  11.634  1.00  0.00    -0.207 NA
HETATM    5  H   UNL     1     -41.525 -48.699  10.611  1.00  0.00     0.164 HD
HETATM    6  H   UNL     1     -41.433 -51.100  10.686  1.00  0.00     0.138 HD
ENDROOT
BRANCH   1   7
HETATM    7  C   UNL     1     -43.363 -47.950  11.342  1.00  0.00     0.173 C 
HETATM    8  C   UNL     1     -43.832 -47.430   9.985  1.00  0.00     0.042 C 
BRANCH   7   9
HETATM    9  C   UNL     1     -42.864 -46.782  12.218  1.00  0.00     0.240 C 
HETATM   10  O   UNL     1     -43.259 -46.595  13.369  1.00  0.00    -0.271 OA
HETATM   11  N   UNL     1     -41.893 -45.999  11.633  1.00  0.00    -0.355 N 
HETATM   12  H   UNL     1     -41.677 -46.154  10.645  1.00  0.00     0.162 HD
BRANCH  11  13
HETATM   13  C   UNL     1     -41.264 -44.913  12.345  1.00  0.00     0.084 C 
HETATM   14  C   UNL     1     -41.475 -43.548  11.687  1.00  0.00     0.025 C 
HETATM   15  C   UNL     1     -40.220 -42.734  12.016  1.00  0.00     0.002 C 
HETATM   16  C   UNL     1     -39.319 -43.652  12.837  1.00  0.00     0.002 C 
HETATM   17  C   UNL     1     -39.750 -45.052  12.433  1.00  0.00     0.025 C 
ENDBRANCH  11  13
ENDBRANCH   7   9
ENDBRANCH   1   7
BRANCH   4  18
HETATM   18  C   UNL     1     -40.839 -51.973  12.449  1.00  0.00     0.060 A 
HETATM   19  C   UNL     1     -41.681 -53.091  12.370  1.00  0.00     0.029 A 
HETATM   20  C   UNL     1     -41.429 -54.200  13.162  1.00  0.00     0.019 A 
HETATM   21  C   UNL     1     -40.333 -54.155  13.998  1.00  0.00     0.090 A 
HETATM   22  N   UNL     1     -39.493 -53.099  14.079  1.00  0.00    -0.351 N 
HETATM   23  C   UNL     1     -39.715 -51.999  13.309  1.00  0.00     0.125 A 
ATOM     24  HN  UNL     1     -38.695 -53.126  14.713  1.00  0.00     0.166 HD
BRANCH  23  25
HETATM   25  N   UNL     1     -38.787 -50.966  13.388  1.00  0.00    -0.366 N 
HETATM   26  C   UNL     1     -37.998 -50.646  12.195  1.00  0.00     0.124 C 
HETATM   27  C   UNL     1     -37.718 -49.149  12.278  1.00  0.00     0.021 C 
HETATM   28  C   UNL     1     -38.751 -48.606  13.255  1.00  0.00     0.021 C 
HETATM   29  C   UNL     1     -39.063 -49.774  14.175  1.00  0.00     0.124 C 
ENDBRANCH  23  25
ENDBRANCH   4  18
TORSDOF 5
ENDMDL
