MODEL 1
REMARK VINA RESULT:      -6.7      0.000      0.000
REMARK  6 active torsions:
REMARK  status: ('A' for Active; 'I' for Inactive)
REMARK    1  A    between atoms: S_2  and  N_5 
REMARK    2  A    between atoms: N_5  and  C_6 
REMARK    3  A    between atoms: C_6  and  C_7 
REMARK       I    between atoms: N_12  and  C_13 
REMARK       I    between atoms: C_13  and  N_15 
REMARK    4  A    between atoms: N_15  and  C_16 
REMARK    5  A    between atoms: C_16  and  C_17 
REMARK    6  A    between atoms: C_17  and  C_18 
ROOT
HETATM    1  C   UNL     1     -41.827 -48.012  11.813  1.00  0.00     0.102 C 
HETATM    2  C   UNL     1     -41.810 -47.019  12.987  1.00  0.00     0.027 C 
HETATM    3  C   UNL     1     -40.477 -46.282  13.119  1.00  0.00     0.004 C 
HETATM    4  C   UNL     1     -39.312 -47.266  13.177  1.00  0.00     0.020 C 
HETATM    5  C   UNL     1     -39.349 -48.272  12.030  1.00  0.00     0.128 C 
HETATM    6  N   UNL     1     -40.660 -48.922  11.910  1.00  0.00    -0.328 N 
HETATM    7  C   UNL     1     -40.704 -50.303  12.012  1.00  0.00     0.318 C 
HETATM    8  O   UNL     1     -39.694 -50.984  12.174  1.00  0.00    -0.247 OA
HETATM    9  N   UNL     1     -41.946 -50.886  11.930  1.00  0.00    -0.343 N 
HETATM   10  H   UNL     1     -42.580 -50.445  11.281  1.00  0.00     0.164 HD
ENDROOT
BRANCH   1  11
HETATM   11  C   UNL     1     -41.884 -47.277  10.453  1.00  0.00     0.129 C 
BRANCH  11  12
HETATM   12  N   UNL     1     -42.454 -48.175   9.399  1.00  0.00    -0.218 NA
HETATM   13  H   UNL     1     -41.683 -48.543   8.831  1.00  0.00     0.139 HD
BRANCH  12  14
HETATM   14  S   UNL     1     -43.583 -47.372   8.417  1.00  0.00     0.205 S 
HETATM   15  C   UNL     1     -45.057 -47.478   9.410  1.00  0.00     0.179 C 
HETATM   16  O   UNL     1     -43.760 -48.198   7.247  1.00  0.00    -0.212 OA
HETATM   17  O   UNL     1     -43.172 -45.988   8.322  1.00  0.00    -0.212 OA
ENDBRANCH  12  14
ENDBRANCH  11  12
ENDBRANCH   1  11
BRANCH   9  18
HETATM   18  C   UNL     1     -42.016 -52.338  12.025  1.00  0.00     0.129 C 
BRANCH  18  19
HETATM   19  C   UNL     1     -42.624 -52.842  13.334  1.00  0.00     0.060 C 
BRANCH  19  20
HETATM   20  C   UNL     1     -44.071 -52.436  13.438  1.00  0.00    -0.041 A 
HETATM   21  C   UNL     1     -44.511 -51.555  14.427  1.00  0.00     0.010 A 
HETATM   22  C   UNL     1     -45.870 -51.266  14.542  1.00  0.00     0.018 A 
HETATM   23  C   UNL     1     -46.748 -51.871  13.659  1.00  0.00     0.087 A 
HETATM   24  N   UNL     1     -46.361 -52.720  12.683  1.00  0.00    -0.375 N 
HETATM   25  C   UNL     1     -45.038 -52.985  12.597  1.00  0.00     0.094 A 
ATOM     26  HN  UNL     1     -47.033 -53.142  12.042  1.00  0.00     0.164 HD
ENDBRANCH  19  20
ENDBRANCH  18  19
ENDBRANCH   9  18
TORSDOF 6
ENDMDL
MODEL 2
REMARK VINA RESULT:      -6.6      3.043      5.755
REMARK  6 active torsions:
REMARK  status: ('A' for Active; 'I' for Inactive)
REMARK    1  A    between atoms: S_2  and  N_5 
REMARK    2  A    between atoms: N_5  and  C_6 
REMARK    3  A    between atoms: C_6  and  C_7 
REMARK       I    between atoms: N_12  and  C_13 
REMARK       I    between atoms: C_13  and  N_15 
REMARK    4  A    between atoms: N_15  and  C_16 
REMARK    5  A    between atoms: C_16  and  C_17 
REMARK    6  A    between atoms: C_17  and  C_18 
ROOT
HETATM    1  C   UNL     1     -42.258 -51.538  12.297  1.00  0.00     0.102 C 
HETATM    2  C   UNL     1     -41.307 -52.739  12.164  1.00  0.00     0.027 C 
HETATM    3  C   UNL     1     -40.513 -53.008  13.442  1.00  0.00     0.004 C 
HETATM    4  C   UNL     1     -39.791 -51.749  13.912  1.00  0.00     0.020 C 
HETATM    5  C   UNL     1     -40.729 -50.549  14.011  1.00  0.00     0.128 C 
HETATM    6  N   UNL     1     -41.506 -50.355  12.781  1.00  0.00    -0.328 N 
HETATM    7  C   UNL     1     -41.380 -49.140  12.127  1.00  0.00     0.318 C 
HETATM    8  O   UNL     1     -40.669 -48.234  12.553  1.00  0.00    -0.247 OA
HETATM    9  N   UNL     1     -42.091 -48.994  10.960  1.00  0.00    -0.343 N 
HETATM   10  H   UNL     1     -42.999 -49.434  10.958  1.00  0.00     0.164 HD
ENDROOT
BRANCH   1  11
HETATM   11  C   UNL     1     -43.467 -51.872  13.202  1.00  0.00     0.129 C 
BRANCH  11  12
HETATM   12  N   UNL     1     -44.699 -51.185  12.703  1.00  0.00    -0.218 NA
HETATM   13  H   UNL     1     -44.812 -50.302  13.214  1.00  0.00     0.139 HD
BRANCH  12  14
HETATM   14  S   UNL     1     -46.085 -52.151  12.874  1.00  0.00     0.205 S 
HETATM   15  C   UNL     1     -47.044 -51.652  11.460  1.00  0.00     0.179 C 
HETATM   16  O   UNL     1     -46.755 -51.688  14.066  1.00  0.00    -0.212 OA
HETATM   17  O   UNL     1     -45.678 -53.529  12.711  1.00  0.00    -0.212 OA
ENDBRANCH  12  14
ENDBRANCH  11  12
ENDBRANCH   1  11
BRANCH   9  18
HETATM   18  C   UNL     1     -41.982 -47.722  10.260  1.00  0.00     0.129 C 
BRANCH  18  19
HETATM   19  C   UNL     1     -43.263 -46.889  10.288  1.00  0.00     0.060 C 
BRANCH  19  20
HETATM   20  C   UNL     1     -44.285 -47.453   9.336  1.00  0.00    -0.041 A 
HETATM   21  C   UNL     1     -45.610 -47.657   9.725  1.00  0.00     0.010 A 
HETATM   22  C   UNL     1     -46.506 -48.256   8.842  1.00  0.00     0.018 A 
HETATM   23  C   UNL     1     -46.046 -48.634   7.592  1.00  0.00     0.087 A 
HETATM   24  N   UNL     1     -44.776 -48.445   7.175  1.00  0.00    -0.375 N 
HETATM   25  C   UNL     1     -43.927 -47.864   8.053  1.00  0.00     0.094 A 
ATOM     26  HN  UNL     1     -44.471 -48.726   6.243  1.00  0.00     0.164 HD
ENDBRANCH  19  20
ENDBRANCH  18  19
ENDBRANCH   9  18
TORSDOF 6
ENDMDL
MODEL 3
REMARK VINA RESULT:      -6.6      1.300      1.548
REMARK  6 active torsions:
REMARK  status: ('A' for Active; 'I' for Inactive)
REMARK    1  A    between atoms: S_2  and  N_5 
REMARK    2  A    between atoms: N_5  and  C_6 
REMARK    3  A    between atoms: C_6  and  C_7 
REMARK       I    between atoms: N_12  and  C_13 
REMARK       I    between atoms: C_13  and  N_15 
REMARK    4  A    between atoms: N_15  and  C_16 
REMARK    5  A    between atoms: C_16  and  C_17 
REMARK    6  A    between atoms: C_17  and  C_18 
ROOT
HETATM    1  C   UNL     1     -41.754 -48.842  11.824  1.00  0.00     0.102 C 
HETATM    2  C   UNL     1     -41.127 -47.833  12.800  1.00  0.00     0.027 C 
HETATM    3  C   UNL     1     -39.668 -47.520  12.470  1.00  0.00     0.004 C 
HETATM    4  C   UNL     1     -38.846 -48.800  12.357  1.00  0.00     0.020 C 
HETATM    5  C   UNL     1     -39.487 -49.814  11.413  1.00  0.00     0.128 C 
HETATM    6  N   UNL     1     -40.900 -50.051  11.735  1.00  0.00    -0.328 N 
HETATM    7  C   UNL     1     -41.281 -51.348  12.038  1.00  0.00     0.318 C 
HETATM    8  O   UNL     1     -40.490 -52.288  12.021  1.00  0.00    -0.247 OA
HETATM    9  N   UNL     1     -42.601 -51.539  12.369  1.00  0.00    -0.343 N 
HETATM   10  H   UNL     1     -43.255 -50.968  11.855  1.00  0.00     0.164 HD
ENDROOT
BRANCH   1  11
HETATM   11  C   UNL     1     -42.008 -48.204  10.437  1.00  0.00     0.129 C 
BRANCH  11  12
HETATM   12  N   UNL     1     -43.463 -47.899  10.262  1.00  0.00    -0.218 NA
HETATM   13  H   UNL     1     -43.985 -48.783  10.254  1.00  0.00     0.139 HD
BRANCH  12  14
HETATM   14  S   UNL     1     -43.766 -47.020   8.840  1.00  0.00     0.205 S 
HETATM   15  C   UNL     1     -45.529 -46.796   8.929  1.00  0.00     0.179 C 
HETATM   16  O   UNL     1     -43.473 -47.912   7.744  1.00  0.00    -0.212 OA
HETATM   17  O   UNL     1     -43.115 -45.736   8.976  1.00  0.00    -0.212 OA
ENDBRANCH  12  14
ENDBRANCH  11  12
ENDBRANCH   1  11
BRANCH   9  18
HETATM   18  C   UNL     1     -43.027 -52.896  12.682  1.00  0.00     0.129 C 
BRANCH  18  19
HETATM   19  C   UNL     1     -44.503 -53.163  12.388  1.00  0.00     0.060 C 
BRANCH  19  20
HETATM   20  C   UNL     1     -45.350 -52.849  13.594  1.00  0.00    -0.041 A 
HETATM   21  C   UNL     1     -46.157 -51.711  13.641  1.00  0.00     0.010 A 
HETATM   22  C   UNL     1     -46.863 -51.411  14.805  1.00  0.00     0.018 A 
HETATM   23  C   UNL     1     -46.739 -52.265  15.888  1.00  0.00     0.087 A 
HETATM   24  N   UNL     1     -45.979 -53.380  15.877  1.00  0.00    -0.375 N 
HETATM   25  C   UNL     1     -45.302 -53.644  14.737  1.00  0.00     0.094 A 
ATOM     26  HN  UNL     1     -45.917 -53.994  16.690  1.00  0.00     0.164 HD
ENDBRANCH  19  20
ENDBRANCH  18  19
ENDBRANCH   9  18
TORSDOF 6
ENDMDL
MODEL 4
REMARK VINA RESULT:      -6.5      1.915      3.184
REMARK  6 active torsions:
REMARK  status: ('A' for Active; 'I' for Inactive)
REMARK    1  A    between atoms: S_2  and  N_5 
REMARK    2  A    between atoms: N_5  and  C_6 
REMARK    3  A    between atoms: C_6  and  C_7 
REMARK       I    between atoms: N_12  and  C_13 
REMARK       I    between atoms: C_13  and  N_15 
REMARK    4  A    between atoms: N_15  and  C_16 
REMARK    5  A    between atoms: C_16  and  C_17 
REMARK    6  A    between atoms: C_17  and  C_18 
ROOT
HETATM    1  C   UNL     1     -41.833 -48.100  11.821  1.00  0.00     0.102 C 
HETATM    2  C   UNL     1     -41.900 -47.135  13.016  1.00  0.00     0.027 C 
HETATM    3  C   UNL     1     -40.610 -46.337  13.206  1.00  0.00     0.004 C 
HETATM    4  C   UNL     1     -39.401 -47.265  13.281  1.00  0.00     0.020 C 
HETATM    5  C   UNL     1     -39.353 -48.245  12.112  1.00  0.00     0.128 C 
HETATM    6  N   UNL     1     -40.626 -48.955  11.936  1.00  0.00    -0.328 N 
HETATM    7  C   UNL     1     -40.605 -50.338  12.007  1.00  0.00     0.318 C 
HETATM    8  O   UNL     1     -39.568 -50.973  12.186  1.00  0.00    -0.247 OA
HETATM    9  N   UNL     1     -41.814 -50.978  11.873  1.00  0.00    -0.343 N 
HETATM   10  H   UNL     1     -42.448 -50.554  11.213  1.00  0.00     0.164 HD
ENDROOT
BRANCH   1  11
HETATM   11  C   UNL     1     -41.884 -47.338  10.476  1.00  0.00     0.129 C 
BRANCH  11  12
HETATM   12  N   UNL     1     -42.433 -48.219   9.398  1.00  0.00    -0.218 NA
HETATM   13  H   UNL     1     -41.653 -48.574   8.834  1.00  0.00     0.139 HD
BRANCH  12  14
HETATM   14  S   UNL     1     -43.553 -47.404   8.414  1.00  0.00     0.205 S 
HETATM   15  C   UNL     1     -45.018 -47.456   9.423  1.00  0.00     0.179 C 
HETATM   16  O   UNL     1     -43.763 -48.244   7.259  1.00  0.00    -0.212 OA
HETATM   17  O   UNL     1     -43.107 -46.033   8.291  1.00  0.00    -0.212 OA
ENDBRANCH  12  14
ENDBRANCH  11  12
ENDBRANCH   1  11
BRANCH   9  18
HETATM   18  C   UNL     1     -41.815 -52.434  11.934  1.00  0.00     0.129 C 
BRANCH  18  19
HETATM   19  C   UNL     1     -42.283 -52.994  13.277  1.00  0.00     0.060 C 
BRANCH  19  20
HETATM   20  C   UNL     1     -41.179 -53.773  13.942  1.00  0.00    -0.041 A 
HETATM   21  C   UNL     1     -41.181 -54.011  15.318  1.00  0.00     0.010 A 
HETATM   22  C   UNL     1     -40.101 -54.665  15.909  1.00  0.00     0.018 A 
HETATM   23  C   UNL     1     -39.050 -55.061  15.100  1.00  0.00     0.087 A 
HETATM   24  N   UNL     1     -39.015 -54.859  13.766  1.00  0.00    -0.375 N 
HETATM   25  C   UNL     1     -40.074 -54.219  13.220  1.00  0.00     0.094 A 
ATOM     26  HN  UNL     1     -38.228 -55.173  13.197  1.00  0.00     0.164 HD
ENDBRANCH  19  20
ENDBRANCH  18  19
ENDBRANCH   9  18
TORSDOF 6
ENDMDL
MODEL 5
REMARK VINA RESULT:      -6.3      1.972      2.429
REMARK  6 active torsions:
REMARK  status: ('A' for Active; 'I' for Inactive)
REMARK    1  A    between atoms: S_2  and  N_5 
REMARK    2  A    between atoms: N_5  and  C_6 
REMARK    3  A    between atoms: C_6  and  C_7 
REMARK       I    between atoms: N_12  and  C_13 
REMARK       I    between atoms: C_13  and  N_15 
REMARK    4  A    between atoms: N_15  and  C_16 
REMARK    5  A    between atoms: C_16  and  C_17 
REMARK    6  A    between atoms: C_17  and  C_18 
ROOT
HETATM    1  C   UNL     1     -40.122 -49.666  12.788  1.00  0.00     0.102 C 
HETATM    2  C   UNL     1     -39.523 -48.825  13.927  1.00  0.00     0.027 C 
HETATM    3  C   UNL     1     -37.996 -48.885  13.967  1.00  0.00     0.004 C 
HETATM    4  C   UNL     1     -37.507 -50.330  13.999  1.00  0.00     0.020 C 
HETATM    5  C   UNL     1     -38.128 -51.173  12.888  1.00  0.00     0.128 C 
HETATM    6  N   UNL     1     -39.590 -51.049  12.855  1.00  0.00    -0.328 N 
HETATM    7  C   UNL     1     -40.336 -52.207  13.003  1.00  0.00     0.318 C 
HETATM    8  O   UNL     1     -39.816 -53.313  13.135  1.00  0.00    -0.247 OA
HETATM    9  N   UNL     1     -41.703 -52.062  13.003  1.00  0.00    -0.343 N 
HETATM   10  H   UNL     1     -42.055 -51.357  12.373  1.00  0.00     0.164 HD
ENDROOT
BRANCH   1  11
HETATM   11  C   UNL     1     -39.872 -49.010  11.409  1.00  0.00     0.129 C 
BRANCH  11  12
HETATM   12  N   UNL     1     -41.054 -49.210  10.514  1.00  0.00    -0.218 NA
HETATM   13  H   UNL     1     -40.720 -49.509   9.591  1.00  0.00     0.139 HD
BRANCH  12  14
HETATM   14  S   UNL     1     -41.998 -47.805  10.377  1.00  0.00     0.205 S 
HETATM   15  C   UNL     1     -43.150 -48.018  11.717  1.00  0.00     0.179 C 
HETATM   16  O   UNL     1     -42.719 -47.923   9.132  1.00  0.00    -0.212 OA
HETATM   17  O   UNL     1     -41.141 -46.675  10.660  1.00  0.00    -0.212 OA
ENDBRANCH  12  14
ENDBRANCH  11  12
ENDBRANCH   1  11
BRANCH   9  18
HETATM   18  C   UNL     1     -42.508 -53.267  13.148  1.00  0.00     0.129 C 
BRANCH  18  19
HETATM   19  C   UNL     1     -43.773 -53.272  12.290  1.00  0.00     0.060 C 
BRANCH  19  20
HETATM   20  C   UNL     1     -44.994 -53.047  13.143  1.00  0.00    -0.041 A 
HETATM   21  C   UNL     1     -45.431 -51.760  13.465  1.00  0.00     0.010 A 
HETATM   22  C   UNL     1     -46.517 -51.593  14.323  1.00  0.00     0.018 A 
HETATM   23  C   UNL     1     -47.133 -52.723  14.833  1.00  0.00     0.087 A 
HETATM   24  N   UNL     1     -46.746 -53.983  14.538  1.00  0.00    -0.375 N 
HETATM   25  C   UNL     1     -45.689 -54.116  13.706  1.00  0.00     0.094 A 
ATOM     26  HN  UNL     1     -47.229 -54.795  14.923  1.00  0.00     0.164 HD
ENDBRANCH  19  20
ENDBRANCH  18  19
ENDBRANCH   9  18
TORSDOF 6
ENDMDL
MODEL 6
REMARK VINA RESULT:      -6.3      3.185      4.158
REMARK  6 active torsions:
REMARK  status: ('A' for Active; 'I' for Inactive)
REMARK    1  A    between atoms: S_2  and  N_5 
REMARK    2  A    between atoms: N_5  and  C_6 
REMARK    3  A    between atoms: C_6  and  C_7 
REMARK       I    between atoms: N_12  and  C_13 
REMARK       I    between atoms: C_13  and  N_15 
REMARK    4  A    between atoms: N_15  and  C_16 
REMARK    5  A    between atoms: C_16  and  C_17 
REMARK    6  A    between atoms: C_17  and  C_18 
ROOT
HETATM    1  C   UNL     1     -40.960 -49.216  11.392  1.00  0.00     0.102 C 
HETATM    2  C   UNL     1     -41.663 -48.121  10.573  1.00  0.00     0.027 C 
HETATM    3  C   UNL     1     -41.777 -46.798  11.328  1.00  0.00     0.004 C 
HETATM    4  C   UNL     1     -42.426 -47.002  12.694  1.00  0.00     0.020 C 
HETATM    5  C   UNL     1     -41.748 -48.112  13.494  1.00  0.00     0.128 C 
HETATM    6  N   UNL     1     -41.617 -49.350  12.715  1.00  0.00    -0.328 N 
HETATM    7  C   UNL     1     -42.210 -50.494  13.224  1.00  0.00     0.318 C 
HETATM    8  O   UNL     1     -42.810 -50.504  14.296  1.00  0.00    -0.247 OA
HETATM    9  N   UNL     1     -42.102 -51.632  12.461  1.00  0.00    -0.343 N 
HETATM   10  H   UNL     1     -41.223 -51.737  11.977  1.00  0.00     0.164 HD
ENDROOT
BRANCH   1  11
HETATM   11  C   UNL     1     -39.443 -48.940  11.518  1.00  0.00     0.129 C 
BRANCH  11  12
HETATM   12  N   UNL     1     -38.659 -50.162  11.153  1.00  0.00    -0.218 NA
HETATM   13  H   UNL     1     -39.242 -50.760  10.557  1.00  0.00     0.139 HD
BRANCH  12  14
HETATM   14  S   UNL     1     -38.136 -51.019  12.523  1.00  0.00     0.205 S 
HETATM   15  C   UNL     1     -38.012 -49.718  13.732  1.00  0.00     0.179 C 
HETATM   16  O   UNL     1     -36.805 -51.490  12.221  1.00  0.00    -0.212 OA
HETATM   17  O   UNL     1     -39.199 -51.923  12.903  1.00  0.00    -0.212 OA
ENDBRANCH  12  14
ENDBRANCH  11  12
ENDBRANCH   1  11
BRANCH   9  18
HETATM   18  C   UNL     1     -42.710 -52.850  12.980  1.00  0.00     0.129 C 
BRANCH  18  19
HETATM   19  C   UNL     1     -44.057 -53.189  12.341  1.00  0.00     0.060 C 
BRANCH  19  20
HETATM   20  C   UNL     1     -45.183 -52.925  13.306  1.00  0.00    -0.041 A 
HETATM   21  C   UNL     1     -45.821 -51.683  13.359  1.00  0.00     0.010 A 
HETATM   22  C   UNL     1     -46.804 -51.452  14.320  1.00  0.00     0.018 A 
HETATM   23  C   UNL     1     -47.119 -52.474  15.199  1.00  0.00     0.087 A 
HETATM   24  N   UNL     1     -46.533 -53.690  15.172  1.00  0.00    -0.375 N 
HETATM   25  C   UNL     1     -45.581 -53.886  14.233  1.00  0.00     0.094 A 
ATOM     26  HN  UNL     1     -46.796 -54.425  15.829  1.00  0.00     0.164 HD
ENDBRANCH  19  20
ENDBRANCH  18  19
ENDBRANCH   9  18
TORSDOF 6
ENDMDL
MODEL 7
REMARK VINA RESULT:      -6.1      1.922      2.195
REMARK  6 active torsions:
REMARK  status: ('A' for Active; 'I' for Inactive)
REMARK    1  A    between atoms: S_2  and  N_5 
REMARK    2  A    between atoms: N_5  and  C_6 
REMARK    3  A    between atoms: C_6  and  C_7 
REMARK       I    between atoms: N_12  and  C_13 
REMARK       I    between atoms: C_13  and  N_15 
REMARK    4  A    between atoms: N_15  and  C_16 
REMARK    5  A    between atoms: C_16  and  C_17 
REMARK    6  A    between atoms: C_17  and  C_18 
ROOT
HETATM    1  C   UNL     1     -40.376 -48.466  12.528  1.00  0.00     0.102 C 
HETATM    2  C   UNL     1     -40.327 -47.671  13.844  1.00  0.00     0.027 C 
HETATM    3  C   UNL     1     -38.943 -47.091  14.133  1.00  0.00     0.004 C 
HETATM    4  C   UNL     1     -37.873 -48.177  14.075  1.00  0.00     0.020 C 
HETATM    5  C   UNL     1     -37.944 -48.987  12.783  1.00  0.00     0.128 C 
HETATM    6  N   UNL     1     -39.299 -49.486  12.519  1.00  0.00    -0.328 N 
HETATM    7  C   UNL     1     -39.469 -50.856  12.402  1.00  0.00     0.318 C 
HETATM    8  O   UNL     1     -38.531 -51.645  12.488  1.00  0.00    -0.247 OA
HETATM    9  N   UNL     1     -40.752 -51.300  12.189  1.00  0.00    -0.343 N 
HETATM   10  H   UNL     1     -41.313 -50.707  11.596  1.00  0.00     0.164 HD
ENDROOT
BRANCH   1  11
HETATM   11  C   UNL     1     -40.305 -47.529  11.299  1.00  0.00     0.129 C 
BRANCH  11  12
HETATM   12  N   UNL     1     -41.280 -47.967  10.252  1.00  0.00    -0.218 NA
HETATM   13  H   UNL     1     -40.787 -48.043   9.355  1.00  0.00     0.139 HD
BRANCH  12  14
HETATM   14  S   UNL     1     -42.595 -46.900  10.118  1.00  0.00     0.205 S 
HETATM   15  C   UNL     1     -43.419 -47.532   8.672  1.00  0.00     0.179 C 
HETATM   16  O   UNL     1     -42.037 -45.608   9.797  1.00  0.00    -0.212 OA
HETATM   17  O   UNL     1     -43.440 -47.103  11.274  1.00  0.00    -0.212 OA
ENDBRANCH  12  14
ENDBRANCH  11  12
ENDBRANCH   1  11
BRANCH   9  18
HETATM   18  C   UNL     1     -40.953 -52.736  12.052  1.00  0.00     0.129 C 
BRANCH  18  19
HETATM   19  C   UNL     1     -41.250 -53.446  13.373  1.00  0.00     0.060 C 
BRANCH  19  20
HETATM   20  C   UNL     1     -42.721 -53.750  13.493  1.00  0.00    -0.041 A 
HETATM   21  C   UNL     1     -43.198 -54.689  14.410  1.00  0.00     0.010 A 
HETATM   22  C   UNL     1     -44.556 -55.002  14.435  1.00  0.00     0.018 A 
HETATM   23  C   UNL     1     -45.396 -54.363  13.539  1.00  0.00     0.087 A 
HETATM   24  N   UNL     1     -44.974 -53.444  12.644  1.00  0.00    -0.375 N 
HETATM   25  C   UNL     1     -43.652 -53.161  12.640  1.00  0.00     0.094 A 
ATOM     26  HN  UNL     1     -45.622 -52.984  12.004  1.00  0.00     0.164 HD
ENDBRANCH  19  20
ENDBRANCH  18  19
ENDBRANCH   9  18
TORSDOF 6
ENDMDL
MODEL 8
REMARK VINA RESULT:      -5.9      3.445      4.885
REMARK  6 active torsions:
REMARK  status: ('A' for Active; 'I' for Inactive)
REMARK    1  A    between atoms: S_2  and  N_5 
REMARK    2  A    between atoms: N_5  and  C_6 
REMARK    3  A    between atoms: C_6  and  C_7 
REMARK       I    between atoms: N_12  and  C_13 
REMARK       I    between atoms: C_13  and  N_15 
REMARK    4  A    between atoms: N_15  and  C_16 
REMARK    5  A    between atoms: C_16  and  C_17 
REMARK    6  A    between atoms: C_17  and  C_18 
ROOT
HETATM    1  C   UNL     1     -41.567 -50.365  12.237  1.00  0.00     0.102 C 
HETATM    2  C   UNL     1     -41.443 -49.108  11.361  1.00  0.00     0.027 C 
HETATM    3  C   UNL     1     -41.303 -47.826  12.182  1.00  0.00     0.004 C 
HETATM    4  C   UNL     1     -42.428 -47.707  13.206  1.00  0.00     0.020 C 
HETATM    5  C   UNL     1     -42.571 -48.969  14.053  1.00  0.00     0.128 C 
HETATM    6  N   UNL     1     -42.656 -50.180  13.227  1.00  0.00    -0.328 N 
HETATM    7  C   UNL     1     -43.785 -50.972  13.361  1.00  0.00     0.318 C 
HETATM    8  O   UNL     1     -44.686 -50.704  14.152  1.00  0.00    -0.247 OA
HETATM    9  N   UNL     1     -43.856 -52.081  12.554  1.00  0.00    -0.343 N 
HETATM   10  H   UNL     1     -42.976 -52.547  12.393  1.00  0.00     0.164 HD
ENDROOT
BRANCH   1  11
HETATM   11  C   UNL     1     -40.219 -50.719  12.910  1.00  0.00     0.129 C 
BRANCH  11  12
HETATM   12  N   UNL     1     -39.244 -51.222  11.892  1.00  0.00    -0.218 NA
HETATM   13  H   UNL     1     -39.231 -52.248  11.930  1.00  0.00     0.139 HD
BRANCH  12  14
HETATM   14  S   UNL     1     -37.684 -50.599  12.138  1.00  0.00     0.205 S 
HETATM   15  C   UNL     1     -37.891 -49.711  13.667  1.00  0.00     0.179 C 
HETATM   16  O   UNL     1     -37.460 -49.642  11.081  1.00  0.00    -0.212 OA
HETATM   17  O   UNL     1     -36.796 -51.721  12.354  1.00  0.00    -0.212 OA
ENDBRANCH  12  14
ENDBRANCH  11  12
ENDBRANCH   1  11
BRANCH   9  18
HETATM   18  C   UNL     1     -45.030 -52.934  12.684  1.00  0.00     0.129 C 
BRANCH  18  19
HETATM   19  C   UNL     1     -44.707 -54.371  13.095  1.00  0.00     0.060 C 
BRANCH  19  20
HETATM   20  C   UNL     1     -44.179 -54.414  14.504  1.00  0.00    -0.041 A 
HETATM   21  C   UNL     1     -42.924 -54.953  14.796  1.00  0.00     0.010 A 
HETATM   22  C   UNL     1     -42.504 -55.050  16.121  1.00  0.00     0.018 A 
HETATM   23  C   UNL     1     -43.356 -54.602  17.116  1.00  0.00     0.087 A 
HETATM   24  N   UNL     1     -44.571 -54.065  16.874  1.00  0.00    -0.375 N 
HETATM   25  C   UNL     1     -44.954 -53.987  15.580  1.00  0.00     0.094 A 
ATOM     26  HN  UNL     1     -45.170 -53.735  17.631  1.00  0.00     0.164 HD
ENDBRANCH  19  20
ENDBRANCH  18  19
ENDBRANCH   9  18
TORSDOF 6
ENDMDL
MODEL 9
REMARK VINA RESULT:      -5.9      3.608      7.344
REMARK  6 active torsions:
REMARK  status: ('A' for Active; 'I' for Inactive)
REMARK    1  A    between atoms: S_2  and  N_5 
REMARK    2  A    between atoms: N_5  and  C_6 
REMARK    3  A    between atoms: C_6  and  C_7 
REMARK       I    between atoms: N_12  and  C_13 
REMARK       I    between atoms: C_13  and  N_15 
REMARK    4  A    between atoms: N_15  and  C_16 
REMARK    5  A    between atoms: C_16  and  C_17 
REMARK    6  A    between atoms: C_17  and  C_18 
ROOT
HETATM    1  C   UNL     1     -44.433 -52.392  15.038  1.00  0.00     0.102 C 
HETATM    2  C   UNL     1     -45.518 -51.305  15.110  1.00  0.00     0.027 C 
HETATM    3  C   UNL     1     -46.701 -51.588  14.186  1.00  0.00     0.004 C 
HETATM    4  C   UNL     1     -46.230 -51.839  12.756  1.00  0.00     0.020 C 
HETATM    5  C   UNL     1     -45.129 -52.895  12.689  1.00  0.00     0.128 C 
HETATM    6  N   UNL     1     -44.035 -52.610  13.626  1.00  0.00    -0.328 N 
HETATM    7  C   UNL     1     -42.763 -52.457  13.100  1.00  0.00     0.318 C 
HETATM    8  O   UNL     1     -42.528 -52.574  11.900  1.00  0.00    -0.247 OA
HETATM    9  N   UNL     1     -41.761 -52.157  13.992  1.00  0.00    -0.343 N 
HETATM   10  H   UNL     1     -41.844 -52.608  14.891  1.00  0.00     0.164 HD
ENDROOT
BRANCH   1  11
HETATM   11  C   UNL     1     -44.897 -53.700  15.723  1.00  0.00     0.129 C 
BRANCH  11  12
HETATM   12  N   UNL     1     -44.027 -54.844  15.306  1.00  0.00    -0.218 NA
HETATM   13  H   UNL     1     -44.612 -55.681  15.206  1.00  0.00     0.139 HD
BRANCH  12  14
HETATM   14  S   UNL     1     -42.769 -55.127  16.411  1.00  0.00     0.205 S 
HETATM   15  C   UNL     1     -43.481 -54.520  17.925  1.00  0.00     0.179 C 
HETATM   16  O   UNL     1     -41.690 -54.247  16.029  1.00  0.00    -0.212 OA
HETATM   17  O   UNL     1     -42.589 -56.559  16.509  1.00  0.00    -0.212 OA
ENDBRANCH  12  14
ENDBRANCH  11  12
ENDBRANCH   1  11
BRANCH   9  18
HETATM   18  C   UNL     1     -40.413 -52.001  13.463  1.00  0.00     0.129 C 
BRANCH  18  19
HETATM   19  C   UNL     1     -39.874 -50.574  13.558  1.00  0.00     0.060 C 
BRANCH  19  20
HETATM   20  C   UNL     1     -40.576 -49.675  12.574  1.00  0.00    -0.041 A 
HETATM   21  C   UNL     1     -41.489 -48.706  12.995  1.00  0.00     0.010 A 
HETATM   22  C   UNL     1     -42.178 -47.948  12.050  1.00  0.00     0.018 A 
HETATM   23  C   UNL     1     -41.931 -48.185  10.708  1.00  0.00     0.087 A 
HETATM   24  N   UNL     1     -41.049 -49.105  10.262  1.00  0.00    -0.375 N 
HETATM   25  C   UNL     1     -40.397 -49.828  11.200  1.00  0.00     0.094 A 
ATOM     26  HN  UNL     1     -40.883 -49.248   9.266  1.00  0.00     0.164 HD
ENDBRANCH  19  20
ENDBRANCH  18  19
ENDBRANCH   9  18
TORSDOF 6
ENDMDL
