MODEL 1
REMARK VINA RESULT:      -5.7      0.000      0.000
REMARK  5 active torsions:
REMARK  status: ('A' for Active; 'I' for Inactive)
REMARK    1  A    between atoms: C_2  and  C_3 
REMARK    2  A    between atoms: C_2  and  N_11 
REMARK    3  A    between atoms: C_3  and  N_4 
REMARK    4  A    between atoms: N_11  and  C_12 
REMARK    5  A    between atoms: C_12  and  C_13 
ROOT
HETATM    1  C   UNL     1     -41.255 -48.704  12.979  1.00  0.00     0.044 C 
HETATM    2  C   UNL     1     -41.646 -49.174  11.570  1.00  0.00     0.236 C 
ENDROOT
BRANCH   2   3
HETATM    3  C   UNL     1     -41.603 -47.998  10.565  1.00  0.00     0.183 C 
BRANCH   3   4
HETATM    4  N   UNL     1     -42.826 -47.849   9.793  1.00  0.00    -0.301 N 
HETATM    5  C   UNL     1     -44.065 -47.513  10.263  1.00  0.00     0.118 A 
HETATM    6  C   UNL     1     -44.884 -47.393   9.161  1.00  0.00    -0.028 A 
HETATM    7  C   UNL     1     -46.311 -47.005   9.110  1.00  0.00     0.051 C 
HETATM    8  C   UNL     1     -44.043 -47.721   8.074  1.00  0.00     0.115 A 
HETATM    9  N   UNL     1     -42.795 -47.997   8.453  1.00  0.00    -0.310 N 
ATOM     10  HN  UNL     1     -42.002 -48.257   7.867  1.00  0.00     0.186 HD
ENDBRANCH   3   4
ENDBRANCH   2   3
BRANCH   2  11
HETATM   11  N   UNL     1     -40.787 -50.278  11.080  1.00  0.00     0.091 N 
HETATM   12  H   UNL     1     -39.909 -49.919  10.696  1.00  0.00     0.316 HD
BRANCH  11  13
HETATM   13  C   UNL     1     -40.466 -51.272  12.114  1.00  0.00     0.301 C 
BRANCH  13  14
HETATM   14  C   UNL     1     -41.188 -52.629  11.904  1.00  0.00     0.149 C 
HETATM   15  C   UNL     1     -42.600 -52.615  12.507  1.00  0.00     0.034 C 
HETATM   16  C   UNL     1     -42.568 -52.651  14.031  1.00  0.00     0.004 C 
HETATM   17  C   UNL     1     -41.718 -53.818  14.510  1.00  0.00     0.026 C 
HETATM   18  C   UNL     1     -40.353 -53.831  13.832  1.00  0.00     0.168 C 
HETATM   19  O   UNL     1     -40.446 -53.748  12.413  1.00  0.00    -0.384 OA
ENDBRANCH  13  14
ENDBRANCH  11  13
ENDBRANCH   2  11
TORSDOF 5
ENDMDL
MODEL 2
REMARK VINA RESULT:      -5.5      3.632      5.628
REMARK  5 active torsions:
REMARK  status: ('A' for Active; 'I' for Inactive)
REMARK    1  A    between atoms: C_2  and  C_3 
REMARK    2  A    between atoms: C_2  and  N_11 
REMARK    3  A    between atoms: C_3  and  N_4 
REMARK    4  A    between atoms: N_11  and  C_12 
REMARK    5  A    between atoms: C_12  and  C_13 
ROOT
HETATM    1  C   UNL     1     -41.951 -54.580  14.449  1.00  0.00     0.044 C 
HETATM    2  C   UNL     1     -42.048 -53.423  13.444  1.00  0.00     0.236 C 
ENDROOT
BRANCH   2   3
HETATM    3  C   UNL     1     -40.762 -53.327  12.588  1.00  0.00     0.183 C 
BRANCH   3   4
HETATM    4  N   UNL     1     -40.306 -51.962  12.376  1.00  0.00    -0.301 N 
HETATM    5  C   UNL     1     -39.329 -51.301  13.067  1.00  0.00     0.118 A 
HETATM    6  C   UNL     1     -39.174 -50.077  12.451  1.00  0.00    -0.028 A 
HETATM    7  C   UNL     1     -38.219 -48.995  12.778  1.00  0.00     0.051 C 
HETATM    8  C   UNL     1     -40.141 -50.087  11.422  1.00  0.00     0.115 A 
HETATM    9  N   UNL     1     -40.828 -51.230  11.372  1.00  0.00    -0.310 N 
ATOM     10  HN  UNL     1     -41.573 -51.489  10.726  1.00  0.00     0.186 HD
ENDBRANCH   3   4
ENDBRANCH   2   3
BRANCH   2  11
HETATM   11  N   UNL     1     -43.229 -53.539  12.556  1.00  0.00     0.091 N 
HETATM   12  H   UNL     1     -43.742 -54.405  12.738  1.00  0.00     0.316 HD
BRANCH  11  13
HETATM   13  C   UNL     1     -44.165 -52.412  12.678  1.00  0.00     0.301 C 
BRANCH  13  14
HETATM   14  C   UNL     1     -45.650 -52.830  12.515  1.00  0.00     0.149 C 
HETATM   15  C   UNL     1     -46.601 -51.674  12.854  1.00  0.00     0.034 C 
HETATM   16  C   UNL     1     -46.646 -51.395  14.353  1.00  0.00     0.004 C 
HETATM   17  C   UNL     1     -46.954 -52.676  15.115  1.00  0.00     0.026 C 
HETATM   18  C   UNL     1     -46.032 -53.813  14.693  1.00  0.00     0.168 C 
HETATM   19  O   UNL     1     -45.996 -53.995  13.281  1.00  0.00    -0.384 OA
ENDBRANCH  13  14
ENDBRANCH  11  13
ENDBRANCH   2  11
TORSDOF 5
ENDMDL
MODEL 3
REMARK VINA RESULT:      -5.4      2.667      3.150
REMARK  5 active torsions:
REMARK  status: ('A' for Active; 'I' for Inactive)
REMARK    1  A    between atoms: C_2  and  C_3 
REMARK    2  A    between atoms: C_2  and  N_11 
REMARK    3  A    between atoms: C_3  and  N_4 
REMARK    4  A    between atoms: N_11  and  C_12 
REMARK    5  A    between atoms: C_12  and  C_13 
ROOT
HETATM    1  C   UNL     1     -43.022 -49.186  14.176  1.00  0.00     0.044 C 
HETATM    2  C   UNL     1     -43.187 -49.611  12.709  1.00  0.00     0.236 C 
ENDROOT
BRANCH   2   3
HETATM    3  C   UNL     1     -42.247 -48.796  11.789  1.00  0.00     0.183 C 
BRANCH   3   4
HETATM    4  N   UNL     1     -42.927 -48.185  10.659  1.00  0.00    -0.301 N 
HETATM    5  C   UNL     1     -44.158 -47.590  10.658  1.00  0.00     0.118 A 
HETATM    6  C   UNL     1     -44.341 -47.069   9.394  1.00  0.00    -0.028 A 
HETATM    7  C   UNL     1     -45.487 -46.289   8.876  1.00  0.00     0.051 C 
HETATM    8  C   UNL     1     -43.171 -47.444   8.698  1.00  0.00     0.115 A 
HETATM    9  N   UNL     1     -42.311 -48.119   9.461  1.00  0.00    -0.310 N 
ATOM     10  HN  UNL     1     -41.400 -48.497   9.201  1.00  0.00     0.186 HD
ENDBRANCH   3   4
ENDBRANCH   2   3
BRANCH   2  11
HETATM   11  N   UNL     1     -42.947 -51.060  12.507  1.00  0.00     0.091 N 
HETATM   12  H   UNL     1     -41.968 -51.299  12.684  1.00  0.00     0.316 HD
BRANCH  11  13
HETATM   13  C   UNL     1     -43.791 -51.916  13.353  1.00  0.00     0.301 C 
BRANCH  13  14
HETATM   14  C   UNL     1     -45.114 -52.343  12.665  1.00  0.00     0.149 C 
HETATM   15  C   UNL     1     -46.296 -51.482  13.134  1.00  0.00     0.034 C 
HETATM   16  C   UNL     1     -46.710 -51.816  14.564  1.00  0.00     0.004 C 
HETATM   17  C   UNL     1     -46.957 -53.311  14.702  1.00  0.00     0.026 C 
HETATM   18  C   UNL     1     -45.788 -54.123  14.159  1.00  0.00     0.168 C 
HETATM   19  O   UNL     1     -45.418 -53.735  12.839  1.00  0.00    -0.384 OA
ENDBRANCH  13  14
ENDBRANCH  11  13
ENDBRANCH   2  11
TORSDOF 5
ENDMDL
MODEL 4
REMARK VINA RESULT:      -5.4      3.700      5.123
REMARK  5 active torsions:
REMARK  status: ('A' for Active; 'I' for Inactive)
REMARK    1  A    between atoms: C_2  and  C_3 
REMARK    2  A    between atoms: C_2  and  N_11 
REMARK    3  A    between atoms: C_3  and  N_4 
REMARK    4  A    between atoms: N_11  and  C_12 
REMARK    5  A    between atoms: C_12  and  C_13 
ROOT
HETATM    1  C   UNL     1     -42.214 -53.712  13.304  1.00  0.00     0.044 C 
HETATM    2  C   UNL     1     -42.531 -52.630  12.261  1.00  0.00     0.236 C 
ENDROOT
BRANCH   2   3
HETATM    3  C   UNL     1     -43.066 -51.347  12.941  1.00  0.00     0.183 C 
BRANCH   3   4
HETATM    4  N   UNL     1     -44.442 -51.462  13.396  1.00  0.00    -0.301 N 
HETATM    5  C   UNL     1     -44.894 -51.416  14.685  1.00  0.00     0.118 A 
HETATM    6  C   UNL     1     -46.270 -51.464  14.621  1.00  0.00    -0.028 A 
HETATM    7  C   UNL     1     -47.248 -51.402  15.730  1.00  0.00     0.051 C 
HETATM    8  C   UNL     1     -46.544 -51.582  13.240  1.00  0.00     0.115 A 
HETATM    9  N   UNL     1     -45.438 -51.580  12.494  1.00  0.00    -0.310 N 
ATOM     10  HN  UNL     1     -45.363 -51.650  11.480  1.00  0.00     0.186 HD
ENDBRANCH   3   4
ENDBRANCH   2   3
BRANCH   2  11
HETATM   11  N   UNL     1     -41.359 -52.294  11.418  1.00  0.00     0.091 N 
HETATM   12  H   UNL     1     -41.635 -52.160  10.441  1.00  0.00     0.316 HD
BRANCH  11  13
HETATM   13  C   UNL     1     -40.643 -51.090  11.864  1.00  0.00     0.301 C 
BRANCH  13  14
HETATM   14  C   UNL     1     -39.462 -51.400  12.820  1.00  0.00     0.149 C 
HETATM   15  C   UNL     1     -39.540 -50.561  14.104  1.00  0.00     0.034 C 
HETATM   16  C   UNL     1     -39.198 -49.097  13.848  1.00  0.00     0.004 C 
HETATM   17  C   UNL     1     -37.857 -48.989  13.135  1.00  0.00     0.026 C 
HETATM   18  C   UNL     1     -37.802 -49.892  11.910  1.00  0.00     0.168 C 
HETATM   19  O   UNL     1     -38.176 -51.236  12.201  1.00  0.00    -0.384 OA
ENDBRANCH  13  14
ENDBRANCH  11  13
ENDBRANCH   2  11
TORSDOF 5
ENDMDL
MODEL 5
REMARK VINA RESULT:      -5.4      2.819      4.511
REMARK  5 active torsions:
REMARK  status: ('A' for Active; 'I' for Inactive)
REMARK    1  A    between atoms: C_2  and  C_3 
REMARK    2  A    between atoms: C_2  and  N_11 
REMARK    3  A    between atoms: C_3  and  N_4 
REMARK    4  A    between atoms: N_11  and  C_12 
REMARK    5  A    between atoms: C_12  and  C_13 
ROOT
HETATM    1  C   UNL     1     -40.919 -54.012  12.927  1.00  0.00     0.044 C 
HETATM    2  C   UNL     1     -41.533 -52.628  12.668  1.00  0.00     0.236 C 
ENDROOT
BRANCH   2   3
HETATM    3  C   UNL     1     -40.615 -51.779  11.755  1.00  0.00     0.183 C 
BRANCH   3   4
HETATM    4  N   UNL     1     -40.956 -50.366  11.741  1.00  0.00    -0.301 N 
HETATM    5  C   UNL     1     -41.285 -49.584  12.813  1.00  0.00     0.118 A 
HETATM    6  C   UNL     1     -41.427 -48.299  12.332  1.00  0.00    -0.028 A 
HETATM    7  C   UNL     1     -41.737 -47.063  13.084  1.00  0.00     0.051 C 
HETATM    8  C   UNL     1     -41.203 -48.427  10.944  1.00  0.00     0.115 A 
HETATM    9  N   UNL     1     -40.915 -49.678  10.582  1.00  0.00    -0.310 N 
ATOM     10  HN  UNL     1     -40.711 -50.032   9.647  1.00  0.00     0.186 HD
ENDBRANCH   3   4
ENDBRANCH   2   3
BRANCH   2  11
HETATM   11  N   UNL     1     -42.888 -52.709  12.072  1.00  0.00     0.091 N 
HETATM   12  H   UNL     1     -43.108 -53.668  11.788  1.00  0.00     0.316 HD
BRANCH  11  13
HETATM   13  C   UNL     1     -43.951 -52.238  12.971  1.00  0.00     0.301 C 
BRANCH  13  14
HETATM   14  C   UNL     1     -45.365 -52.716  12.549  1.00  0.00     0.149 C 
HETATM   15  C   UNL     1     -46.426 -51.637  12.814  1.00  0.00     0.034 C 
HETATM   16  C   UNL     1     -46.715 -51.478  14.303  1.00  0.00     0.004 C 
HETATM   17  C   UNL     1     -47.058 -52.828  14.917  1.00  0.00     0.026 C 
HETATM   18  C   UNL     1     -46.014 -53.882  14.568  1.00  0.00     0.168 C 
HETATM   19  O   UNL     1     -45.752 -53.952  13.170  1.00  0.00    -0.384 OA
ENDBRANCH  13  14
ENDBRANCH  11  13
ENDBRANCH   2  11
TORSDOF 5
ENDMDL
MODEL 6
REMARK VINA RESULT:      -5.3      2.759      3.995
REMARK  5 active torsions:
REMARK  status: ('A' for Active; 'I' for Inactive)
REMARK    1  A    between atoms: C_2  and  C_3 
REMARK    2  A    between atoms: C_2  and  N_11 
REMARK    3  A    between atoms: C_3  and  N_4 
REMARK    4  A    between atoms: N_11  and  C_12 
REMARK    5  A    between atoms: C_12  and  C_13 
ROOT
HETATM    1  C   UNL     1     -42.194 -50.798  14.100  1.00  0.00     0.044 C 
HETATM    2  C   UNL     1     -42.388 -50.794  12.576  1.00  0.00     0.236 C 
ENDROOT
BRANCH   2   3
HETATM    3  C   UNL     1     -41.099 -50.330  11.857  1.00  0.00     0.183 C 
BRANCH   3   4
HETATM    4  N   UNL     1     -41.162 -48.957  11.380  1.00  0.00    -0.301 N 
HETATM    5  C   UNL     1     -40.247 -47.965  11.593  1.00  0.00     0.118 A 
HETATM    6  C   UNL     1     -40.676 -46.873  10.869  1.00  0.00    -0.028 A 
HETATM    7  C   UNL     1     -40.027 -45.552  10.721  1.00  0.00     0.051 C 
HETATM    8  C   UNL     1     -41.889 -47.304  10.288  1.00  0.00     0.115 A 
HETATM    9  N   UNL     1     -42.186 -48.568  10.594  1.00  0.00    -0.310 N 
ATOM     10  HN  UNL     1     -42.997 -49.113  10.302  1.00  0.00     0.186 HD
ENDBRANCH   3   4
ENDBRANCH   2   3
BRANCH   2  11
HETATM   11  N   UNL     1     -42.800 -52.118  12.052  1.00  0.00     0.091 N 
HETATM   12  H   UNL     1     -41.987 -52.676  11.780  1.00  0.00     0.316 HD
BRANCH  11  13
HETATM   13  C   UNL     1     -43.599 -52.901  13.006  1.00  0.00     0.301 C 
BRANCH  13  14
HETATM   14  C   UNL     1     -45.046 -53.169  12.517  1.00  0.00     0.149 C 
HETATM   15  C   UNL     1     -45.955 -51.953  12.755  1.00  0.00     0.034 C 
HETATM   16  C   UNL     1     -46.284 -51.770  14.233  1.00  0.00     0.004 C 
HETATM   17  C   UNL     1     -46.840 -53.064  14.810  1.00  0.00     0.026 C 
HETATM   18  C   UNL     1     -45.942 -54.252  14.488  1.00  0.00     0.168 C 
HETATM   19  O   UNL     1     -45.631 -54.343  13.101  1.00  0.00    -0.384 OA
ENDBRANCH  13  14
ENDBRANCH  11  13
ENDBRANCH   2  11
TORSDOF 5
ENDMDL
MODEL 7
REMARK VINA RESULT:      -5.1      2.479      3.419
REMARK  5 active torsions:
REMARK  status: ('A' for Active; 'I' for Inactive)
REMARK    1  A    between atoms: C_2  and  C_3 
REMARK    2  A    between atoms: C_2  and  N_11 
REMARK    3  A    between atoms: C_3  and  N_4 
REMARK    4  A    between atoms: N_11  and  C_12 
REMARK    5  A    between atoms: C_12  and  C_13 
ROOT
HETATM    1  C   UNL     1     -42.426 -48.681  11.695  1.00  0.00     0.044 C 
HETATM    2  C   UNL     1     -41.094 -48.749  10.933  1.00  0.00     0.236 C 
ENDROOT
BRANCH   2   3
HETATM    3  C   UNL     1     -39.982 -47.990  11.696  1.00  0.00     0.183 C 
BRANCH   3   4
HETATM    4  N   UNL     1     -40.008 -46.552  11.482  1.00  0.00    -0.301 N 
HETATM    5  C   UNL     1     -40.153 -45.578  12.429  1.00  0.00     0.118 A 
HETATM    6  C   UNL     1     -40.015 -44.372  11.776  1.00  0.00    -0.028 A 
HETATM    7  C   UNL     1     -40.045 -43.006  12.345  1.00  0.00     0.051 C 
HETATM    8  C   UNL     1     -39.831 -44.735  10.423  1.00  0.00     0.115 A 
HETATM    9  N   UNL     1     -39.824 -46.056  10.241  1.00  0.00    -0.310 N 
ATOM     10  HN  UNL     1     -39.706 -46.571   9.369  1.00  0.00     0.186 HD
ENDBRANCH   3   4
ENDBRANCH   2   3
BRANCH   2  11
HETATM   11  N   UNL     1     -40.658 -50.142  10.674  1.00  0.00     0.091 N 
HETATM   12  H   UNL     1     -39.774 -50.161  10.159  1.00  0.00     0.316 HD
BRANCH  11  13
HETATM   13  C   UNL     1     -40.497 -50.941  11.897  1.00  0.00     0.301 C 
BRANCH  13  14
HETATM   14  C   UNL     1     -41.145 -52.347  11.799  1.00  0.00     0.149 C 
HETATM   15  C   UNL     1     -42.556 -52.361  12.405  1.00  0.00     0.034 C 
HETATM   16  C   UNL     1     -42.521 -52.274  13.927  1.00  0.00     0.004 C 
HETATM   17  C   UNL     1     -41.609 -53.353  14.493  1.00  0.00     0.026 C 
HETATM   18  C   UNL     1     -40.246 -53.346  13.812  1.00  0.00     0.168 C 
HETATM   19  O   UNL     1     -40.343 -53.381  12.391  1.00  0.00    -0.384 OA
ENDBRANCH  13  14
ENDBRANCH  11  13
ENDBRANCH   2  11
TORSDOF 5
ENDMDL
MODEL 8
REMARK VINA RESULT:      -5.0      2.007      2.825
REMARK  5 active torsions:
REMARK  status: ('A' for Active; 'I' for Inactive)
REMARK    1  A    between atoms: C_2  and  C_3 
REMARK    2  A    between atoms: C_2  and  N_11 
REMARK    3  A    between atoms: C_3  and  N_4 
REMARK    4  A    between atoms: N_11  and  C_12 
REMARK    5  A    between atoms: C_12  and  C_13 
ROOT
HETATM    1  C   UNL     1     -42.947 -48.899  13.795  1.00  0.00     0.044 C 
HETATM    2  C   UNL     1     -42.837 -49.514  12.392  1.00  0.00     0.236 C 
ENDROOT
BRANCH   2   3
HETATM    3  C   UNL     1     -42.146 -48.536  11.412  1.00  0.00     0.183 C 
BRANCH   3   4
HETATM    4  N   UNL     1     -43.019 -48.065  10.349  1.00  0.00    -0.301 N 
HETATM    5  C   UNL     1     -44.273 -47.538  10.481  1.00  0.00     0.118 A 
HETATM    6  C   UNL     1     -44.667 -47.143   9.220  1.00  0.00    -0.028 A 
HETATM    7  C   UNL     1     -45.923 -46.474   8.814  1.00  0.00     0.051 C 
HETATM    8  C   UNL     1     -43.587 -47.520   8.391  1.00  0.00     0.115 A 
HETATM    9  N   UNL     1     -42.585 -48.078   9.072  1.00  0.00    -0.310 N 
ATOM     10  HN  UNL     1     -41.699 -48.430   8.711  1.00  0.00     0.186 HD
ENDBRANCH   3   4
ENDBRANCH   2   3
BRANCH   2  11
HETATM   11  N   UNL     1     -42.115 -50.809  12.394  1.00  0.00     0.091 N 
HETATM   12  H   UNL     1     -42.654 -51.531  11.909  1.00  0.00     0.316 HD
BRANCH  11  13
HETATM   13  C   UNL     1     -40.782 -50.736  11.778  1.00  0.00     0.301 C 
BRANCH  13  14
HETATM   14  C   UNL     1     -39.648 -51.229  12.714  1.00  0.00     0.149 C 
HETATM   15  C   UNL     1     -39.654 -50.475  14.052  1.00  0.00     0.034 C 
HETATM   16  C   UNL     1     -39.162 -49.040  13.897  1.00  0.00     0.004 C 
HETATM   17  C   UNL     1     -37.810 -49.022  13.198  1.00  0.00     0.026 C 
HETATM   18  C   UNL     1     -37.834 -49.841  11.914  1.00  0.00     0.168 C 
HETATM   19  O   UNL     1     -38.347 -51.156  12.112  1.00  0.00    -0.384 OA
ENDBRANCH  13  14
ENDBRANCH  11  13
ENDBRANCH   2  11
TORSDOF 5
ENDMDL
MODEL 9
REMARK VINA RESULT:      -5.0      3.232      4.399
REMARK  5 active torsions:
REMARK  status: ('A' for Active; 'I' for Inactive)
REMARK    1  A    between atoms: C_2  and  C_3 
REMARK    2  A    between atoms: C_2  and  N_11 
REMARK    3  A    between atoms: C_3  and  N_4 
REMARK    4  A    between atoms: N_11  and  C_12 
REMARK    5  A    between atoms: C_12  and  C_13 
ROOT
HETATM    1  C   UNL     1     -41.971 -48.132  12.461  1.00  0.00     0.044 C 
HETATM    2  C   UNL     1     -42.061 -48.520  10.978  1.00  0.00     0.236 C 
ENDROOT
BRANCH   2   3
HETATM    3  C   UNL     1     -42.355 -47.280  10.100  1.00  0.00     0.183 C 
BRANCH   3   4
HETATM    4  N   UNL     1     -41.510 -46.138  10.408  1.00  0.00    -0.301 N 
HETATM    5  C   UNL     1     -41.902 -44.937  10.930  1.00  0.00     0.118 A 
HETATM    6  C   UNL     1     -40.751 -44.208  11.144  1.00  0.00    -0.028 A 
HETATM    7  C   UNL     1     -40.612 -42.857  11.733  1.00  0.00     0.051 C 
HETATM    8  C   UNL     1     -39.720 -45.051  10.674  1.00  0.00     0.115 A 
HETATM    9  N   UNL     1     -40.176 -46.222  10.228  1.00  0.00    -0.310 N 
ATOM     10  HN  UNL     1     -39.641 -47.001   9.843  1.00  0.00     0.186 HD
ENDBRANCH   3   4
ENDBRANCH   2   3
BRANCH   2  11
HETATM   11  N   UNL     1     -40.835 -49.196  10.491  1.00  0.00     0.091 N 
HETATM   12  H   UNL     1     -40.237 -48.545   9.975  1.00  0.00     0.316 HD
BRANCH  11  13
HETATM   13  C   UNL     1     -40.036 -49.802  11.566  1.00  0.00     0.301 C 
BRANCH  13  14
HETATM   14  C   UNL     1     -38.631 -49.163  11.719  1.00  0.00     0.149 C 
HETATM   15  C   UNL     1     -37.521 -50.222  11.658  1.00  0.00     0.034 C 
HETATM   16  C   UNL     1     -37.479 -51.076  12.921  1.00  0.00     0.004 C 
HETATM   17  C   UNL     1     -37.400 -50.186  14.153  1.00  0.00     0.026 C 
HETATM   18  C   UNL     1     -38.476 -49.108  14.134  1.00  0.00     0.168 C 
HETATM   19  O   UNL     1     -38.497 -48.375  12.913  1.00  0.00    -0.384 OA
ENDBRANCH  13  14
ENDBRANCH  11  13
ENDBRANCH   2  11
TORSDOF 5
ENDMDL
