MODEL 1
REMARK VINA RESULT:      -5.4      0.000      0.000
REMARK  3 active torsions:
REMARK  status: ('A' for Active; 'I' for Inactive)
REMARK    1  A    between atoms: N_6  and  C_7 
REMARK    2  A    between atoms: C_7  and  C_8 
REMARK       I    between atoms: C_8  and  N_10 
REMARK    3  A    between atoms: N_10  and  C_11 
ROOT
HETATM    1  C   UNL     1     -40.591 -49.593  11.105  1.00  0.00     0.256 C 
ENDROOT
BRANCH   1   2
HETATM    2  N   UNL     1     -40.989 -50.747  11.873  1.00  0.00    -0.233 N 
HETATM    3  N   UNL     1     -42.290 -51.190  11.957  1.00  0.00    -0.289 N 
HETATM    4  C   UNL     1     -42.182 -52.330  12.563  1.00  0.00     0.204 A 
ATOM      5  HN  UNL     1     -43.138 -50.730  11.623  1.00  0.00     0.188 HD
HETATM    6  N   UNL     1     -40.929 -52.687  12.895  1.00  0.00    -0.298 N 
HETATM    7  C   UNL     1     -40.486 -53.865  13.592  1.00  0.00     0.162 C 
HETATM    8  C   UNL     1     -40.114 -51.681  12.438  1.00  0.00     0.344 A 
HETATM    9  O   UNL     1     -38.901 -51.630  12.493  1.00  0.00    -0.245 OA
ENDBRANCH   1   2
BRANCH   1  10
HETATM   10  C   UNL     1     -41.607 -48.461  11.113  1.00  0.00     0.237 C 
HETATM   11  O   UNL     1     -41.569 -47.593  11.986  1.00  0.00    -0.272 OA
HETATM   12  N   UNL     1     -42.440 -48.355  10.014  1.00  0.00    -0.355 N 
HETATM   13  H   UNL     1     -42.484 -49.145   9.377  1.00  0.00     0.162 HD
BRANCH  12  14
HETATM   14  C   UNL     1     -43.422 -47.294   9.961  1.00  0.00     0.084 C 
HETATM   15  C   UNL     1     -44.803 -47.765   9.504  1.00  0.00     0.025 C 
HETATM   16  C   UNL     1     -45.512 -46.494   9.026  1.00  0.00     0.002 C 
HETATM   17  C   UNL     1     -44.444 -45.399   9.006  1.00  0.00     0.002 C 
HETATM   18  C   UNL     1     -43.119 -46.157   8.992  1.00  0.00     0.025 C 
ENDBRANCH  12  14
ENDBRANCH   1  10
TORSDOF 3
ENDMDL
MODEL 2
REMARK VINA RESULT:      -5.3      3.680      5.011
REMARK  3 active torsions:
REMARK  status: ('A' for Active; 'I' for Inactive)
REMARK    1  A    between atoms: N_6  and  C_7 
REMARK    2  A    between atoms: C_7  and  C_8 
REMARK       I    between atoms: C_8  and  N_10 
REMARK    3  A    between atoms: N_10  and  C_11 
ROOT
HETATM    1  C   UNL     1     -41.253 -52.698  11.771  1.00  0.00     0.256 C 
ENDROOT
BRANCH   1   2
HETATM    2  N   UNL     1     -40.478 -51.482  11.770  1.00  0.00    -0.233 N 
HETATM    3  N   UNL     1     -40.852 -50.345  11.086  1.00  0.00    -0.289 N 
HETATM    4  C   UNL     1     -40.008 -49.454  11.501  1.00  0.00     0.204 A 
ATOM      5  HN  UNL     1     -41.611 -50.232  10.414  1.00  0.00     0.188 HD
HETATM    6  N   UNL     1     -39.102 -49.891  12.393  1.00  0.00    -0.298 N 
HETATM    7  C   UNL     1     -38.028 -49.162  13.013  1.00  0.00     0.162 C 
HETATM    8  C   UNL     1     -39.394 -51.215  12.612  1.00  0.00     0.344 A 
HETATM    9  O   UNL     1     -38.844 -51.975  13.384  1.00  0.00    -0.245 OA
ENDBRANCH   1   2
BRANCH   1  10
HETATM   10  C   UNL     1     -42.320 -52.754  12.854  1.00  0.00     0.237 C 
HETATM   11  O   UNL     1     -42.086 -53.300  13.933  1.00  0.00    -0.272 OA
HETATM   12  N   UNL     1     -43.471 -52.018  12.642  1.00  0.00    -0.355 N 
HETATM   13  H   UNL     1     -43.641 -51.667  11.704  1.00  0.00     0.162 HD
BRANCH  12  14
HETATM   14  C   UNL     1     -44.519 -52.026  13.640  1.00  0.00     0.084 C 
HETATM   15  C   UNL     1     -45.924 -51.920  13.048  1.00  0.00     0.025 C 
HETATM   16  C   UNL     1     -46.801 -51.434  14.206  1.00  0.00     0.002 C 
HETATM   17  C   UNL     1     -45.837 -51.058  15.333  1.00  0.00     0.002 C 
HETATM   18  C   UNL     1     -44.490 -50.877  14.641  1.00  0.00     0.025 C 
ENDBRANCH  12  14
ENDBRANCH   1  10
TORSDOF 3
ENDMDL
MODEL 3
REMARK VINA RESULT:      -5.2      2.210      6.157
REMARK  3 active torsions:
REMARK  status: ('A' for Active; 'I' for Inactive)
REMARK    1  A    between atoms: N_6  and  C_7 
REMARK    2  A    between atoms: C_7  and  C_8 
REMARK       I    between atoms: C_8  and  N_10 
REMARK    3  A    between atoms: N_10  and  C_11 
ROOT
HETATM    1  C   UNL     1     -40.763 -50.308  11.520  1.00  0.00     0.256 C 
ENDROOT
BRANCH   1   2
HETATM    2  N   UNL     1     -41.020 -48.972  11.041  1.00  0.00    -0.233 N 
HETATM    3  N   UNL     1     -42.123 -48.636  10.287  1.00  0.00    -0.289 N 
HETATM    4  C   UNL     1     -42.073 -47.342  10.240  1.00  0.00     0.204 A 
ATOM      5  HN  UNL     1     -42.815 -49.257   9.865  1.00  0.00     0.188 HD
HETATM    6  N   UNL     1     -41.036 -46.784  10.889  1.00  0.00    -0.298 N 
HETATM    7  C   UNL     1     -40.690 -45.392  10.997  1.00  0.00     0.162 C 
HETATM    8  C   UNL     1     -40.334 -47.823  11.447  1.00  0.00     0.344 A 
HETATM    9  O   UNL     1     -39.349 -47.753  12.155  1.00  0.00    -0.245 OA
ENDBRANCH   1   2
BRANCH   1  10
HETATM   10  C   UNL     1     -41.886 -50.892  12.364  1.00  0.00     0.237 C 
HETATM   11  O   UNL     1     -42.763 -50.162  12.829  1.00  0.00    -0.272 OA
HETATM   12  N   UNL     1     -41.973 -52.271  12.429  1.00  0.00    -0.355 N 
HETATM   13  H   UNL     1     -41.176 -52.810  12.103  1.00  0.00     0.162 HD
BRANCH  12  14
HETATM   14  C   UNL     1     -43.025 -52.884  13.210  1.00  0.00     0.084 C 
HETATM   15  C   UNL     1     -42.533 -54.024  14.103  1.00  0.00     0.025 C 
HETATM   16  C   UNL     1     -43.789 -54.842  14.420  1.00  0.00     0.002 C 
HETATM   17  C   UNL     1     -44.892 -54.285  13.518  1.00  0.00     0.002 C 
HETATM   18  C   UNL     1     -44.145 -53.542  12.414  1.00  0.00     0.025 C 
ENDBRANCH  12  14
ENDBRANCH   1  10
TORSDOF 3
ENDMDL
MODEL 4
REMARK VINA RESULT:      -5.2      3.708      6.009
REMARK  3 active torsions:
REMARK  status: ('A' for Active; 'I' for Inactive)
REMARK    1  A    between atoms: N_6  and  C_7 
REMARK    2  A    between atoms: C_7  and  C_8 
REMARK       I    between atoms: C_8  and  N_10 
REMARK    3  A    between atoms: N_10  and  C_11 
ROOT
HETATM    1  C   UNL     1     -40.909 -50.648  11.521  1.00  0.00     0.256 C 
ENDROOT
BRANCH   1   2
HETATM    2  N   UNL     1     -39.650 -50.213  12.074  1.00  0.00    -0.233 N 
HETATM    3  N   UNL     1     -38.435 -50.448  11.469  1.00  0.00    -0.289 N 
HETATM    4  C   UNL     1     -37.607 -49.740  12.171  1.00  0.00     0.204 A 
ATOM      5  HN  UNL     1     -38.234 -51.038  10.661  1.00  0.00     0.188 HD
HETATM    6  N   UNL     1     -38.157 -49.059  13.192  1.00  0.00    -0.298 N 
HETATM    7  C   UNL     1     -37.509 -48.217  14.161  1.00  0.00     0.162 C 
HETATM    8  C   UNL     1     -39.503 -49.327  13.146  1.00  0.00     0.344 A 
HETATM    9  O   UNL     1     -40.371 -48.875  13.866  1.00  0.00    -0.245 OA
ENDBRANCH   1   2
BRANCH   1  10
HETATM   10  C   UNL     1     -41.356 -52.021  11.999  1.00  0.00     0.237 C 
HETATM   11  O   UNL     1     -40.532 -52.920  12.175  1.00  0.00    -0.272 OA
HETATM   12  N   UNL     1     -42.676 -52.152  12.393  1.00  0.00    -0.355 N 
HETATM   13  H   UNL     1     -43.320 -51.408  12.141  1.00  0.00     0.162 HD
BRANCH  12  14
HETATM   14  C   UNL     1     -43.157 -53.433  12.864  1.00  0.00     0.084 C 
HETATM   15  C   UNL     1     -44.652 -53.646  12.626  1.00  0.00     0.025 C 
HETATM   16  C   UNL     1     -45.051 -54.751  13.609  1.00  0.00     0.002 C 
HETATM   17  C   UNL     1     -43.841 -54.958  14.522  1.00  0.00     0.002 C 
HETATM   18  C   UNL     1     -43.017 -53.684  14.361  1.00  0.00     0.025 C 
ENDBRANCH  12  14
ENDBRANCH   1  10
TORSDOF 3
ENDMDL
MODEL 5
REMARK VINA RESULT:      -5.0      2.731      5.654
REMARK  3 active torsions:
REMARK  status: ('A' for Active; 'I' for Inactive)
REMARK    1  A    between atoms: N_6  and  C_7 
REMARK    2  A    between atoms: C_7  and  C_8 
REMARK       I    between atoms: C_8  and  N_10 
REMARK    3  A    between atoms: N_10  and  C_11 
ROOT
HETATM    1  C   UNL     1     -41.461 -50.211  11.972  1.00  0.00     0.256 C 
ENDROOT
BRANCH   1   2
HETATM    2  N   UNL     1     -41.442 -48.948  11.276  1.00  0.00    -0.233 N 
HETATM    3  N   UNL     1     -42.516 -48.456  10.566  1.00  0.00    -0.289 N 
HETATM    4  C   UNL     1     -42.156 -47.246  10.276  1.00  0.00     0.204 A 
ATOM      5  HN  UNL     1     -43.386 -48.931  10.326  1.00  0.00     0.188 HD
HETATM    6  N   UNL     1     -40.940 -46.885  10.721  1.00  0.00    -0.298 N 
HETATM    7  C   UNL     1     -40.252 -45.636  10.540  1.00  0.00     0.162 C 
HETATM    8  C   UNL     1     -40.448 -47.971  11.403  1.00  0.00     0.344 A 
HETATM    9  O   UNL     1     -39.394 -48.052  12.002  1.00  0.00    -0.245 OA
ENDBRANCH   1   2
BRANCH   1  10
HETATM   10  C   UNL     1     -42.643 -50.383  12.913  1.00  0.00     0.237 C 
HETATM   11  O   UNL     1     -42.998 -49.459  13.647  1.00  0.00    -0.272 OA
HETATM   12  N   UNL     1     -43.395 -51.536  12.775  1.00  0.00    -0.355 N 
HETATM   13  H   UNL     1     -43.003 -52.292  12.222  1.00  0.00     0.162 HD
BRANCH  12  14
HETATM   14  C   UNL     1     -44.536 -51.752  13.638  1.00  0.00     0.084 C 
HETATM   15  C   UNL     1     -44.751 -53.220  14.007  1.00  0.00     0.025 C 
HETATM   16  C   UNL     1     -46.215 -53.303  14.449  1.00  0.00     0.002 C 
HETATM   17  C   UNL     1     -46.838 -51.950  14.096  1.00  0.00     0.002 C 
HETATM   18  C   UNL     1     -45.889 -51.351  13.062  1.00  0.00     0.025 C 
ENDBRANCH  12  14
ENDBRANCH   1  10
TORSDOF 3
ENDMDL
MODEL 6
REMARK VINA RESULT:      -4.9      3.258      6.944
REMARK  3 active torsions:
REMARK  status: ('A' for Active; 'I' for Inactive)
REMARK    1  A    between atoms: N_6  and  C_7 
REMARK    2  A    between atoms: C_7  and  C_8 
REMARK       I    between atoms: C_8  and  N_10 
REMARK    3  A    between atoms: N_10  and  C_11 
ROOT
HETATM    1  C   UNL     1     -41.802 -46.964  10.314  1.00  0.00     0.256 C 
ENDROOT
BRANCH   1   2
HETATM    2  N   UNL     1     -41.797 -45.644  10.894  1.00  0.00    -0.233 N 
HETATM    3  N   UNL     1     -42.822 -45.155  11.675  1.00  0.00    -0.289 N 
HETATM    4  C   UNL     1     -42.342 -44.045  12.140  1.00  0.00     0.204 A 
ATOM      5  HN  UNL     1     -43.739 -45.567  11.846  1.00  0.00     0.188 HD
HETATM    6  N   UNL     1     -41.094 -43.745  11.739  1.00  0.00    -0.298 N 
HETATM    7  C   UNL     1     -40.305 -42.585  12.053  1.00  0.00     0.162 C 
HETATM    8  C   UNL     1     -40.694 -44.784  10.936  1.00  0.00     0.344 A 
HETATM    9  O   UNL     1     -39.613 -44.932  10.402  1.00  0.00    -0.245 OA
ENDBRANCH   1   2
BRANCH   1  10
HETATM   10  C   UNL     1     -41.194 -48.036  11.206  1.00  0.00     0.237 C 
HETATM   11  O   UNL     1     -41.918 -48.805  11.840  1.00  0.00    -0.272 OA
HETATM   12  N   UNL     1     -39.825 -48.220  11.126  1.00  0.00    -0.355 N 
HETATM   13  H   UNL     1     -39.279 -47.502  10.659  1.00  0.00     0.162 HD
BRANCH  12  14
HETATM   14  C   UNL     1     -39.191 -49.230  11.945  1.00  0.00     0.084 C 
HETATM   15  C   UNL     1     -38.709 -48.703  13.297  1.00  0.00     0.025 C 
HETATM   16  C   UNL     1     -37.658 -49.717  13.760  1.00  0.00     0.002 C 
HETATM   17  C   UNL     1     -37.411 -50.642  12.566  1.00  0.00     0.002 C 
HETATM   18  C   UNL     1     -37.931 -49.860  11.363  1.00  0.00     0.025 C 
ENDBRANCH  12  14
ENDBRANCH   1  10
TORSDOF 3
ENDMDL
MODEL 7
REMARK VINA RESULT:      -4.9      4.363      5.932
REMARK  3 active torsions:
REMARK  status: ('A' for Active; 'I' for Inactive)
REMARK    1  A    between atoms: N_6  and  C_7 
REMARK    2  A    between atoms: C_7  and  C_8 
REMARK       I    between atoms: C_8  and  N_10 
REMARK    3  A    between atoms: N_10  and  C_11 
ROOT
HETATM    1  C   UNL     1     -42.704 -52.772  11.976  1.00  0.00     0.256 C 
ENDROOT
BRANCH   1   2
HETATM    2  N   UNL     1     -43.419 -53.505  12.992  1.00  0.00    -0.233 N 
HETATM    3  N   UNL     1     -42.824 -53.997  14.133  1.00  0.00    -0.289 N 
HETATM    4  C   UNL     1     -43.827 -54.402  14.846  1.00  0.00     0.204 A 
ATOM      5  HN  UNL     1     -41.830 -54.034  14.363  1.00  0.00     0.188 HD
HETATM    6  N   UNL     1     -45.037 -54.230  14.284  1.00  0.00    -0.298 N 
HETATM    7  C   UNL     1     -46.327 -54.598  14.802  1.00  0.00     0.162 C 
HETATM    8  C   UNL     1     -44.810 -53.623  13.074  1.00  0.00     0.344 A 
HETATM    9  O   UNL     1     -45.640 -53.251  12.267  1.00  0.00    -0.245 OA
ENDBRANCH   1   2
BRANCH   1  10
HETATM   10  C   UNL     1     -41.237 -52.531  12.301  1.00  0.00     0.237 C 
HETATM   11  O   UNL     1     -40.477 -53.481  12.499  1.00  0.00    -0.272 OA
HETATM   12  N   UNL     1     -40.771 -51.234  12.182  1.00  0.00    -0.355 N 
HETATM   13  H   UNL     1     -41.458 -50.491  12.105  1.00  0.00     0.162 HD
BRANCH  12  14
HETATM   14  C   UNL     1     -39.383 -50.945  12.471  1.00  0.00     0.084 C 
HETATM   15  C   UNL     1     -39.146 -50.463  13.902  1.00  0.00     0.025 C 
HETATM   16  C   UNL     1     -37.795 -49.744  13.854  1.00  0.00     0.002 C 
HETATM   17  C   UNL     1     -37.428 -49.636  12.372  1.00  0.00     0.002 C 
HETATM   18  C   UNL     1     -38.749 -49.838  11.636  1.00  0.00     0.025 C 
ENDBRANCH  12  14
ENDBRANCH   1  10
TORSDOF 3
ENDMDL
MODEL 8
REMARK VINA RESULT:      -4.8      4.011      5.684
REMARK  3 active torsions:
REMARK  status: ('A' for Active; 'I' for Inactive)
REMARK    1  A    between atoms: N_6  and  C_7 
REMARK    2  A    between atoms: C_7  and  C_8 
REMARK       I    between atoms: C_8  and  N_10 
REMARK    3  A    between atoms: N_10  and  C_11 
ROOT
HETATM    1  C   UNL     1     -43.289 -50.504  13.526  1.00  0.00     0.256 C 
ENDROOT
BRANCH   1   2
HETATM    2  N   UNL     1     -44.347 -51.484  13.502  1.00  0.00    -0.233 N 
HETATM    3  N   UNL     1     -45.237 -51.615  12.458  1.00  0.00    -0.289 N 
HETATM    4  C   UNL     1     -45.874 -52.706  12.741  1.00  0.00     0.204 A 
ATOM      5  HN  UNL     1     -45.363 -50.999  11.654  1.00  0.00     0.188 HD
HETATM    6  N   UNL     1     -45.497 -53.314  13.879  1.00  0.00    -0.298 N 
HETATM    7  C   UNL     1     -46.025 -54.511  14.476  1.00  0.00     0.162 C 
HETATM    8  C   UNL     1     -44.479 -52.551  14.397  1.00  0.00     0.344 A 
HETATM    9  O   UNL     1     -43.825 -52.772  15.397  1.00  0.00    -0.245 OA
ENDBRANCH   1   2
BRANCH   1  10
HETATM   10  C   UNL     1     -42.010 -50.955  12.837  1.00  0.00     0.237 C 
HETATM   11  O   UNL     1     -42.036 -51.860  12.001  1.00  0.00    -0.272 OA
HETATM   12  N   UNL     1     -40.876 -50.193  13.053  1.00  0.00    -0.355 N 
HETATM   13  H   UNL     1     -40.896 -49.522  13.815  1.00  0.00     0.162 HD
BRANCH  12  14
HETATM   14  C   UNL     1     -39.631 -50.568  12.418  1.00  0.00     0.084 C 
HETATM   15  C   UNL     1     -38.612 -51.170  13.385  1.00  0.00     0.025 C 
HETATM   16  C   UNL     1     -37.261 -51.013  12.679  1.00  0.00     0.002 C 
HETATM   17  C   UNL     1     -37.526 -50.128  11.460  1.00  0.00     0.002 C 
HETATM   18  C   UNL     1     -38.848 -49.432  11.771  1.00  0.00     0.025 C 
ENDBRANCH  12  14
ENDBRANCH   1  10
TORSDOF 3
ENDMDL
MODEL 9
REMARK VINA RESULT:      -4.8      3.027      4.179
REMARK  3 active torsions:
REMARK  status: ('A' for Active; 'I' for Inactive)
REMARK    1  A    between atoms: N_6  and  C_7 
REMARK    2  A    between atoms: C_7  and  C_8 
REMARK       I    between atoms: C_8  and  N_10 
REMARK    3  A    between atoms: N_10  and  C_11 
ROOT
HETATM    1  C   UNL     1     -43.435 -47.421  10.793  1.00  0.00     0.256 C 
ENDROOT
BRANCH   1   2
HETATM    2  N   UNL     1     -42.480 -48.461  11.083  1.00  0.00    -0.233 N 
HETATM    3  N   UNL     1     -41.332 -48.663  10.349  1.00  0.00    -0.289 N 
HETATM    4  C   UNL     1     -40.680 -49.541  11.044  1.00  0.00     0.204 A 
ATOM      5  HN  UNL     1     -41.059 -48.227   9.468  1.00  0.00     0.188 HD
HETATM    6  N   UNL     1     -41.289 -49.947  12.172  1.00  0.00    -0.298 N 
HETATM    7  C   UNL     1     -40.843 -50.921  13.132  1.00  0.00     0.162 C 
HETATM    8  C   UNL     1     -42.465 -49.243  12.243  1.00  0.00     0.344 A 
HETATM    9  O   UNL     1     -43.295 -49.277  13.131  1.00  0.00    -0.245 OA
ENDBRANCH   1   2
BRANCH   1  10
HETATM   10  C   UNL     1     -42.806 -46.080  10.444  1.00  0.00     0.237 C 
HETATM   11  O   UNL     1     -42.466 -45.832   9.286  1.00  0.00    -0.272 OA
HETATM   12  N   UNL     1     -42.805 -45.109  11.429  1.00  0.00    -0.355 N 
HETATM   13  H   UNL     1     -43.014 -45.401  12.379  1.00  0.00     0.162 HD
BRANCH  12  14
HETATM   14  C   UNL     1     -42.227 -43.812  11.154  1.00  0.00     0.084 C 
HETATM   15  C   UNL     1     -40.842 -43.618  11.772  1.00  0.00     0.025 C 
HETATM   16  C   UNL     1     -40.645 -42.100  11.823  1.00  0.00     0.002 C 
HETATM   17  C   UNL     1     -41.998 -41.488  11.457  1.00  0.00     0.002 C 
HETATM   18  C   UNL     1     -43.003 -42.614  11.688  1.00  0.00     0.025 C 
ENDBRANCH  12  14
ENDBRANCH   1  10
TORSDOF 3
ENDMDL
