MODEL 1
REMARK VINA RESULT:      -6.0      0.000      0.000
REMARK  3 active torsions:
REMARK  status: ('A' for Active; 'I' for Inactive)
REMARK    1  A    between atoms: C_2  and  C_5 
REMARK    2  A    between atoms: C_10  and  N_11 
REMARK    3  A    between atoms: N_11  and  C_12 
ROOT
HETATM    1  C   UNL     1     -42.525 -47.478   9.945  1.00  0.00     0.090 A 
HETATM    2  N   UNL     1     -41.570 -46.532  10.056  1.00  0.00    -0.355 N 
ATOM      3  HN  UNL     1     -41.582 -45.686   9.485  1.00  0.00     0.166 HD
HETATM    4  C   UNL     1     -40.606 -46.761  10.954  1.00  0.00     0.093 A 
HETATM    5  C   UNL     1     -40.557 -47.890  11.729  1.00  0.00     0.065 A 
HETATM    6  C   UNL     1     -41.528 -48.852  11.517  1.00  0.00     0.103 A 
HETATM    7  N   UNL     1     -42.513 -48.656  10.623  1.00  0.00    -0.332 N 
ATOM      8  HN  UNL     1     -43.226 -49.367  10.459  1.00  0.00     0.168 HD
ENDROOT
BRANCH   6   9
HETATM    9  N   UNL     1     -41.511 -49.952  12.382  1.00  0.00    -0.369 N 
HETATM   10  H   UNL     1     -41.342 -49.681  13.342  1.00  0.00     0.161 HD
BRANCH   9  11
HETATM   11  C   UNL     1     -40.859 -51.203  12.008  1.00  0.00     0.114 C 
HETATM   12  C   UNL     1     -41.897 -52.344  12.123  1.00  0.00     0.059 C 
HETATM   13  C   UNL     1     -41.306 -53.215  13.227  1.00  0.00     0.124 C 
HETATM   14  C   UNL     1     -41.333 -52.494  14.579  1.00  0.00     0.034 C 
HETATM   15  O   UNL     1     -39.906 -53.156  12.879  1.00  0.00    -0.378 OA
HETATM   16  C   UNL     1     -40.135 -51.551  14.459  1.00  0.00     0.036 C 
HETATM   17  C   UNL     1     -39.764 -51.707  12.985  1.00  0.00     0.144 C 
ENDBRANCH   9  11
ENDBRANCH   6   9
BRANCH   1  18
HETATM   18  C   UNL     1     -43.735 -47.141   9.070  1.00  0.00     0.007 C 
HETATM   19  C   UNL     1     -43.896 -45.620   8.843  1.00  0.00     0.022 C 
HETATM   20  C   UNL     1     -45.013 -47.646   9.768  1.00  0.00     0.022 C 
HETATM   21  C   UNL     1     -43.587 -47.814   7.696  1.00  0.00     0.022 C 
ENDBRANCH   1  18
TORSDOF 3
ENDMDL
MODEL 2
REMARK VINA RESULT:      -5.8      1.300      2.009
REMARK  3 active torsions:
REMARK  status: ('A' for Active; 'I' for Inactive)
REMARK    1  A    between atoms: C_2  and  C_5 
REMARK    2  A    between atoms: C_10  and  N_11 
REMARK    3  A    between atoms: N_11  and  C_12 
ROOT
HETATM    1  C   UNL     1     -43.366 -47.405  10.343  1.00  0.00     0.090 A 
HETATM    2  N   UNL     1     -43.476 -46.536  11.368  1.00  0.00    -0.355 N 
ATOM      3  HN  UNL     1     -43.974 -45.651  11.271  1.00  0.00     0.166 HD
HETATM    4  C   UNL     1     -42.896 -46.895  12.518  1.00  0.00     0.093 A 
HETATM    5  C   UNL     1     -42.213 -48.072  12.678  1.00  0.00     0.065 A 
HETATM    6  C   UNL     1     -42.079 -48.887  11.568  1.00  0.00     0.103 A 
HETATM    7  N   UNL     1     -42.648 -48.559  10.395  1.00  0.00    -0.332 N 
ATOM      8  HN  UNL     1     -42.545 -49.154   9.573  1.00  0.00     0.168 HD
ENDROOT
BRANCH   6   9
HETATM    9  N   UNL     1     -41.458 -50.124  11.777  1.00  0.00    -0.369 N 
HETATM   10  H   UNL     1     -41.895 -50.866  11.247  1.00  0.00     0.161 HD
BRANCH   9  11
HETATM   11  C   UNL     1     -41.021 -50.540  13.106  1.00  0.00     0.114 C 
HETATM   12  C   UNL     1     -39.681 -51.299  12.961  1.00  0.00     0.059 C 
HETATM   13  C   UNL     1     -40.044 -52.700  13.440  1.00  0.00     0.124 C 
HETATM   14  C   UNL     1     -41.015 -53.385  12.473  1.00  0.00     0.034 C 
HETATM   15  O   UNL     1     -40.905 -52.376  14.554  1.00  0.00    -0.378 OA
HETATM   16  C   UNL     1     -42.348 -52.736  12.848  1.00  0.00     0.036 C 
HETATM   17  C   UNL     1     -41.896 -51.623  13.791  1.00  0.00     0.144 C 
ENDBRANCH   9  11
ENDBRANCH   6   9
BRANCH   1  18
HETATM   18  C   UNL     1     -44.188 -47.102   9.086  1.00  0.00     0.007 C 
HETATM   19  C   UNL     1     -45.631 -47.651   9.177  1.00  0.00     0.022 C 
HETATM   20  C   UNL     1     -43.511 -47.769   7.873  1.00  0.00     0.022 C 
HETATM   21  C   UNL     1     -44.269 -45.583   8.873  1.00  0.00     0.022 C 
ENDBRANCH   1  18
TORSDOF 3
ENDMDL
MODEL 3
REMARK VINA RESULT:      -5.8      1.685      2.645
REMARK  3 active torsions:
REMARK  status: ('A' for Active; 'I' for Inactive)
REMARK    1  A    between atoms: C_2  and  C_5 
REMARK    2  A    between atoms: C_10  and  N_11 
REMARK    3  A    between atoms: N_11  and  C_12 
ROOT
HETATM    1  C   UNL     1     -41.104 -48.291  10.996  1.00  0.00     0.090 A 
HETATM    2  N   UNL     1     -39.869 -47.868  11.338  1.00  0.00    -0.355 N 
ATOM      3  HN  UNL     1     -39.598 -46.887  11.264  1.00  0.00     0.166 HD
HETATM    4  C   UNL     1     -39.021 -48.802  11.779  1.00  0.00     0.093 A 
HETATM    5  C   UNL     1     -39.352 -50.127  11.882  1.00  0.00     0.065 A 
HETATM    6  C   UNL     1     -40.612 -50.505  11.450  1.00  0.00     0.103 A 
HETATM    7  N   UNL     1     -41.492 -49.594  11.001  1.00  0.00    -0.332 N 
ATOM      8  HN  UNL     1     -42.418 -49.870  10.675  1.00  0.00     0.168 HD
ENDROOT
BRANCH   6   9
HETATM    9  N   UNL     1     -40.960 -51.846  11.650  1.00  0.00    -0.369 N 
HETATM   10  H   UNL     1     -41.762 -52.120  11.096  1.00  0.00     0.161 HD
BRANCH   9  11
HETATM   11  C   UNL     1     -40.945 -52.445  12.981  1.00  0.00     0.114 C 
HETATM   12  C   UNL     1     -41.143 -53.971  12.828  1.00  0.00     0.059 C 
HETATM   13  C   UNL     1     -42.473 -54.202  13.537  1.00  0.00     0.124 C 
HETATM   14  C   UNL     1     -43.632 -53.555  12.772  1.00  0.00     0.034 C 
HETATM   15  O   UNL     1     -42.320 -53.313  14.665  1.00  0.00    -0.378 OA
HETATM   16  C   UNL     1     -43.491 -52.085  13.168  1.00  0.00     0.036 C 
HETATM   17  C   UNL     1     -42.147 -52.086  13.893  1.00  0.00     0.144 C 
ENDBRANCH   9  11
ENDBRANCH   6   9
BRANCH   1  18
HETATM   18  C   UNL     1     -42.143 -47.211  10.680  1.00  0.00     0.007 C 
HETATM   19  C   UNL     1     -42.973 -47.540   9.418  1.00  0.00     0.022 C 
HETATM   20  C   UNL     1     -41.416 -45.876  10.425  1.00  0.00     0.022 C 
HETATM   21  C   UNL     1     -43.114 -47.062  11.863  1.00  0.00     0.022 C 
ENDBRANCH   1  18
TORSDOF 3
ENDMDL
MODEL 4
REMARK VINA RESULT:      -5.7      1.882      2.555
REMARK  3 active torsions:
REMARK  status: ('A' for Active; 'I' for Inactive)
REMARK    1  A    between atoms: C_2  and  C_5 
REMARK    2  A    between atoms: C_10  and  N_11 
REMARK    3  A    between atoms: N_11  and  C_12 
ROOT
HETATM    1  C   UNL     1     -42.422 -46.930   9.895  1.00  0.00     0.090 A 
HETATM    2  N   UNL     1     -42.100 -45.727  10.415  1.00  0.00    -0.355 N 
ATOM      3  HN  UNL     1     -42.645 -44.890  10.208  1.00  0.00     0.166 HD
HETATM    4  C   UNL     1     -41.028 -45.691  11.214  1.00  0.00     0.093 A 
HETATM    5  C   UNL     1     -40.271 -46.795  11.503  1.00  0.00     0.065 A 
HETATM    6  C   UNL     1     -40.615 -47.984  10.883  1.00  0.00     0.103 A 
HETATM    7  N   UNL     1     -41.685 -48.058  10.074  1.00  0.00    -0.332 N 
ATOM      8  HN  UNL     1     -41.936 -48.931   9.610  1.00  0.00     0.168 HD
ENDROOT
BRANCH   6   9
HETATM    9  N   UNL     1     -39.885 -49.116  11.264  1.00  0.00    -0.369 N 
HETATM   10  H   UNL     1     -40.483 -49.866  11.587  1.00  0.00     0.161 HD
BRANCH   9  11
HETATM   11  C   UNL     1     -38.642 -49.000  12.020  1.00  0.00     0.114 C 
HETATM   12  C   UNL     1     -37.729 -50.189  11.636  1.00  0.00     0.059 C 
HETATM   13  C   UNL     1     -37.606 -50.946  12.955  1.00  0.00     0.124 C 
HETATM   14  C   UNL     1     -38.944 -51.567  13.367  1.00  0.00     0.034 C 
HETATM   15  O   UNL     1     -37.488 -49.840  13.876  1.00  0.00    -0.378 OA
HETATM   16  C   UNL     1     -39.689 -50.362  13.943  1.00  0.00     0.036 C 
HETATM   17  C   UNL     1     -38.765 -49.210  13.552  1.00  0.00     0.144 C 
ENDBRANCH   9  11
ENDBRANCH   6   9
BRANCH   1  18
HETATM   18  C   UNL     1     -43.752 -47.026   9.143  1.00  0.00     0.007 C 
HETATM   19  C   UNL     1     -44.839 -47.767   9.956  1.00  0.00     0.022 C 
HETATM   20  C   UNL     1     -43.532 -47.811   7.835  1.00  0.00     0.022 C 
HETATM   21  C   UNL     1     -44.273 -45.615   8.827  1.00  0.00     0.022 C 
ENDBRANCH   1  18
TORSDOF 3
ENDMDL
MODEL 5
REMARK VINA RESULT:      -5.6      2.509      3.459
REMARK  3 active torsions:
REMARK  status: ('A' for Active; 'I' for Inactive)
REMARK    1  A    between atoms: C_2  and  C_5 
REMARK    2  A    between atoms: C_10  and  N_11 
REMARK    3  A    between atoms: N_11  and  C_12 
ROOT
HETATM    1  C   UNL     1     -41.636 -48.969  11.289  1.00  0.00     0.090 A 
HETATM    2  N   UNL     1     -40.324 -49.234  11.126  1.00  0.00    -0.355 N 
ATOM      3  HN  UNL     1     -39.704 -48.591  10.632  1.00  0.00     0.166 HD
HETATM    4  C   UNL     1     -39.879 -50.383  11.645  1.00  0.00     0.093 A 
HETATM    5  C   UNL     1     -40.687 -51.270  12.305  1.00  0.00     0.065 A 
HETATM    6  C   UNL     1     -42.036 -50.971  12.378  1.00  0.00     0.103 A 
HETATM    7  N   UNL     1     -42.520 -49.825  11.868  1.00  0.00    -0.332 N 
ATOM      8  HN  UNL     1     -43.515 -49.605  11.914  1.00  0.00     0.168 HD
ENDROOT
BRANCH   6   9
HETATM    9  N   UNL     1     -42.825 -51.844  13.135  1.00  0.00    -0.369 N 
HETATM   10  H   UNL     1     -42.292 -52.315  13.855  1.00  0.00     0.161 HD
BRANCH   9  11
HETATM   11  C   UNL     1     -43.833 -52.694  12.510  1.00  0.00     0.114 C 
HETATM   12  C   UNL     1     -45.218 -52.299  13.073  1.00  0.00     0.059 C 
HETATM   13  C   UNL     1     -45.651 -53.569  13.799  1.00  0.00     0.124 C 
HETATM   14  C   UNL     1     -44.769 -53.839  15.022  1.00  0.00     0.034 C 
HETATM   15  O   UNL     1     -45.189 -54.569  12.864  1.00  0.00    -0.378 OA
HETATM   16  C   UNL     1     -43.516 -54.439  14.382  1.00  0.00     0.036 C 
HETATM   17  C   UNL     1     -43.778 -54.196  12.897  1.00  0.00     0.144 C 
ENDBRANCH   9  11
ENDBRANCH   6   9
BRANCH   1  18
HETATM   18  C   UNL     1     -42.118 -47.575  10.878  1.00  0.00     0.007 C 
HETATM   19  C   UNL     1     -40.958 -46.559  10.758  1.00  0.00     0.022 C 
HETATM   20  C   UNL     1     -43.092 -47.046  11.950  1.00  0.00     0.022 C 
HETATM   21  C   UNL     1     -42.827 -47.651   9.517  1.00  0.00     0.022 C 
ENDBRANCH   1  18
TORSDOF 3
ENDMDL
MODEL 6
REMARK VINA RESULT:      -5.6      5.105      6.443
REMARK  3 active torsions:
REMARK  status: ('A' for Active; 'I' for Inactive)
REMARK    1  A    between atoms: C_2  and  C_5 
REMARK    2  A    between atoms: C_10  and  N_11 
REMARK    3  A    between atoms: N_11  and  C_12 
ROOT
HETATM    1  C   UNL     1     -45.456 -53.071  14.721  1.00  0.00     0.090 A 
HETATM    2  N   UNL     1     -46.156 -54.093  14.187  1.00  0.00    -0.355 N 
ATOM      3  HN  UNL     1     -47.158 -54.022  14.009  1.00  0.00     0.166 HD
HETATM    4  C   UNL     1     -45.467 -55.203  13.903  1.00  0.00     0.093 A 
HETATM    5  C   UNL     1     -44.123 -55.332  14.138  1.00  0.00     0.065 A 
HETATM    6  C   UNL     1     -43.479 -54.272  14.751  1.00  0.00     0.103 A 
HETATM    7  N   UNL     1     -44.139 -53.140  15.051  1.00  0.00    -0.332 N 
ATOM      8  HN  UNL     1     -43.669 -52.360  15.510  1.00  0.00     0.168 HD
ENDROOT
BRANCH   6   9
HETATM    9  N   UNL     1     -42.092 -54.389  14.898  1.00  0.00    -0.369 N 
HETATM   10  H   UNL     1     -41.765 -54.002  15.774  1.00  0.00     0.161 HD
BRANCH   9  11
HETATM   11  C   UNL     1     -41.186 -54.140  13.781  1.00  0.00     0.114 C 
HETATM   12  C   UNL     1     -39.758 -54.546  14.215  1.00  0.00     0.059 C 
HETATM   13  C   UNL     1     -39.011 -53.217  14.167  1.00  0.00     0.124 C 
HETATM   14  C   UNL     1     -39.515 -52.255  15.247  1.00  0.00     0.034 C 
HETATM   15  O   UNL     1     -39.577 -52.648  12.966  1.00  0.00    -0.378 OA
HETATM   16  C   UNL     1     -40.812 -51.733  14.627  1.00  0.00     0.036 C 
HETATM   17  C   UNL     1     -40.966 -52.648  13.414  1.00  0.00     0.144 C 
ENDBRANCH   9  11
ENDBRANCH   6   9
BRANCH   1  18
HETATM   18  C   UNL     1     -46.186 -51.733  14.867  1.00  0.00     0.007 C 
HETATM   19  C   UNL     1     -47.371 -51.809  15.857  1.00  0.00     0.022 C 
HETATM   20  C   UNL     1     -46.753 -51.321  13.494  1.00  0.00     0.022 C 
HETATM   21  C   UNL     1     -45.209 -50.660  15.374  1.00  0.00     0.022 C 
ENDBRANCH   1  18
TORSDOF 3
ENDMDL
MODEL 7
REMARK VINA RESULT:      -5.5      2.683      4.808
REMARK  3 active torsions:
REMARK  status: ('A' for Active; 'I' for Inactive)
REMARK    1  A    between atoms: C_2  and  C_5 
REMARK    2  A    between atoms: C_10  and  N_11 
REMARK    3  A    between atoms: N_11  and  C_12 
ROOT
HETATM    1  C   UNL     1     -39.770 -49.300  12.192  1.00  0.00     0.090 A 
HETATM    2  N   UNL     1     -39.851 -48.230  11.375  1.00  0.00    -0.355 N 
ATOM      3  HN  UNL     1     -39.025 -47.691  11.113  1.00  0.00     0.166 HD
HETATM    4  C   UNL     1     -41.070 -47.912  10.928  1.00  0.00     0.093 A 
HETATM    5  C   UNL     1     -42.199 -48.610  11.268  1.00  0.00     0.065 A 
HETATM    6  C   UNL     1     -42.056 -49.655  12.163  1.00  0.00     0.103 A 
HETATM    7  N   UNL     1     -40.846 -50.004  12.634  1.00  0.00    -0.332 N 
ATOM      8  HN  UNL     1     -40.739 -50.769  13.300  1.00  0.00     0.168 HD
ENDROOT
BRANCH   6   9
HETATM    9  N   UNL     1     -43.206 -50.410  12.424  1.00  0.00    -0.369 N 
HETATM   10  H   UNL     1     -44.022 -49.828  12.565  1.00  0.00     0.161 HD
BRANCH   9  11
HETATM   11  C   UNL     1     -43.167 -51.576  13.302  1.00  0.00     0.114 C 
HETATM   12  C   UNL     1     -43.330 -52.844  12.431  1.00  0.00     0.059 C 
HETATM   13  C   UNL     1     -44.649 -53.420  12.936  1.00  0.00     0.124 C 
HETATM   14  C   UNL     1     -45.828 -52.512  12.571  1.00  0.00     0.034 C 
HETATM   15  O   UNL     1     -44.509 -53.180  14.353  1.00  0.00    -0.378 OA
HETATM   16  C   UNL     1     -45.719 -51.411  13.627  1.00  0.00     0.036 C 
HETATM   17  C   UNL     1     -44.371 -51.729  14.269  1.00  0.00     0.144 C 
ENDBRANCH   9  11
ENDBRANCH   6   9
BRANCH   1  18
HETATM   18  C   UNL     1     -38.366 -49.794  12.551  1.00  0.00     0.007 C 
HETATM   19  C   UNL     1     -38.381 -51.191  13.213  1.00  0.00     0.022 C 
HETATM   20  C   UNL     1     -37.731 -48.810  13.553  1.00  0.00     0.022 C 
HETATM   21  C   UNL     1     -37.504 -49.878  11.281  1.00  0.00     0.022 C 
ENDBRANCH   1  18
TORSDOF 3
ENDMDL
MODEL 8
REMARK VINA RESULT:      -5.5      3.257      5.627
REMARK  3 active torsions:
REMARK  status: ('A' for Active; 'I' for Inactive)
REMARK    1  A    between atoms: C_2  and  C_5 
REMARK    2  A    between atoms: C_10  and  N_11 
REMARK    3  A    between atoms: N_11  and  C_12 
ROOT
HETATM    1  C   UNL     1     -44.572 -52.632  13.620  1.00  0.00     0.090 A 
HETATM    2  N   UNL     1     -44.164 -53.853  14.023  1.00  0.00    -0.355 N 
ATOM      3  HN  UNL     1     -44.765 -54.465  14.575  1.00  0.00     0.166 HD
HETATM    4  C   UNL     1     -42.930 -54.219  13.660  1.00  0.00     0.093 A 
HETATM    5  C   UNL     1     -42.096 -53.417  12.926  1.00  0.00     0.065 A 
HETATM    6  C   UNL     1     -42.550 -52.150  12.604  1.00  0.00     0.103 A 
HETATM    7  N   UNL     1     -43.785 -51.748  12.951  1.00  0.00    -0.332 N 
ATOM      8  HN  UNL     1     -44.119 -50.813  12.721  1.00  0.00     0.168 HD
ENDROOT
BRANCH   6   9
HETATM    9  N   UNL     1     -41.719 -51.385  11.777  1.00  0.00    -0.369 N 
HETATM   10  H   UNL     1     -40.959 -51.929  11.389  1.00  0.00     0.161 HD
BRANCH   9  11
HETATM   11  C   UNL     1     -41.333 -50.025  12.137  1.00  0.00     0.114 C 
HETATM   12  C   UNL     1     -40.412 -49.471  11.025  1.00  0.00     0.059 C 
HETATM   13  C   UNL     1     -39.095 -49.261  11.765  1.00  0.00     0.124 C 
HETATM   14  C   UNL     1     -38.475 -50.596  12.190  1.00  0.00     0.034 C 
HETATM   15  O   UNL     1     -39.586 -48.741  13.020  1.00  0.00    -0.378 OA
HETATM   16  C   UNL     1     -39.301 -50.948  13.428  1.00  0.00     0.036 C 
HETATM   17  C   UNL     1     -40.406 -49.895  13.375  1.00  0.00     0.144 C 
ENDBRANCH   9  11
ENDBRANCH   6   9
BRANCH   1  18
HETATM   18  C   UNL     1     -46.044 -52.281  13.855  1.00  0.00     0.007 C 
HETATM   19  C   UNL     1     -46.226 -51.183  14.928  1.00  0.00     0.022 C 
HETATM   20  C   UNL     1     -46.786 -53.540  14.346  1.00  0.00     0.022 C 
HETATM   21  C   UNL     1     -46.674 -51.778  12.546  1.00  0.00     0.022 C 
ENDBRANCH   1  18
TORSDOF 3
ENDMDL
MODEL 9
REMARK VINA RESULT:      -5.5      3.539      5.383
REMARK  3 active torsions:
REMARK  status: ('A' for Active; 'I' for Inactive)
REMARK    1  A    between atoms: C_2  and  C_5 
REMARK    2  A    between atoms: C_10  and  N_11 
REMARK    3  A    between atoms: N_11  and  C_12 
ROOT
HETATM    1  C   UNL     1     -43.481 -47.308  10.481  1.00  0.00     0.090 A 
HETATM    2  N   UNL     1     -42.901 -48.525  10.524  1.00  0.00    -0.355 N 
ATOM      3  HN  UNL     1     -43.080 -49.231   9.810  1.00  0.00     0.166 HD
HETATM    4  C   UNL     1     -42.077 -48.756  11.552  1.00  0.00     0.093 A 
HETATM    5  C   UNL     1     -41.822 -47.832  12.530  1.00  0.00     0.065 A 
HETATM    6  C   UNL     1     -42.503 -46.629  12.464  1.00  0.00     0.103 A 
HETATM    7  N   UNL     1     -43.338 -46.361  11.445  1.00  0.00    -0.332 N 
ATOM      8  HN  UNL     1     -43.847 -45.479  11.398  1.00  0.00     0.168 HD
ENDROOT
BRANCH   6   9
HETATM    9  N   UNL     1     -42.159 -45.667  13.421  1.00  0.00    -0.369 N 
HETATM   10  H   UNL     1     -42.911 -45.490  14.074  1.00  0.00     0.161 HD
BRANCH   9  11
HETATM   11  C   UNL     1     -41.413 -44.466  13.057  1.00  0.00     0.114 C 
HETATM   12  C   UNL     1     -40.253 -44.881  12.121  1.00  0.00     0.059 C 
HETATM   13  C   UNL     1     -39.022 -44.513  12.943  1.00  0.00     0.124 C 
HETATM   14  C   UNL     1     -38.893 -45.403  14.183  1.00  0.00     0.034 C 
HETATM   15  O   UNL     1     -39.459 -43.260  13.513  1.00  0.00    -0.378 OA
HETATM   16  C   UNL     1     -39.913 -44.775  15.132  1.00  0.00     0.036 C 
HETATM   17  C   UNL     1     -40.628 -43.788  14.211  1.00  0.00     0.144 C 
ENDBRANCH   9  11
ENDBRANCH   6   9
BRANCH   1  18
HETATM   18  C   UNL     1     -44.266 -46.960   9.212  1.00  0.00     0.007 C 
HETATM   19  C   UNL     1     -45.746 -47.401   9.292  1.00  0.00     0.022 C 
HETATM   20  C   UNL     1     -43.627 -47.687   8.013  1.00  0.00     0.022 C 
HETATM   21  C   UNL     1     -44.234 -45.441   8.983  1.00  0.00     0.022 C 
ENDBRANCH   1  18
TORSDOF 3
ENDMDL
