MODEL 1
REMARK VINA RESULT:      -5.7      0.000      0.000
REMARK  2 active torsions:
REMARK  status: ('A' for Active; 'I' for Inactive)
REMARK    1  A    between atoms: C_5  and  C_7 
REMARK       I    between atoms: C_7  and  N_9 
REMARK    2  A    between atoms: N_9  and  C_10 
ROOT
HETATM    1  C   UNL     1     -41.720 -46.400  10.483  1.00  0.00     0.252 C 
HETATM    2  O   UNL     1     -42.136 -47.066  11.428  1.00  0.00    -0.270 OA
HETATM    3  N   UNL     1     -42.325 -46.347   9.245  1.00  0.00    -0.310 N 
HETATM    4  H   UNL     1     -41.772 -46.063   8.447  1.00  0.00     0.170 HD
ENDROOT
BRANCH   3   5
HETATM    5  C   UNL     1     -43.502 -47.031   8.943  1.00  0.00     0.123 A 
HETATM    6  C   UNL     1     -43.646 -47.827   7.805  1.00  0.00     0.136 A 
HETATM    7  N   UNL     1     -44.813 -48.433   7.471  1.00  0.00    -0.371 N 
HETATM    8  C   UNL     1     -45.840 -48.185   8.308  1.00  0.00     0.104 A 
ATOM      9  HN  UNL     1     -44.907 -49.030   6.649  1.00  0.00     0.164 HD
HETATM   10  C   UNL     1     -45.693 -47.418   9.453  1.00  0.00     0.106 A 
HETATM   11  N   UNL     1     -44.515 -46.857   9.816  1.00  0.00    -0.350 N 
ATOM     12  HN  UNL     1     -44.402 -46.340  10.688  1.00  0.00     0.166 HD
ENDBRANCH   3   5
BRANCH   1  13
HETATM   13  C   UNL     1     -40.426 -45.579  10.559  1.00  0.00     0.214 C 
HETATM   14  C   UNL     1     -39.793 -45.619  11.944  1.00  0.00     0.044 C 
HETATM   15  C   UNL     1     -40.278 -44.352  12.618  1.00  0.00     0.034 C 
HETATM   16  C   UNL     1     -41.126 -43.655  11.568  1.00  0.00     0.118 C 
HETATM   17  C   UNL     1     -40.982 -42.147  11.558  1.00  0.00     0.039 C 
HETATM   18  O   UNL     1     -40.698 -44.199  10.308  1.00  0.00    -0.372 OA
ENDBRANCH   1  13
TORSDOF 2
ENDMDL
MODEL 2
REMARK VINA RESULT:      -5.6      2.840      5.617
REMARK  2 active torsions:
REMARK  status: ('A' for Active; 'I' for Inactive)
REMARK    1  A    between atoms: C_5  and  C_7 
REMARK       I    between atoms: C_7  and  N_9 
REMARK    2  A    between atoms: N_9  and  C_10 
ROOT
HETATM    1  C   UNL     1     -42.620 -47.073   9.933  1.00  0.00     0.252 C 
HETATM    2  O   UNL     1     -42.664 -46.345  10.922  1.00  0.00    -0.270 OA
HETATM    3  N   UNL     1     -41.857 -48.219   9.847  1.00  0.00    -0.310 N 
HETATM    4  H   UNL     1     -41.613 -48.572   8.931  1.00  0.00     0.170 HD
ENDROOT
BRANCH   3   5
HETATM    5  C   UNL     1     -41.070 -48.690  10.898  1.00  0.00     0.123 A 
HETATM    6  C   UNL     1     -41.417 -49.801  11.667  1.00  0.00     0.136 A 
HETATM    7  N   UNL     1     -40.691 -50.216  12.736  1.00  0.00    -0.371 N 
HETATM    8  C   UNL     1     -39.617 -49.453  13.021  1.00  0.00     0.104 A 
ATOM      9  HN  UNL     1     -40.939 -51.041  13.282  1.00  0.00     0.164 HD
HETATM   10  C   UNL     1     -39.253 -48.366  12.242  1.00  0.00     0.106 A 
HETATM   11  N   UNL     1     -39.947 -47.984  11.144  1.00  0.00    -0.350 N 
ATOM     12  HN  UNL     1     -39.643 -47.216  10.545  1.00  0.00     0.166 HD
ENDBRANCH   3   5
BRANCH   1  13
HETATM   13  C   UNL     1     -43.381 -46.756   8.640  1.00  0.00     0.214 C 
HETATM   14  C   UNL     1     -44.396 -45.636   8.822  1.00  0.00     0.044 C 
HETATM   15  C   UNL     1     -45.710 -46.351   9.060  1.00  0.00     0.034 C 
HETATM   16  C   UNL     1     -45.369 -47.828   8.964  1.00  0.00     0.118 C 
HETATM   17  C   UNL     1     -46.432 -48.666   8.284  1.00  0.00     0.039 C 
HETATM   18  O   UNL     1     -44.141 -47.890   8.219  1.00  0.00    -0.372 OA
ENDBRANCH   1  13
TORSDOF 2
ENDMDL
MODEL 3
REMARK VINA RESULT:      -5.3      5.744      7.373
REMARK  2 active torsions:
REMARK  status: ('A' for Active; 'I' for Inactive)
REMARK    1  A    between atoms: C_5  and  C_7 
REMARK       I    between atoms: C_7  and  N_9 
REMARK    2  A    between atoms: N_9  and  C_10 
ROOT
HETATM    1  C   UNL     1     -41.647 -51.549  12.175  1.00  0.00     0.252 C 
HETATM    2  O   UNL     1     -42.502 -50.957  12.830  1.00  0.00    -0.270 OA
HETATM    3  N   UNL     1     -40.756 -50.930  11.323  1.00  0.00    -0.310 N 
HETATM    4  H   UNL     1     -40.324 -51.479  10.591  1.00  0.00     0.170 HD
ENDROOT
BRANCH   3   5
HETATM    5  C   UNL     1     -40.715 -49.548  11.138  1.00  0.00     0.123 A 
HETATM    6  C   UNL     1     -39.637 -48.760  11.546  1.00  0.00     0.136 A 
HETATM    7  N   UNL     1     -39.627 -47.408  11.435  1.00  0.00    -0.371 N 
HETATM    8  C   UNL     1     -40.754 -46.874  10.923  1.00  0.00     0.104 A 
ATOM      9  HN  UNL     1     -38.829 -46.839  11.716  1.00  0.00     0.164 HD
HETATM   10  C   UNL     1     -41.814 -47.656  10.490  1.00  0.00     0.106 A 
HETATM   11  N   UNL     1     -41.803 -49.008  10.552  1.00  0.00    -0.350 N 
ATOM     12  HN  UNL     1     -42.563 -49.578  10.181  1.00  0.00     0.166 HD
ENDBRANCH   3   5
BRANCH   1  13
HETATM   13  C   UNL     1     -41.507 -53.076  12.190  1.00  0.00     0.214 C 
HETATM   14  C   UNL     1     -42.435 -53.736  13.202  1.00  0.00     0.044 C 
HETATM   15  C   UNL     1     -41.568 -53.948  14.426  1.00  0.00     0.034 C 
HETATM   16  C   UNL     1     -40.198 -53.431  14.025  1.00  0.00     0.118 C 
HETATM   17  C   UNL     1     -39.044 -54.251  14.563  1.00  0.00     0.039 C 
HETATM   18  O   UNL     1     -40.187 -53.451  12.587  1.00  0.00    -0.372 OA
ENDBRANCH   1  13
TORSDOF 2
ENDMDL
MODEL 4
REMARK VINA RESULT:      -5.1      8.485      9.967
REMARK  2 active torsions:
REMARK  status: ('A' for Active; 'I' for Inactive)
REMARK    1  A    between atoms: C_5  and  C_7 
REMARK       I    between atoms: C_7  and  N_9 
REMARK    2  A    between atoms: N_9  and  C_10 
ROOT
HETATM    1  C   UNL     1     -44.319 -54.407  14.097  1.00  0.00     0.252 C 
HETATM    2  O   UNL     1     -44.233 -55.291  14.946  1.00  0.00    -0.270 OA
HETATM    3  N   UNL     1     -43.239 -53.726  13.573  1.00  0.00    -0.310 N 
HETATM    4  H   UNL     1     -43.395 -52.821  13.150  1.00  0.00     0.170 HD
ENDROOT
BRANCH   3   5
HETATM    5  C   UNL     1     -41.920 -53.994  13.939  1.00  0.00     0.123 A 
HETATM    6  C   UNL     1     -40.902 -54.203  13.006  1.00  0.00     0.136 A 
HETATM    7  N   UNL     1     -39.635 -54.538  13.358  1.00  0.00    -0.371 N 
HETATM    8  C   UNL     1     -39.436 -54.684  14.683  1.00  0.00     0.104 A 
ATOM      9  HN  UNL     1     -38.891 -54.669  12.673  1.00  0.00     0.164 HD
HETATM   10  C   UNL     1     -40.437 -54.450  15.613  1.00  0.00     0.106 A 
HETATM   11  N   UNL     1     -41.688 -54.064  15.266  1.00  0.00    -0.350 N 
ATOM     12  HN  UNL     1     -42.403 -53.841  15.958  1.00  0.00     0.166 HD
ENDBRANCH   3   5
BRANCH   1  13
HETATM   13  C   UNL     1     -45.665 -53.914  13.552  1.00  0.00     0.214 C 
HETATM   14  C   UNL     1     -45.526 -52.652  12.711  1.00  0.00     0.044 C 
HETATM   15  C   UNL     1     -45.844 -51.523  13.670  1.00  0.00     0.034 C 
HETATM   16  C   UNL     1     -46.178 -52.211  14.981  1.00  0.00     0.118 C 
HETATM   17  C   UNL     1     -47.308 -51.560  15.752  1.00  0.00     0.039 C 
HETATM   18  O   UNL     1     -46.535 -53.558  14.627  1.00  0.00    -0.372 OA
ENDBRANCH   1  13
TORSDOF 2
ENDMDL
MODEL 5
REMARK VINA RESULT:      -5.0      6.315      8.573
REMARK  2 active torsions:
REMARK  status: ('A' for Active; 'I' for Inactive)
REMARK    1  A    between atoms: C_5  and  C_7 
REMARK       I    between atoms: C_7  and  N_9 
REMARK    2  A    between atoms: N_9  and  C_10 
ROOT
HETATM    1  C   UNL     1     -44.288 -51.281  13.114  1.00  0.00     0.252 C 
HETATM    2  O   UNL     1     -44.090 -50.318  13.851  1.00  0.00    -0.270 OA
HETATM    3  N   UNL     1     -43.319 -51.870  12.329  1.00  0.00    -0.310 N 
HETATM    4  H   UNL     1     -43.609 -52.415  11.528  1.00  0.00     0.170 HD
ENDROOT
BRANCH   3   5
HETATM    5  C   UNL     1     -41.991 -51.445  12.313  1.00  0.00     0.123 A 
HETATM    6  C   UNL     1     -40.966 -52.136  12.961  1.00  0.00     0.136 A 
HETATM    7  N   UNL     1     -39.687 -51.685  13.010  1.00  0.00    -0.371 N 
HETATM    8  C   UNL     1     -39.482 -50.497  12.407  1.00  0.00     0.104 A 
ATOM      9  HN  UNL     1     -38.938 -52.205  13.468  1.00  0.00     0.164 HD
HETATM   10  C   UNL     1     -40.491 -49.823  11.738  1.00  0.00     0.106 A 
HETATM   11  N   UNL     1     -41.756 -50.298  11.643  1.00  0.00    -0.350 N 
ATOM     12  HN  UNL     1     -42.479 -49.823  11.104  1.00  0.00     0.166 HD
ENDBRANCH   3   5
BRANCH   1  13
HETATM   13  C   UNL     1     -45.674 -51.915  12.939  1.00  0.00     0.214 C 
HETATM   14  C   UNL     1     -46.526 -51.807  14.196  1.00  0.00     0.044 C 
HETATM   15  C   UNL     1     -46.340 -53.138  14.895  1.00  0.00     0.034 C 
HETATM   16  C   UNL     1     -45.426 -53.931  13.978  1.00  0.00     0.118 C 
HETATM   17  C   UNL     1     -45.767 -55.404  13.886  1.00  0.00     0.039 C 
HETATM   18  O   UNL     1     -45.552 -53.315  12.685  1.00  0.00    -0.372 OA
ENDBRANCH   1  13
TORSDOF 2
ENDMDL
MODEL 6
REMARK VINA RESULT:      -5.0      6.474      8.427
REMARK  2 active torsions:
REMARK  status: ('A' for Active; 'I' for Inactive)
REMARK    1  A    between atoms: C_5  and  C_7 
REMARK       I    between atoms: C_7  and  N_9 
REMARK    2  A    between atoms: N_9  and  C_10 
ROOT
HETATM    1  C   UNL     1     -41.024 -52.762  13.347  1.00  0.00     0.252 C 
HETATM    2  O   UNL     1     -40.486 -53.596  12.623  1.00  0.00    -0.270 OA
HETATM    3  N   UNL     1     -40.603 -51.454  13.469  1.00  0.00    -0.310 N 
HETATM    4  H   UNL     1     -40.865 -50.935  14.297  1.00  0.00     0.170 HD
ENDROOT
BRANCH   3   5
HETATM    5  C   UNL     1     -39.527 -50.930  12.752  1.00  0.00     0.123 A 
HETATM    6  C   UNL     1     -39.688 -50.112  11.632  1.00  0.00     0.136 A 
HETATM    7  N   UNL     1     -38.645 -49.663  10.890  1.00  0.00    -0.371 N 
HETATM    8  C   UNL     1     -37.434 -50.092  11.298  1.00  0.00     0.104 A 
ATOM      9  HN  UNL     1     -38.768 -49.049  10.085  1.00  0.00     0.164 HD
HETATM   10  C   UNL     1     -37.269 -50.880  12.426  1.00  0.00     0.106 A 
HETATM   11  N   UNL     1     -38.305 -51.285  13.198  1.00  0.00    -0.350 N 
ATOM     12  HN  UNL     1     -38.170 -51.819  14.056  1.00  0.00     0.166 HD
ENDBRANCH   3   5
BRANCH   1  13
HETATM   13  C   UNL     1     -42.213 -53.101  14.255  1.00  0.00     0.214 C 
HETATM   14  C   UNL     1     -42.961 -54.344  13.793  1.00  0.00     0.044 C 
HETATM   15  C   UNL     1     -44.123 -53.807  12.982  1.00  0.00     0.034 C 
HETATM   16  C   UNL     1     -43.985 -52.297  13.061  1.00  0.00     0.118 C 
HETATM   17  C   UNL     1     -45.303 -51.560  13.176  1.00  0.00     0.039 C 
HETATM   18  O   UNL     1     -43.177 -52.047  14.224  1.00  0.00    -0.372 OA
ENDBRANCH   1  13
TORSDOF 2
ENDMDL
MODEL 7
REMARK VINA RESULT:      -4.9      7.809      8.588
REMARK  2 active torsions:
REMARK  status: ('A' for Active; 'I' for Inactive)
REMARK    1  A    between atoms: C_5  and  C_7 
REMARK       I    between atoms: C_7  and  N_9 
REMARK    2  A    between atoms: N_9  and  C_10 
ROOT
HETATM    1  C   UNL     1     -41.816 -53.956  14.103  1.00  0.00     0.252 C 
HETATM    2  O   UNL     1     -41.804 -53.908  15.331  1.00  0.00    -0.270 OA
HETATM    3  N   UNL     1     -42.964 -53.987  13.339  1.00  0.00    -0.310 N 
HETATM    4  H   UNL     1     -42.910 -54.352  12.397  1.00  0.00     0.170 HD
ENDROOT
BRANCH   3   5
HETATM    5  C   UNL     1     -44.245 -53.937  13.887  1.00  0.00     0.123 A 
HETATM    6  C   UNL     1     -45.182 -54.958  13.721  1.00  0.00     0.136 A 
HETATM    7  N   UNL     1     -46.452 -54.879  14.190  1.00  0.00    -0.371 N 
HETATM    8  C   UNL     1     -46.756 -53.720  14.809  1.00  0.00     0.104 A 
ATOM      9  HN  UNL     1     -47.126 -55.637  14.083  1.00  0.00     0.164 HD
HETATM   10  C   UNL     1     -45.820 -52.716  15.001  1.00  0.00     0.106 A 
HETATM   11  N   UNL     1     -44.537 -52.816  14.580  1.00  0.00    -0.350 N 
ATOM     12  HN  UNL     1     -43.841 -52.096  14.772  1.00  0.00     0.166 HD
ENDBRANCH   3   5
BRANCH   1  13
HETATM   13  C   UNL     1     -40.532 -54.044  13.268  1.00  0.00     0.214 C 
HETATM   14  C   UNL     1     -39.276 -54.018  14.129  1.00  0.00     0.044 C 
HETATM   15  C   UNL     1     -38.831 -52.570  14.105  1.00  0.00     0.034 C 
HETATM   16  C   UNL     1     -39.837 -51.871  13.207  1.00  0.00     0.118 C 
HETATM   17  C   UNL     1     -39.236 -50.805  12.316  1.00  0.00     0.039 C 
HETATM   18  O   UNL     1     -40.422 -52.911  12.405  1.00  0.00    -0.372 OA
ENDBRANCH   1  13
TORSDOF 2
ENDMDL
MODEL 8
REMARK VINA RESULT:      -4.8      4.858      5.556
REMARK  2 active torsions:
REMARK  status: ('A' for Active; 'I' for Inactive)
REMARK    1  A    between atoms: C_5  and  C_7 
REMARK       I    between atoms: C_7  and  N_9 
REMARK    2  A    between atoms: N_9  and  C_10 
ROOT
HETATM    1  C   UNL     1     -41.812 -49.373  11.908  1.00  0.00     0.252 C 
HETATM    2  O   UNL     1     -42.412 -49.178  12.962  1.00  0.00    -0.270 OA
HETATM    3  N   UNL     1     -41.486 -50.622  11.420  1.00  0.00    -0.310 N 
HETATM    4  H   UNL     1     -40.731 -50.700  10.752  1.00  0.00     0.170 HD
ENDROOT
BRANCH   3   5
HETATM    5  C   UNL     1     -41.836 -51.806  12.067  1.00  0.00     0.123 A 
HETATM    6  C   UNL     1     -40.947 -52.870  12.234  1.00  0.00     0.136 A 
HETATM    7  N   UNL     1     -41.307 -54.052  12.796  1.00  0.00    -0.371 N 
HETATM    8  C   UNL     1     -42.602 -54.135  13.159  1.00  0.00     0.104 A 
ATOM      9  HN  UNL     1     -40.648 -54.818  12.934  1.00  0.00     0.164 HD
HETATM   10  C   UNL     1     -43.480 -53.071  13.022  1.00  0.00     0.106 A 
HETATM   11  N   UNL     1     -43.108 -51.873  12.509  1.00  0.00    -0.350 N 
ATOM     12  HN  UNL     1     -43.746 -51.079  12.461  1.00  0.00     0.166 HD
ENDBRANCH   3   5
BRANCH   1  13
HETATM   13  C   UNL     1     -41.298 -48.228  11.027  1.00  0.00     0.214 C 
HETATM   14  C   UNL     1     -41.614 -46.857  11.611  1.00  0.00     0.044 C 
HETATM   15  C   UNL     1     -42.883 -46.428  10.904  1.00  0.00     0.034 C 
HETATM   16  C   UNL     1     -43.191 -47.560   9.940  1.00  0.00     0.118 C 
HETATM   17  C   UNL     1     -43.736 -47.103   8.602  1.00  0.00     0.039 C 
HETATM   18  O   UNL     1     -41.945 -48.253   9.753  1.00  0.00    -0.372 OA
ENDBRANCH   1  13
TORSDOF 2
ENDMDL
MODEL 9
REMARK VINA RESULT:      -4.7      5.403      6.007
REMARK  2 active torsions:
REMARK  status: ('A' for Active; 'I' for Inactive)
REMARK    1  A    between atoms: C_5  and  C_7 
REMARK       I    between atoms: C_7  and  N_9 
REMARK    2  A    between atoms: N_9  and  C_10 
ROOT
HETATM    1  C   UNL     1     -40.568 -51.064  12.024  1.00  0.00     0.252 C 
HETATM    2  O   UNL     1     -40.044 -52.087  12.459  1.00  0.00    -0.270 OA
HETATM    3  N   UNL     1     -41.925 -50.817  12.048  1.00  0.00    -0.310 N 
HETATM    4  H   UNL     1     -42.306 -50.142  11.398  1.00  0.00     0.170 HD
ENDROOT
BRANCH   3   5
HETATM    5  C   UNL     1     -42.850 -51.702  12.601  1.00  0.00     0.123 A 
HETATM    6  C   UNL     1     -43.536 -51.438  13.788  1.00  0.00     0.136 A 
HETATM    7  N   UNL     1     -44.380 -52.329  14.367  1.00  0.00    -0.371 N 
HETATM    8  C   UNL     1     -44.486 -53.508  13.723  1.00  0.00     0.104 A 
ATOM      9  HN  UNL     1     -44.894 -52.122  15.223  1.00  0.00     0.164 HD
HETATM   10  C   UNL     1     -43.828 -53.763  12.530  1.00  0.00     0.106 A 
HETATM   11  N   UNL     1     -43.028 -52.855  11.924  1.00  0.00    -0.350 N 
ATOM     12  HN  UNL     1     -42.591 -53.030  11.019  1.00  0.00     0.166 HD
ENDBRANCH   3   5
BRANCH   1  13
HETATM   13  C   UNL     1     -39.763 -49.949  11.344  1.00  0.00     0.214 C 
HETATM   14  C   UNL     1     -38.265 -50.088  11.578  1.00  0.00     0.044 C 
HETATM   15  C   UNL     1     -37.978 -49.166  12.746  1.00  0.00     0.034 C 
HETATM   16  C   UNL     1     -39.319 -48.536  13.080  1.00  0.00     0.118 C 
HETATM   17  C   UNL     1     -39.235 -47.077  13.478  1.00  0.00     0.039 C 
HETATM   18  O   UNL     1     -40.115 -48.678  11.891  1.00  0.00    -0.372 OA
ENDBRANCH   1  13
TORSDOF 2
ENDMDL
