MODEL 1
REMARK VINA RESULT:      -7.8      0.000      0.000
REMARK  5 active torsions:
REMARK  status: ('A' for Active; 'I' for Inactive)
REMARK    1  A    between atoms: N_2  and  C_15 
REMARK    2  A    between atoms: C_6  and  N_7 
REMARK    3  A    between atoms: C_15  and  C_16 
REMARK    4  A    between atoms: C_16  and  C_22 
REMARK    5  A    between atoms: C_22  and  O_25 
ROOT
HETATM    1  C   UNL     1     -41.349 -48.829  12.872  1.00  0.00     0.122 A 
HETATM    2  N   UNL     1     -40.575 -46.758  12.681  1.00  0.00    -0.326 N 
HETATM    3  C   UNL     1     -40.348 -48.054  12.291  1.00  0.00     0.140 A 
HETATM    4  N   UNL     1     -42.180 -48.001  13.614  1.00  0.00    -0.346 N 
ATOM      5  HN  UNL     1     -43.000 -48.277  14.153  1.00  0.00     0.167 HD
HETATM    6  C   UNL     1     -41.312 -50.231  12.619  1.00  0.00     0.135 A 
HETATM    7  C   UNL     1     -41.689 -46.781  13.479  1.00  0.00     0.185 A 
HETATM    8  N   UNL     1     -39.325 -48.473  11.523  1.00  0.00    -0.336 N 
ATOM      9  HN  UNL     1     -38.632 -47.858  11.096  1.00  0.00     0.168 HD
HETATM   10  N   UNL     1     -40.239 -50.670  11.885  1.00  0.00    -0.337 N 
ATOM     11  HN  UNL     1     -40.124 -51.669  11.710  1.00  0.00     0.168 HD
HETATM   12  C   UNL     1     -39.338 -49.804  11.393  1.00  0.00     0.183 A 
ENDROOT
BRANCH   6  13
HETATM   13  N   UNL     1     -42.249 -51.209  12.979  1.00  0.00    -0.364 N 
HETATM   14  C   UNL     1     -42.711 -51.349  14.366  1.00  0.00     0.134 C 
HETATM   15  C   UNL     1     -44.121 -52.082  14.408  1.00  0.00    -0.021 C 
HETATM   16  C   UNL     1     -43.914 -53.450  13.656  1.00  0.00    -0.007 C 
HETATM   17  C   UNL     1     -44.539 -52.287  15.888  1.00  0.00     0.011 C 
HETATM   18  C   UNL     1     -45.155 -51.098  13.781  1.00  0.00     0.011 C 
HETATM   19  C   UNL     1     -44.999 -54.527  13.680  1.00  0.00     0.011 C 
HETATM   20  C   UNL     1     -43.496 -53.187  12.206  1.00  0.00     0.025 C 
HETATM   21  C   UNL     1     -42.175 -52.432  12.171  1.00  0.00     0.125 C 
HETATM   22  C   UNL     1     -46.001 -52.694  16.109  1.00  0.00     0.001 C 
HETATM   23  C   UNL     1     -47.023 -51.895  15.304  1.00  0.00     0.000 C 
HETATM   24  C   UNL     1     -46.607 -51.543  13.881  1.00  0.00     0.001 C 
ENDBRANCH   6  13
BRANCH   2  25
HETATM   25  C   UNL     1     -39.793 -45.583  12.272  1.00  0.00     0.143 C 
BRANCH  25  26
HETATM   26  C   UNL     1     -40.122 -44.989  10.855  1.00  0.00     0.001 C 
HETATM   27  C   UNL     1     -40.433 -43.480  10.982  1.00  0.00     0.039 C 
HETATM   28  C   UNL     1     -41.827 -43.239  11.561  1.00  0.00     0.168 C 
HETATM   29  O   UNL     1     -42.801 -43.780  10.681  1.00  0.00    -0.391 OA
HETATM   30  C   UNL     1     -42.731 -45.197  10.605  1.00  0.00     0.168 C 
HETATM   31  C   UNL     1     -41.352 -45.681  10.178  1.00  0.00     0.039 C 
BRANCH  26  32
HETATM   32  C   UNL     1     -38.935 -45.238   9.891  1.00  0.00     0.175 C 
BRANCH  32  33
HETATM   33  O   UNL     1     -39.112 -44.494   8.688  1.00  0.00    -0.400 OA
HETATM   34  H   UNL     1     -39.444 -45.118   8.007  1.00  0.00     0.209 HD
ENDBRANCH  32  33
ENDBRANCH  26  32
ENDBRANCH  25  26
ENDBRANCH   2  25
TORSDOF 5
ENDMDL
MODEL 2
REMARK VINA RESULT:      -7.3      1.644      2.414
REMARK  5 active torsions:
REMARK  status: ('A' for Active; 'I' for Inactive)
REMARK    1  A    between atoms: N_2  and  C_15 
REMARK    2  A    between atoms: C_6  and  N_7 
REMARK    3  A    between atoms: C_15  and  C_16 
REMARK    4  A    between atoms: C_16  and  C_22 
REMARK    5  A    between atoms: C_22  and  O_25 
ROOT
HETATM    1  C   UNL     1     -41.958 -49.257  12.122  1.00  0.00     0.122 A 
HETATM    2  N   UNL     1     -42.222 -47.343  11.031  1.00  0.00    -0.326 N 
HETATM    3  C   UNL     1     -41.282 -48.267  11.412  1.00  0.00     0.140 A 
HETATM    4  N   UNL     1     -43.306 -48.929  12.170  1.00  0.00    -0.346 N 
ATOM      5  HN  UNL     1     -44.051 -49.460  12.620  1.00  0.00     0.167 HD
HETATM    6  C   UNL     1     -41.177 -50.332  12.639  1.00  0.00     0.135 A 
HETATM    7  C   UNL     1     -43.424 -47.788  11.515  1.00  0.00     0.185 A 
HETATM    8  N   UNL     1     -39.961 -48.189  11.165  1.00  0.00    -0.336 N 
ATOM      9  HN  UNL     1     -39.519 -47.454  10.613  1.00  0.00     0.168 HD
HETATM   10  N   UNL     1     -39.823 -50.226  12.439  1.00  0.00    -0.337 N 
ATOM     11  HN  UNL     1     -39.201 -50.936  12.828  1.00  0.00     0.168 HD
HETATM   12  C   UNL     1     -39.306 -49.204  11.740  1.00  0.00     0.183 A 
ENDROOT
BRANCH   6  13
HETATM   13  N   UNL     1     -41.612 -51.500  13.279  1.00  0.00    -0.364 N 
HETATM   14  C   UNL     1     -42.680 -51.464  14.287  1.00  0.00     0.134 C 
HETATM   15  C   UNL     1     -43.361 -52.894  14.421  1.00  0.00    -0.021 C 
HETATM   16  C   UNL     1     -42.192 -53.895  14.755  1.00  0.00    -0.007 C 
HETATM   17  C   UNL     1     -44.425 -52.842  15.550  1.00  0.00     0.011 C 
HETATM   18  C   UNL     1     -44.131 -53.149  13.090  1.00  0.00     0.011 C 
HETATM   19  C   UNL     1     -42.491 -55.336  15.168  1.00  0.00     0.011 C 
HETATM   20  C   UNL     1     -41.171 -53.900  13.613  1.00  0.00     0.025 C 
HETATM   21  C   UNL     1     -40.564 -52.513  13.448  1.00  0.00     0.125 C 
HETATM   22  C   UNL     1     -45.387 -54.036  15.604  1.00  0.00     0.001 C 
HETATM   23  C   UNL     1     -45.964 -54.461  14.256  1.00  0.00     0.000 C 
HETATM   24  C   UNL     1     -44.999 -54.399  13.079  1.00  0.00     0.001 C 
ENDBRANCH   6  13
BRANCH   2  25
HETATM   25  C   UNL     1     -41.974 -46.142  10.221  1.00  0.00     0.143 C 
BRANCH  25  26
HETATM   26  C   UNL     1     -41.941 -44.777  10.997  1.00  0.00     0.001 C 
HETATM   27  C   UNL     1     -40.598 -44.058  10.733  1.00  0.00     0.039 C 
HETATM   28  C   UNL     1     -39.454 -44.695  11.522  1.00  0.00     0.168 C 
HETATM   29  O   UNL     1     -39.714 -44.567  12.912  1.00  0.00    -0.391 OA
HETATM   30  C   UNL     1     -40.842 -45.327  13.322  1.00  0.00     0.168 C 
HETATM   31  C   UNL     1     -42.097 -44.955  12.545  1.00  0.00     0.039 C 
BRANCH  26  32
HETATM   32  C   UNL     1     -43.141 -43.897  10.568  1.00  0.00     0.175 C 
BRANCH  32  33
HETATM   33  O   UNL     1     -43.797 -44.472   9.440  1.00  0.00    -0.400 OA
HETATM   34  H   UNL     1     -43.269 -45.252   9.163  1.00  0.00     0.209 HD
ENDBRANCH  32  33
ENDBRANCH  26  32
ENDBRANCH  25  26
ENDBRANCH   2  25
TORSDOF 5
ENDMDL
MODEL 3
REMARK VINA RESULT:      -7.2      1.922      2.829
REMARK  5 active torsions:
REMARK  status: ('A' for Active; 'I' for Inactive)
REMARK    1  A    between atoms: N_2  and  C_15 
REMARK    2  A    between atoms: C_6  and  N_7 
REMARK    3  A    between atoms: C_15  and  C_16 
REMARK    4  A    between atoms: C_16  and  C_22 
REMARK    5  A    between atoms: C_22  and  O_25 
ROOT
HETATM    1  C   UNL     1     -41.769 -47.423  12.307  1.00  0.00     0.122 A 
HETATM    2  N   UNL     1     -40.935 -45.376  12.118  1.00  0.00    -0.326 N 
HETATM    3  C   UNL     1     -41.726 -46.300  11.484  1.00  0.00     0.140 A 
HETATM    4  N   UNL     1     -41.002 -47.176  13.438  1.00  0.00    -0.346 N 
ATOM      5  HN  UNL     1     -40.841 -47.808  14.222  1.00  0.00     0.167 HD
HETATM    6  C   UNL     1     -42.529 -48.537  11.847  1.00  0.00     0.135 A 
HETATM    7  C   UNL     1     -40.521 -45.954  13.289  1.00  0.00     0.185 A 
HETATM    8  N   UNL     1     -42.308 -46.141  10.281  1.00  0.00    -0.336 N 
ATOM      9  HN  UNL     1     -42.269 -45.284   9.729  1.00  0.00     0.168 HD
HETATM   10  N   UNL     1     -43.076 -48.400  10.595  1.00  0.00    -0.337 N 
ATOM     11  HN  UNL     1     -43.590 -49.179  10.183  1.00  0.00     0.168 HD
HETATM   12  C   UNL     1     -42.944 -47.256   9.905  1.00  0.00     0.183 A 
ENDROOT
BRANCH   6  13
HETATM   13  N   UNL     1     -42.830 -49.729  12.519  1.00  0.00    -0.364 N 
HETATM   14  C   UNL     1     -43.493 -49.718  13.829  1.00  0.00     0.134 C 
HETATM   15  C   UNL     1     -44.218 -51.108  14.093  1.00  0.00    -0.021 C 
HETATM   16  C   UNL     1     -43.100 -52.208  13.945  1.00  0.00    -0.007 C 
HETATM   17  C   UNL     1     -44.836 -51.093  15.517  1.00  0.00     0.011 C 
HETATM   18  C   UNL     1     -45.406 -51.191  13.088  1.00  0.00     0.011 C 
HETATM   19  C   UNL     1     -43.374 -53.659  14.340  1.00  0.00     0.011 C 
HETATM   20  C   UNL     1     -42.522 -52.172  12.527  1.00  0.00     0.025 C 
HETATM   21  C   UNL     1     -41.882 -50.817  12.257  1.00  0.00     0.125 C 
HETATM   22  C   UNL     1     -45.829 -52.223  15.816  1.00  0.00     0.001 C 
HETATM   23  C   UNL     1     -46.858 -52.486  14.719  1.00  0.00     0.000 C 
HETATM   24  C   UNL     1     -46.338 -52.377  13.291  1.00  0.00     0.001 C 
ENDBRANCH   6  13
BRANCH   2  25
HETATM   25  C   UNL     1     -40.639 -44.018  11.638  1.00  0.00     0.143 C 
BRANCH  25  26
HETATM   26  C   UNL     1     -41.505 -42.861  12.255  1.00  0.00     0.001 C 
HETATM   27  C   UNL     1     -40.797 -41.504  12.032  1.00  0.00     0.039 C 
HETATM   28  C   UNL     1     -39.618 -41.321  12.988  1.00  0.00     0.168 C 
HETATM   29  O   UNL     1     -40.095 -41.313  14.325  1.00  0.00    -0.391 OA
HETATM   30  C   UNL     1     -40.625 -42.572  14.716  1.00  0.00     0.168 C 
HETATM   31  C   UNL     1     -41.744 -43.035  13.792  1.00  0.00     0.039 C 
BRANCH  26  32
HETATM   32  C   UNL     1     -42.919 -42.866  11.622  1.00  0.00     0.175 C 
BRANCH  32  33
HETATM   33  O   UNL     1     -42.832 -43.113  10.221  1.00  0.00    -0.400 OA
HETATM   34  H   UNL     1     -42.052 -43.689  10.075  1.00  0.00     0.209 HD
ENDBRANCH  32  33
ENDBRANCH  26  32
ENDBRANCH  25  26
ENDBRANCH   2  25
TORSDOF 5
ENDMDL
MODEL 4
REMARK VINA RESULT:      -6.8      3.493      8.075
REMARK  5 active torsions:
REMARK  status: ('A' for Active; 'I' for Inactive)
REMARK    1  A    between atoms: N_2  and  C_15 
REMARK    2  A    between atoms: C_6  and  N_7 
REMARK    3  A    between atoms: C_15  and  C_16 
REMARK    4  A    between atoms: C_16  and  C_22 
REMARK    5  A    between atoms: C_22  and  O_25 
ROOT
HETATM    1  C   UNL     1     -41.602 -50.131  12.202  1.00  0.00     0.122 A 
HETATM    2  N   UNL     1     -41.751 -52.271  12.769  1.00  0.00    -0.326 N 
HETATM    3  C   UNL     1     -40.862 -51.295  12.397  1.00  0.00     0.140 A 
HETATM    4  N   UNL     1     -42.939 -50.406  12.455  1.00  0.00    -0.346 N 
ATOM      5  HN  UNL     1     -43.722 -49.755  12.397  1.00  0.00     0.167 HD
HETATM    6  C   UNL     1     -40.887 -48.969  11.791  1.00  0.00     0.135 A 
HETATM    7  C   UNL     1     -42.989 -51.684  12.786  1.00  0.00     0.185 A 
HETATM    8  N   UNL     1     -39.537 -51.464  12.226  1.00  0.00    -0.336 N 
ATOM      9  HN  UNL     1     -39.038 -52.334  12.411  1.00  0.00     0.168 HD
HETATM   10  N   UNL     1     -39.547 -49.152  11.559  1.00  0.00    -0.337 N 
ATOM     11  HN  UNL     1     -38.985 -48.373  11.214  1.00  0.00     0.168 HD
HETATM   12  C   UNL     1     -38.964 -50.341  11.781  1.00  0.00     0.183 A 
ENDROOT
BRANCH   6  13
HETATM   13  N   UNL     1     -41.361 -47.659  11.638  1.00  0.00    -0.364 N 
HETATM   14  C   UNL     1     -41.821 -46.876  12.791  1.00  0.00     0.134 C 
HETATM   15  C   UNL     1     -41.751 -45.321  12.468  1.00  0.00    -0.021 C 
HETATM   16  C   UNL     1     -42.612 -45.116  11.165  1.00  0.00    -0.007 C 
HETATM   17  C   UNL     1     -42.322 -44.528  13.674  1.00  0.00     0.011 C 
HETATM   18  C   UNL     1     -40.240 -44.954  12.363  1.00  0.00     0.011 C 
HETATM   19  C   UNL     1     -42.955 -43.712  10.667  1.00  0.00     0.011 C 
HETATM   20  C   UNL     1     -42.008 -45.925  10.012  1.00  0.00     0.025 C 
HETATM   21  C   UNL     1     -42.022 -47.410  10.352  1.00  0.00     0.125 C 
HETATM   22  C   UNL     1     -42.045 -43.019  13.660  1.00  0.00     0.001 C 
HETATM   23  C   UNL     1     -40.611 -42.629  13.311  1.00  0.00     0.000 C 
HETATM   24  C   UNL     1     -39.948 -43.467  12.224  1.00  0.00     0.001 C 
ENDBRANCH   6  13
BRANCH   2  25
HETATM   25  C   UNL     1     -41.414 -53.658  13.122  1.00  0.00     0.143 C 
BRANCH  25  26
HETATM   26  C   UNL     1     -40.880 -53.892  14.581  1.00  0.00     0.001 C 
HETATM   27  C   UNL     1     -41.627 -55.083  15.224  1.00  0.00     0.039 C 
HETATM   28  C   UNL     1     -43.041 -54.694  15.655  1.00  0.00     0.168 C 
HETATM   29  O   UNL     1     -42.969 -53.680  16.645  1.00  0.00    -0.391 OA
HETATM   30  C   UNL     1     -42.450 -52.461  16.132  1.00  0.00     0.168 C 
HETATM   31  C   UNL     1     -41.074 -52.643  15.506  1.00  0.00     0.039 C 
BRANCH  26  32
HETATM   32  C   UNL     1     -39.352 -54.139  14.549  1.00  0.00     0.175 C 
BRANCH  32  33
HETATM   33  O   UNL     1     -38.924 -54.424  13.219  1.00  0.00    -0.400 OA
HETATM   34  H   UNL     1     -39.529 -53.946  12.611  1.00  0.00     0.209 HD
ENDBRANCH  32  33
ENDBRANCH  26  32
ENDBRANCH  25  26
ENDBRANCH   2  25
TORSDOF 5
ENDMDL
MODEL 5
REMARK VINA RESULT:      -6.6      1.712      2.184
REMARK  5 active torsions:
REMARK  status: ('A' for Active; 'I' for Inactive)
REMARK    1  A    between atoms: N_2  and  C_15 
REMARK    2  A    between atoms: C_6  and  N_7 
REMARK    3  A    between atoms: C_15  and  C_16 
REMARK    4  A    between atoms: C_16  and  C_22 
REMARK    5  A    between atoms: C_22  and  O_25 
ROOT
HETATM    1  C   UNL     1     -40.731 -49.354  13.415  1.00  0.00     0.122 A 
HETATM    2  N   UNL     1     -40.097 -47.228  13.403  1.00  0.00    -0.326 N 
HETATM    3  C   UNL     1     -39.939 -48.422  12.747  1.00  0.00     0.140 A 
HETATM    4  N   UNL     1     -41.366 -48.720  14.474  1.00  0.00    -0.346 N 
ATOM      5  HN  UNL     1     -42.010 -49.141  15.144  1.00  0.00     0.167 HD
HETATM    6  C   UNL     1     -40.719 -50.690  12.919  1.00  0.00     0.135 A 
HETATM    7  C   UNL     1     -40.965 -47.462  14.437  1.00  0.00     0.185 A 
HETATM    8  N   UNL     1     -39.137 -48.635  11.687  1.00  0.00    -0.336 N 
ATOM      9  HN  UNL     1     -38.597 -47.909  11.216  1.00  0.00     0.168 HD
HETATM   10  N   UNL     1     -39.859 -50.923  11.874  1.00  0.00    -0.337 N 
ATOM     11  HN  UNL     1     -39.763 -51.869  11.504  1.00  0.00     0.168 HD
HETATM   12  C   UNL     1     -39.143 -49.925  11.333  1.00  0.00     0.183 A 
ENDROOT
BRANCH   6  13
HETATM   13  N   UNL     1     -41.500 -51.780  13.324  1.00  0.00    -0.364 N 
HETATM   14  C   UNL     1     -40.973 -52.796  14.243  1.00  0.00     0.134 C 
HETATM   15  C   UNL     1     -42.165 -53.553  14.973  1.00  0.00    -0.021 C 
HETATM   16  C   UNL     1     -43.071 -54.133  13.823  1.00  0.00    -0.007 C 
HETATM   17  C   UNL     1     -41.576 -54.673  15.872  1.00  0.00     0.011 C 
HETATM   18  C   UNL     1     -42.835 -52.518  15.926  1.00  0.00     0.011 C 
HETATM   19  C   UNL     1     -44.204 -55.110  14.137  1.00  0.00     0.011 C 
HETATM   20  C   UNL     1     -43.617 -52.987  12.965  1.00  0.00     0.025 C 
HETATM   21  C   UNL     1     -42.469 -52.226  12.316  1.00  0.00     0.125 C 
HETATM   22  C   UNL     1     -42.555 -55.292  16.878  1.00  0.00     0.001 C 
HETATM   23  C   UNL     1     -43.407 -54.289  17.652  1.00  0.00     0.000 C 
HETATM   24  C   UNL     1     -43.900 -53.090  16.850  1.00  0.00     0.001 C 
ENDBRANCH   6  13
BRANCH   2  25
HETATM   25  C   UNL     1     -39.483 -45.947  13.025  1.00  0.00     0.143 C 
BRANCH  25  26
HETATM   26  C   UNL     1     -40.261 -45.092  11.961  1.00  0.00     0.001 C 
HETATM   27  C   UNL     1     -39.993 -43.588  12.204  1.00  0.00     0.039 C 
HETATM   28  C   UNL     1     -40.777 -43.063  13.406  1.00  0.00     0.168 C 
HETATM   29  O   UNL     1     -42.168 -43.189  13.152  1.00  0.00    -0.391 OA
HETATM   30  C   UNL     1     -42.581 -44.547  13.074  1.00  0.00     0.168 C 
HETATM   31  C   UNL     1     -41.809 -45.321  12.014  1.00  0.00     0.039 C 
BRANCH  26  32
HETATM   32  C   UNL     1     -39.837 -45.513  10.533  1.00  0.00     0.175 C 
BRANCH  32  33
HETATM   33  O   UNL     1     -40.939 -45.395   9.635  1.00  0.00    -0.400 OA
HETATM   34  H   UNL     1     -40.576 -45.136   8.762  1.00  0.00     0.209 HD
ENDBRANCH  32  33
ENDBRANCH  26  32
ENDBRANCH  25  26
ENDBRANCH   2  25
TORSDOF 5
ENDMDL
MODEL 6
REMARK VINA RESULT:      -6.5      1.578      2.065
REMARK  5 active torsions:
REMARK  status: ('A' for Active; 'I' for Inactive)
REMARK    1  A    between atoms: N_2  and  C_15 
REMARK    2  A    between atoms: C_6  and  N_7 
REMARK    3  A    between atoms: C_15  and  C_16 
REMARK    4  A    between atoms: C_16  and  C_22 
REMARK    5  A    between atoms: C_22  and  O_25 
ROOT
HETATM    1  C   UNL     1     -41.811 -48.087  12.649  1.00  0.00     0.122 A 
HETATM    2  N   UNL     1     -41.457 -45.998  11.990  1.00  0.00    -0.326 N 
HETATM    3  C   UNL     1     -40.824 -47.123  12.453  1.00  0.00     0.140 A 
HETATM    4  N   UNL     1     -43.040 -47.542  12.303  1.00  0.00    -0.346 N 
ATOM      5  HN  UNL     1     -43.949 -48.003  12.339  1.00  0.00     0.167 HD
HETATM    6  C   UNL     1     -41.391 -49.354  13.148  1.00  0.00     0.135 A 
HETATM    7  C   UNL     1     -42.792 -46.302  11.920  1.00  0.00     0.185 A 
HETATM    8  N   UNL     1     -39.506 -47.237  12.699  1.00  0.00    -0.336 N 
ATOM      9  HN  UNL     1     -38.818 -46.506  12.511  1.00  0.00     0.168 HD
HETATM   10  N   UNL     1     -40.057 -49.454  13.454  1.00  0.00    -0.337 N 
ATOM     11  HN  UNL     1     -39.698 -50.317  13.864  1.00  0.00     0.168 HD
HETATM   12  C   UNL     1     -39.217 -48.433  13.222  1.00  0.00     0.183 A 
ENDROOT
BRANCH   6  13
HETATM   13  N   UNL     1     -42.148 -50.520  13.323  1.00  0.00    -0.364 N 
HETATM   14  C   UNL     1     -42.750 -50.852  14.620  1.00  0.00     0.134 C 
HETATM   15  C   UNL     1     -43.975 -51.846  14.424  1.00  0.00    -0.021 C 
HETATM   16  C   UNL     1     -43.397 -53.087  13.645  1.00  0.00    -0.007 C 
HETATM   17  C   UNL     1     -44.532 -52.240  15.818  1.00  0.00     0.011 C 
HETATM   18  C   UNL     1     -45.096 -51.037  13.704  1.00  0.00     0.011 C 
HETATM   19  C   UNL     1     -44.235 -54.352  13.460  1.00  0.00     0.011 C 
HETATM   20  C   UNL     1     -42.856 -52.638  12.283  1.00  0.00     0.025 C 
HETATM   21  C   UNL     1     -41.722 -51.639  12.475  1.00  0.00     0.125 C 
HETATM   22  C   UNL     1     -45.898 -52.939  15.806  1.00  0.00     0.001 C 
HETATM   23  C   UNL     1     -46.946 -52.296  14.903  1.00  0.00     0.000 C 
HETATM   24  C   UNL     1     -46.428 -51.762  13.573  1.00  0.00     0.001 C 
ENDBRANCH   6  13
BRANCH   2  25
HETATM   25  C   UNL     1     -40.806 -44.738  11.604  1.00  0.00     0.143 C 
BRANCH  25  26
HETATM   26  C   UNL     1     -40.807 -43.598  12.685  1.00  0.00     0.001 C 
HETATM   27  C   UNL     1     -42.244 -43.384  13.216  1.00  0.00     0.039 C 
HETATM   28  C   UNL     1     -43.108 -42.622  12.211  1.00  0.00     0.168 C 
HETATM   29  O   UNL     1     -42.558 -41.331  12.001  1.00  0.00    -0.391 OA
HETATM   30  C   UNL     1     -41.293 -41.381  11.356  1.00  0.00     0.168 C 
HETATM   31  C   UNL     1     -40.290 -42.230  12.125  1.00  0.00     0.039 C 
BRANCH  26  32
HETATM   32  C   UNL     1     -39.833 -43.959  13.834  1.00  0.00     0.175 C 
BRANCH  32  33
HETATM   33  O   UNL     1     -38.578 -44.379  13.304  1.00  0.00    -0.400 OA
HETATM   34  H   UNL     1     -38.435 -45.305  13.593  1.00  0.00     0.209 HD
ENDBRANCH  32  33
ENDBRANCH  26  32
ENDBRANCH  25  26
ENDBRANCH   2  25
TORSDOF 5
ENDMDL
MODEL 7
REMARK VINA RESULT:      -6.5      4.615      8.690
REMARK  5 active torsions:
REMARK  status: ('A' for Active; 'I' for Inactive)
REMARK    1  A    between atoms: N_2  and  C_15 
REMARK    2  A    between atoms: C_6  and  N_7 
REMARK    3  A    between atoms: C_15  and  C_16 
REMARK    4  A    between atoms: C_16  and  C_22 
REMARK    5  A    between atoms: C_22  and  O_25 
ROOT
HETATM    1  C   UNL     1     -40.548 -50.514  13.899  1.00  0.00     0.122 A 
HETATM    2  N   UNL     1     -40.347 -52.229  15.291  1.00  0.00    -0.326 N 
HETATM    3  C   UNL     1     -39.625 -51.316  14.565  1.00  0.00     0.140 A 
HETATM    4  N   UNL     1     -41.828 -50.943  14.224  1.00  0.00    -0.346 N 
ATOM      5  HN  UNL     1     -42.710 -50.551  13.893  1.00  0.00     0.167 HD
HETATM    6  C   UNL     1     -40.028 -49.488  13.058  1.00  0.00     0.135 A 
HETATM    7  C   UNL     1     -41.669 -51.962  15.049  1.00  0.00     0.185 A 
HETATM    8  N   UNL     1     -38.282 -51.254  14.497  1.00  0.00    -0.336 N 
ATOM      9  HN  UNL     1     -37.648 -51.851  15.029  1.00  0.00     0.168 HD
HETATM   10  N   UNL     1     -38.661 -49.458  12.941  1.00  0.00    -0.337 N 
ATOM     11  HN  UNL     1     -38.224 -48.781  12.315  1.00  0.00     0.168 HD
HETATM   12  C   UNL     1     -37.890 -50.307  13.639  1.00  0.00     0.183 A 
ENDROOT
BRANCH   6  13
HETATM   13  N   UNL     1     -40.723 -48.480  12.375  1.00  0.00    -0.364 N 
HETATM   14  C   UNL     1     -41.145 -47.250  13.056  1.00  0.00     0.134 C 
HETATM   15  C   UNL     1     -41.370 -46.083  12.001  1.00  0.00    -0.021 C 
HETATM   16  C   UNL     1     -42.418 -46.639  10.965  1.00  0.00    -0.007 C 
HETATM   17  C   UNL     1     -41.895 -44.825  12.743  1.00  0.00     0.011 C 
HETATM   18  C   UNL     1     -39.965 -45.716  11.434  1.00  0.00     0.011 C 
HETATM   19  C   UNL     1     -43.046 -45.719   9.918  1.00  0.00     0.011 C 
HETATM   20  C   UNL     1     -41.851 -47.881  10.269  1.00  0.00     0.025 C 
HETATM   21  C   UNL     1     -41.580 -48.975  11.293  1.00  0.00     0.125 C 
HETATM   22  C   UNL     1     -41.869 -43.523  11.932  1.00  0.00     0.001 C 
HETATM   23  C   UNL     1     -40.576 -43.267  11.162  1.00  0.00     0.000 C 
HETATM   24  C   UNL     1     -39.937 -44.496  10.525  1.00  0.00     0.001 C 
ENDBRANCH   6  13
BRANCH   2  25
HETATM   25  C   UNL     1     -39.792 -53.255  16.186  1.00  0.00     0.143 C 
BRANCH  25  26
HETATM   26  C   UNL     1     -39.659 -54.700  15.586  1.00  0.00     0.001 C 
HETATM   27  C   UNL     1     -40.811 -55.590  16.111  1.00  0.00     0.039 C 
HETATM   28  C   UNL     1     -40.576 -56.018  17.559  1.00  0.00     0.168 C 
HETATM   29  O   UNL     1     -39.395 -56.802  17.633  1.00  0.00    -0.391 OA
HETATM   30  C   UNL     1     -38.228 -56.048  17.334  1.00  0.00     0.168 C 
HETATM   31  C   UNL     1     -38.306 -55.391  15.962  1.00  0.00     0.039 C 
BRANCH  26  32
HETATM   32  C   UNL     1     -39.664 -54.632  14.039  1.00  0.00     0.175 C 
BRANCH  32  33
HETATM   33  O   UNL     1     -38.702 -55.537  13.502  1.00  0.00    -0.400 OA
HETATM   34  H   UNL     1     -37.917 -55.509  14.089  1.00  0.00     0.209 HD
ENDBRANCH  32  33
ENDBRANCH  26  32
ENDBRANCH  25  26
ENDBRANCH   2  25
TORSDOF 5
ENDMDL
MODEL 8
REMARK VINA RESULT:      -6.5      2.248      3.815
REMARK  5 active torsions:
REMARK  status: ('A' for Active; 'I' for Inactive)
REMARK    1  A    between atoms: N_2  and  C_15 
REMARK    2  A    between atoms: C_6  and  N_7 
REMARK    3  A    between atoms: C_15  and  C_16 
REMARK    4  A    between atoms: C_16  and  C_22 
REMARK    5  A    between atoms: C_22  and  O_25 
ROOT
HETATM    1  C   UNL     1     -42.662 -47.830  13.517  1.00  0.00     0.122 A 
HETATM    2  N   UNL     1     -42.578 -45.641  13.866  1.00  0.00    -0.326 N 
HETATM    3  C   UNL     1     -42.915 -46.591  12.935  1.00  0.00     0.140 A 
HETATM    4  N   UNL     1     -42.171 -47.628  14.800  1.00  0.00    -0.346 N 
ATOM      5  HN  UNL     1     -41.895 -48.344  15.472  1.00  0.00     0.167 HD
HETATM    6  C   UNL     1     -42.925 -48.985  12.725  1.00  0.00     0.135 A 
HETATM    7  C   UNL     1     -42.133 -46.319  14.971  1.00  0.00     0.185 A 
HETATM    8  N   UNL     1     -43.367 -46.344  11.691  1.00  0.00    -0.336 N 
ATOM      9  HN  UNL     1     -43.563 -45.413  11.322  1.00  0.00     0.168 HD
HETATM   10  N   UNL     1     -43.331 -48.737  11.437  1.00  0.00    -0.337 N 
ATOM     11  HN  UNL     1     -43.487 -49.518  10.799  1.00  0.00     0.168 HD
HETATM   12  C   UNL     1     -43.524 -47.481  11.004  1.00  0.00     0.183 A 
ENDROOT
BRANCH   6  13
HETATM   13  N   UNL     1     -42.870 -50.334  13.099  1.00  0.00    -0.364 N 
HETATM   14  C   UNL     1     -41.885 -51.250  12.510  1.00  0.00     0.134 C 
HETATM   15  C   UNL     1     -41.645 -52.495  13.468  1.00  0.00    -0.021 C 
HETATM   16  C   UNL     1     -43.065 -53.137  13.698  1.00  0.00    -0.007 C 
HETATM   17  C   UNL     1     -40.664 -53.481  12.779  1.00  0.00     0.011 C 
HETATM   18  C   UNL     1     -40.918 -51.951  14.735  1.00  0.00     0.011 C 
HETATM   19  C   UNL     1     -43.207 -54.489  14.399  1.00  0.00     0.011 C 
HETATM   20  C   UNL     1     -43.990 -52.120  14.373  1.00  0.00     0.025 C 
HETATM   21  C   UNL     1     -44.169 -50.901  13.478  1.00  0.00     0.125 C 
HETATM   22  C   UNL     1     -40.085 -54.575  13.685  1.00  0.00     0.001 C 
HETATM   23  C   UNL     1     -39.590 -54.092  15.046  1.00  0.00     0.000 C 
HETATM   24  C   UNL     1     -40.442 -53.018  15.711  1.00  0.00     0.001 C 
ENDBRANCH   6  13
BRANCH   2  25
HETATM   25  C   UNL     1     -42.719 -44.187  13.706  1.00  0.00     0.143 C 
BRANCH  25  26
HETATM   26  C   UNL     1     -41.392 -43.385  13.450  1.00  0.00     0.001 C 
HETATM   27  C   UNL     1     -41.691 -42.151  12.567  1.00  0.00     0.039 C 
HETATM   28  C   UNL     1     -41.902 -42.542  11.105  1.00  0.00     0.168 C 
HETATM   29  O   UNL     1     -40.711 -43.123  10.597  1.00  0.00    -0.391 OA
HETATM   30  C   UNL     1     -40.410 -44.366  11.216  1.00  0.00     0.168 C 
HETATM   31  C   UNL     1     -40.296 -44.240  12.729  1.00  0.00     0.039 C 
BRANCH  26  32
HETATM   32  C   UNL     1     -40.758 -42.969  14.800  1.00  0.00     0.175 C 
BRANCH  32  33
HETATM   33  O   UNL     1     -39.954 -41.804  14.630  1.00  0.00    -0.400 OA
HETATM   34  H   UNL     1     -39.363 -41.968  13.864  1.00  0.00     0.209 HD
ENDBRANCH  32  33
ENDBRANCH  26  32
ENDBRANCH  25  26
ENDBRANCH   2  25
TORSDOF 5
ENDMDL
MODEL 9
REMARK VINA RESULT:      -6.4      2.995      8.229
REMARK  5 active torsions:
REMARK  status: ('A' for Active; 'I' for Inactive)
REMARK    1  A    between atoms: N_2  and  C_15 
REMARK    2  A    between atoms: C_6  and  N_7 
REMARK    3  A    between atoms: C_15  and  C_16 
REMARK    4  A    between atoms: C_16  and  C_22 
REMARK    5  A    between atoms: C_22  and  O_25 
ROOT
HETATM    1  C   UNL     1     -42.176 -48.450  12.975  1.00  0.00     0.122 A 
HETATM    2  N   UNL     1     -42.834 -50.364  13.884  1.00  0.00    -0.326 N 
HETATM    3  C   UNL     1     -42.110 -49.835  12.846  1.00  0.00     0.140 A 
HETATM    4  N   UNL     1     -42.942 -48.143  14.092  1.00  0.00    -0.346 N 
ATOM      5  HN  UNL     1     -43.169 -47.213  14.444  1.00  0.00     0.167 HD
HETATM    6  C   UNL     1     -41.502 -47.673  11.989  1.00  0.00     0.135 A 
HETATM    7  C   UNL     1     -43.317 -49.302  14.604  1.00  0.00     0.185 A 
HETATM    8  N   UNL     1     -41.494 -50.542  11.880  1.00  0.00    -0.336 N 
ATOM      9  HN  UNL     1     -41.451 -51.561  11.847  1.00  0.00     0.168 HD
HETATM   10  N   UNL     1     -40.921 -48.388  10.971  1.00  0.00    -0.337 N 
ATOM     11  HN  UNL     1     -40.465 -47.892  10.205  1.00  0.00     0.168 HD
HETATM   12  C   UNL     1     -40.945 -49.730  10.969  1.00  0.00     0.183 A 
ENDROOT
BRANCH   6  13
HETATM   13  N   UNL     1     -41.313 -46.285  11.947  1.00  0.00    -0.364 N 
HETATM   14  C   UNL     1     -42.266 -45.407  11.258  1.00  0.00     0.134 C 
HETATM   15  C   UNL     1     -42.162 -43.925  11.824  1.00  0.00    -0.021 C 
HETATM   16  C   UNL     1     -40.654 -43.505  11.647  1.00  0.00    -0.007 C 
HETATM   17  C   UNL     1     -43.121 -43.008  11.018  1.00  0.00     0.011 C 
HETATM   18  C   UNL     1     -42.702 -43.966  13.285  1.00  0.00     0.011 C 
HETATM   19  C   UNL     1     -40.212 -42.061  11.884  1.00  0.00     0.011 C 
HETATM   20  C   UNL     1     -39.756 -44.446  12.457  1.00  0.00     0.025 C 
HETATM   21  C   UNL     1     -39.905 -45.875  11.950  1.00  0.00     0.125 C 
HETATM   22  C   UNL     1     -43.376 -41.624  11.628  1.00  0.00     0.001 C 
HETATM   23  C   UNL     1     -43.665 -41.623  13.127  1.00  0.00     0.000 C 
HETATM   24  C   UNL     1     -42.847 -42.607  13.955  1.00  0.00     0.001 C 
ENDBRANCH   6  13
BRANCH   2  25
HETATM   25  C   UNL     1     -43.008 -51.794  14.177  1.00  0.00     0.143 C 
BRANCH  25  26
HETATM   26  C   UNL     1     -44.394 -52.419  13.785  1.00  0.00     0.001 C 
HETATM   27  C   UNL     1     -45.535 -51.465  14.210  1.00  0.00     0.039 C 
HETATM   28  C   UNL     1     -45.780 -51.517  15.718  1.00  0.00     0.168 C 
HETATM   29  O   UNL     1     -46.191 -52.826  16.082  1.00  0.00    -0.391 OA
HETATM   30  C   UNL     1     -45.160 -53.786  15.897  1.00  0.00     0.168 C 
HETATM   31  C   UNL     1     -44.648 -53.807  14.463  1.00  0.00     0.039 C 
BRANCH  26  32
HETATM   32  C   UNL     1     -44.436 -52.699  12.262  1.00  0.00     0.175 C 
BRANCH  32  33
HETATM   33  O   UNL     1     -43.136 -53.041  11.787  1.00  0.00    -0.400 OA
HETATM   34  H   UNL     1     -42.724 -53.623  12.462  1.00  0.00     0.209 HD
ENDBRANCH  32  33
ENDBRANCH  26  32
ENDBRANCH  25  26
ENDBRANCH   2  25
TORSDOF 5
ENDMDL
