MODEL 1
REMARK VINA RESULT:      -5.7      0.000      0.000
REMARK  8 active torsions:
REMARK  status: ('A' for Active; 'I' for Inactive)
REMARK    1  A    between atoms: C_2  and  C_3 
REMARK    2  A    between atoms: C_6  and  C_7 
REMARK    3  A    between atoms: C_7  and  C_8 
REMARK       I    between atoms: C_8  and  N_10 
REMARK    4  A    between atoms: N_10  and  C_11 
REMARK    5  A    between atoms: C_11  and  C_13 
REMARK    6  A    between atoms: C_11  and  C_15 
REMARK    7  A    between atoms: C_15  and  C_16 
REMARK    8  A    between atoms: C_16  and  O_18 
ROOT
HETATM    1  C   UNL     1     -42.535 -49.028  12.082  1.00  0.00     0.223 C 
HETATM    2  O   UNL     1     -43.033 -48.355  12.982  1.00  0.00    -0.273 OA
HETATM    3  N   UNL     1     -42.400 -50.410  12.125  1.00  0.00    -0.351 N 
HETATM    4  H   UNL     1     -42.244 -50.854  11.225  1.00  0.00     0.163 HD
ENDROOT
BRANCH   1   5
HETATM    5  C   UNL     1     -41.990 -48.368  10.832  1.00  0.00     0.160 C 
BRANCH   5   6
HETATM    6  C   UNL     1     -42.992 -47.469  10.193  1.00  0.00     0.025 A 
HETATM    7  N   UNL     1     -44.305 -47.908  10.072  1.00  0.00    -0.356 N 
HETATM    8  C   UNL     1     -45.020 -47.018   9.413  1.00  0.00     0.050 A 
ATOM      9  HN  UNL     1     -44.664 -48.790  10.440  1.00  0.00     0.166 HD
HETATM   10  S   UNL     1     -44.176 -45.601   8.932  1.00  0.00    -0.087 SA
HETATM   11  C   UNL     1     -42.747 -46.228   9.635  1.00  0.00     0.077 A 
BRANCH   8  12
HETATM   12  C   UNL     1     -46.464 -47.193   9.059  1.00  0.00     0.060 C 
HETATM   13  C   UNL     1     -46.824 -48.656   8.859  1.00  0.00     0.012 C 
ENDBRANCH   8  12
ENDBRANCH   5   6
ENDBRANCH   1   5
BRANCH   3  14
HETATM   14  C   UNL     1     -42.899 -51.264  13.250  1.00  0.00     0.038 C 
HETATM   15  C   UNL     1     -42.197 -50.807  14.550  1.00  0.00     0.039 C 
BRANCH  14  16
HETATM   16  C   UNL     1     -44.442 -51.108  13.369  1.00  0.00     0.026 C 
HETATM   17  C   UNL     1     -45.127 -52.223  14.155  1.00  0.00     0.007 C 
ENDBRANCH  14  16
BRANCH  14  18
HETATM   18  C   UNL     1     -42.489 -52.741  12.968  1.00  0.00     0.140 C 
BRANCH  18  19
HETATM   19  C   UNL     1     -41.151 -52.938  12.274  1.00  0.00     0.141 C 
HETATM   20  O   UNL     1     -40.096 -53.249  12.799  1.00  0.00    -0.650 OA
BRANCH  19  21
HETATM   21  O   UNL     1     -41.225 -52.723  10.939  1.00  0.00    -0.776 OA
HETATM   22  H   UNL     1     -40.417 -52.346  10.546  1.00  0.00     0.167 HD
ENDBRANCH  19  21
ENDBRANCH  18  19
ENDBRANCH  14  18
ENDBRANCH   3  14
TORSDOF 8
ENDMDL
MODEL 2
REMARK VINA RESULT:      -5.5      4.182      5.606
REMARK  8 active torsions:
REMARK  status: ('A' for Active; 'I' for Inactive)
REMARK    1  A    between atoms: C_2  and  C_3 
REMARK    2  A    between atoms: C_6  and  C_7 
REMARK    3  A    between atoms: C_7  and  C_8 
REMARK       I    between atoms: C_8  and  N_10 
REMARK    4  A    between atoms: N_10  and  C_11 
REMARK    5  A    between atoms: C_11  and  C_13 
REMARK    6  A    between atoms: C_11  and  C_15 
REMARK    7  A    between atoms: C_15  and  C_16 
REMARK    8  A    between atoms: C_16  and  O_18 
ROOT
HETATM    1  C   UNL     1     -41.101 -51.308  13.069  1.00  0.00     0.223 C 
HETATM    2  O   UNL     1     -41.679 -50.980  14.103  1.00  0.00    -0.273 OA
HETATM    3  N   UNL     1     -39.895 -50.765  12.643  1.00  0.00    -0.351 N 
HETATM    4  H   UNL     1     -39.400 -51.314  11.947  1.00  0.00     0.163 HD
ENDROOT
BRANCH   1   5
HETATM    5  C   UNL     1     -41.701 -52.345  12.142  1.00  0.00     0.160 C 
BRANCH   5   6
HETATM    6  C   UNL     1     -43.065 -52.760  12.576  1.00  0.00     0.025 A 
HETATM    7  N   UNL     1     -44.085 -51.816  12.572  1.00  0.00    -0.356 N 
HETATM    8  C   UNL     1     -45.190 -52.343  13.062  1.00  0.00     0.050 A 
ATOM      9  HN  UNL     1     -43.993 -50.856  12.240  1.00  0.00     0.166 HD
HETATM   10  S   UNL     1     -45.081 -53.996  13.520  1.00  0.00    -0.087 SA
HETATM   11  C   UNL     1     -43.435 -54.004  13.051  1.00  0.00     0.077 A 
BRANCH   8  12
HETATM   12  C   UNL     1     -46.471 -51.590  13.251  1.00  0.00     0.060 C 
HETATM   13  C   UNL     1     -46.812 -51.417  14.721  1.00  0.00     0.012 C 
ENDBRANCH   8  12
ENDBRANCH   5   6
ENDBRANCH   1   5
BRANCH   3  14
HETATM   14  C   UNL     1     -39.114 -49.751  13.421  1.00  0.00     0.038 C 
HETATM   15  C   UNL     1     -39.905 -48.423  13.411  1.00  0.00     0.039 C 
BRANCH  14  16
HETATM   16  C   UNL     1     -38.911 -50.264  14.875  1.00  0.00     0.026 C 
HETATM   17  C   UNL     1     -37.474 -50.164  15.382  1.00  0.00     0.007 C 
ENDBRANCH  14  16
BRANCH  14  18
HETATM   18  C   UNL     1     -37.754 -49.515  12.699  1.00  0.00     0.140 C 
BRANCH  18  19
HETATM   19  C   UNL     1     -37.342 -50.580  11.694  1.00  0.00     0.141 C 
HETATM   20  O   UNL     1     -36.864 -51.673  11.944  1.00  0.00    -0.650 OA
BRANCH  19  21
HETATM   21  O   UNL     1     -37.559 -50.193  10.415  1.00  0.00    -0.776 OA
HETATM   22  H   UNL     1     -36.788 -49.783   9.981  1.00  0.00     0.167 HD
ENDBRANCH  19  21
ENDBRANCH  18  19
ENDBRANCH  14  18
ENDBRANCH   3  14
TORSDOF 8
ENDMDL
MODEL 3
REMARK VINA RESULT:      -5.4      2.387      2.858
REMARK  8 active torsions:
REMARK  status: ('A' for Active; 'I' for Inactive)
REMARK    1  A    between atoms: C_2  and  C_3 
REMARK    2  A    between atoms: C_6  and  C_7 
REMARK    3  A    between atoms: C_7  and  C_8 
REMARK       I    between atoms: C_8  and  N_10 
REMARK    4  A    between atoms: N_10  and  C_11 
REMARK    5  A    between atoms: C_11  and  C_13 
REMARK    6  A    between atoms: C_11  and  C_15 
REMARK    7  A    between atoms: C_15  and  C_16 
REMARK    8  A    between atoms: C_16  and  O_18 
ROOT
HETATM    1  C   UNL     1     -42.894 -50.419  12.793  1.00  0.00     0.223 C 
HETATM    2  O   UNL     1     -43.448 -49.642  13.568  1.00  0.00    -0.273 OA
HETATM    3  N   UNL     1     -43.254 -51.751  12.633  1.00  0.00    -0.351 N 
HETATM    4  H   UNL     1     -42.919 -52.187  11.781  1.00  0.00     0.163 HD
ENDROOT
BRANCH   1   5
HETATM    5  C   UNL     1     -41.720 -49.966  11.950  1.00  0.00     0.160 C 
BRANCH   5   6
HETATM    6  C   UNL     1     -41.946 -48.618  11.355  1.00  0.00     0.025 A 
HETATM    7  N   UNL     1     -43.084 -48.408  10.585  1.00  0.00    -0.356 N 
HETATM    8  C   UNL     1     -43.070 -47.191  10.081  1.00  0.00     0.050 A 
ATOM      9  HN  UNL     1     -43.822 -49.096  10.433  1.00  0.00     0.166 HD
HETATM   10  S   UNL     1     -41.720 -46.223  10.523  1.00  0.00    -0.087 SA
HETATM   11  C   UNL     1     -41.098 -47.530  11.436  1.00  0.00     0.077 A 
BRANCH   8  12
HETATM   12  C   UNL     1     -44.119 -46.648   9.161  1.00  0.00     0.060 C 
HETATM   13  C   UNL     1     -45.395 -47.470   9.211  1.00  0.00     0.012 C 
ENDBRANCH   8  12
ENDBRANCH   5   6
ENDBRANCH   1   5
BRANCH   3  14
HETATM   14  C   UNL     1     -44.405 -52.396  13.344  1.00  0.00     0.038 C 
HETATM   15  C   UNL     1     -44.117 -52.358  14.862  1.00  0.00     0.039 C 
BRANCH  14  16
HETATM   16  C   UNL     1     -45.714 -51.625  13.008  1.00  0.00     0.026 C 
HETATM   17  C   UNL     1     -46.634 -51.400  14.206  1.00  0.00     0.007 C 
ENDBRANCH  14  16
BRANCH  14  18
HETATM   18  C   UNL     1     -44.486 -53.888  12.899  1.00  0.00     0.140 C 
BRANCH  18  19
HETATM   19  C   UNL     1     -44.966 -54.871  13.956  1.00  0.00     0.141 C 
HETATM   20  O   UNL     1     -44.270 -55.538  14.701  1.00  0.00    -0.650 OA
BRANCH  19  21
HETATM   21  O   UNL     1     -46.316 -54.955  14.005  1.00  0.00    -0.776 OA
HETATM   22  H   UNL     1     -46.782 -54.182  13.638  1.00  0.00     0.167 HD
ENDBRANCH  19  21
ENDBRANCH  18  19
ENDBRANCH  14  18
ENDBRANCH   3  14
TORSDOF 8
ENDMDL
MODEL 4
REMARK VINA RESULT:      -5.3      3.942      5.958
REMARK  8 active torsions:
REMARK  status: ('A' for Active; 'I' for Inactive)
REMARK    1  A    between atoms: C_2  and  C_3 
REMARK    2  A    between atoms: C_6  and  C_7 
REMARK    3  A    between atoms: C_7  and  C_8 
REMARK       I    between atoms: C_8  and  N_10 
REMARK    4  A    between atoms: N_10  and  C_11 
REMARK    5  A    between atoms: C_11  and  C_13 
REMARK    6  A    between atoms: C_11  and  C_15 
REMARK    7  A    between atoms: C_15  and  C_16 
REMARK    8  A    between atoms: C_16  and  O_18 
ROOT
HETATM    1  C   UNL     1     -40.361 -52.548  13.395  1.00  0.00     0.223 C 
HETATM    2  O   UNL     1     -39.920 -52.705  14.531  1.00  0.00    -0.273 OA
HETATM    3  N   UNL     1     -40.278 -51.359  12.682  1.00  0.00    -0.351 N 
HETATM    4  H   UNL     1     -40.418 -51.448  11.681  1.00  0.00     0.163 HD
ENDROOT
BRANCH   1   5
HETATM    5  C   UNL     1     -41.076 -53.676  12.680  1.00  0.00     0.160 C 
BRANCH   5   6
HETATM    6  C   UNL     1     -42.513 -53.762  13.068  1.00  0.00     0.025 A 
HETATM    7  N   UNL     1     -43.453 -53.070  12.313  1.00  0.00    -0.356 N 
HETATM    8  C   UNL     1     -44.648 -53.199  12.853  1.00  0.00     0.050 A 
ATOM      9  HN  UNL     1     -43.248 -52.540  11.466  1.00  0.00     0.166 HD
HETATM   10  S   UNL     1     -44.721 -54.175  14.266  1.00  0.00    -0.087 SA
HETATM   11  C   UNL     1     -43.032 -54.428  14.163  1.00  0.00     0.077 A 
BRANCH   8  12
HETATM   12  C   UNL     1     -45.886 -52.540  12.327  1.00  0.00     0.060 C 
HETATM   13  C   UNL     1     -46.470 -51.556  13.327  1.00  0.00     0.012 C 
ENDBRANCH   8  12
ENDBRANCH   5   6
ENDBRANCH   1   5
BRANCH   3  14
HETATM   14  C   UNL     1     -39.586 -50.129  13.186  1.00  0.00     0.038 C 
HETATM   15  C   UNL     1     -40.196 -49.761  14.559  1.00  0.00     0.039 C 
BRANCH  14  16
HETATM   16  C   UNL     1     -38.062 -50.414  13.315  1.00  0.00     0.026 C 
HETATM   17  C   UNL     1     -37.365 -50.713  11.990  1.00  0.00     0.007 C 
ENDBRANCH  14  16
BRANCH  14  18
HETATM   18  C   UNL     1     -39.871 -48.961  12.196  1.00  0.00     0.140 C 
BRANCH  18  19
HETATM   19  C   UNL     1     -40.959 -49.216  11.164  1.00  0.00     0.141 C 
HETATM   20  O   UNL     1     -42.135 -48.911  11.253  1.00  0.00    -0.650 OA
BRANCH  19  21
HETATM   21  O   UNL     1     -40.488 -49.854  10.067  1.00  0.00    -0.776 OA
HETATM   22  H   UNL     1     -41.064 -49.786   9.283  1.00  0.00     0.167 HD
ENDBRANCH  19  21
ENDBRANCH  18  19
ENDBRANCH  14  18
ENDBRANCH   3  14
TORSDOF 8
ENDMDL
MODEL 5
REMARK VINA RESULT:      -5.3      3.692      5.387
REMARK  8 active torsions:
REMARK  status: ('A' for Active; 'I' for Inactive)
REMARK    1  A    between atoms: C_2  and  C_3 
REMARK    2  A    between atoms: C_6  and  C_7 
REMARK    3  A    between atoms: C_7  and  C_8 
REMARK       I    between atoms: C_8  and  N_10 
REMARK    4  A    between atoms: N_10  and  C_11 
REMARK    5  A    between atoms: C_11  and  C_13 
REMARK    6  A    between atoms: C_11  and  C_15 
REMARK    7  A    between atoms: C_15  and  C_16 
REMARK    8  A    between atoms: C_16  and  O_18 
ROOT
HETATM    1  C   UNL     1     -42.693 -52.505  13.439  1.00  0.00     0.223 C 
HETATM    2  O   UNL     1     -42.080 -52.918  14.420  1.00  0.00    -0.273 OA
HETATM    3  N   UNL     1     -44.040 -52.163  13.447  1.00  0.00    -0.351 N 
HETATM    4  H   UNL     1     -44.339 -51.581  12.672  1.00  0.00     0.163 HD
ENDROOT
BRANCH   1   5
HETATM    5  C   UNL     1     -42.004 -52.363  12.098  1.00  0.00     0.160 C 
BRANCH   5   6
HETATM    6  C   UNL     1     -41.207 -51.107  12.009  1.00  0.00     0.025 A 
HETATM    7  N   UNL     1     -39.820 -51.191  12.022  1.00  0.00    -0.356 N 
HETATM    8  C   UNL     1     -39.294 -49.983  12.019  1.00  0.00     0.050 A 
ATOM      9  HN  UNL     1     -39.286 -52.061  12.033  1.00  0.00     0.166 HD
HETATM   10  S   UNL     1     -40.420 -48.686  11.967  1.00  0.00    -0.087 SA
HETATM   11  C   UNL     1     -41.704 -49.817  11.970  1.00  0.00     0.077 A 
BRANCH   8  12
HETATM   12  C   UNL     1     -37.823 -49.704  12.082  1.00  0.00     0.060 C 
HETATM   13  C   UNL     1     -37.123 -50.071  10.784  1.00  0.00     0.012 C 
ENDBRANCH   8  12
ENDBRANCH   5   6
ENDBRANCH   1   5
BRANCH   3  14
HETATM   14  C   UNL     1     -44.903 -52.197  14.672  1.00  0.00     0.038 C 
HETATM   15  C   UNL     1     -44.176 -51.422  15.795  1.00  0.00     0.039 C 
BRANCH  14  16
HETATM   16  C   UNL     1     -46.278 -51.545  14.350  1.00  0.00     0.026 C 
HETATM   17  C   UNL     1     -47.226 -51.456  15.543  1.00  0.00     0.007 C 
ENDBRANCH  14  16
BRANCH  14  18
HETATM   18  C   UNL     1     -45.060 -53.679  15.124  1.00  0.00     0.140 C 
BRANCH  18  19
HETATM   19  C   UNL     1     -45.695 -54.619  14.111  1.00  0.00     0.141 C 
HETATM   20  O   UNL     1     -45.308 -54.838  12.977  1.00  0.00    -0.650 OA
BRANCH  19  21
HETATM   21  O   UNL     1     -46.799 -55.232  14.599  1.00  0.00    -0.776 OA
HETATM   22  H   UNL     1     -46.958 -56.124  14.238  1.00  0.00     0.167 HD
ENDBRANCH  19  21
ENDBRANCH  18  19
ENDBRANCH  14  18
ENDBRANCH   3  14
TORSDOF 8
ENDMDL
MODEL 6
REMARK VINA RESULT:      -5.2      2.958      6.264
REMARK  8 active torsions:
REMARK  status: ('A' for Active; 'I' for Inactive)
REMARK    1  A    between atoms: C_2  and  C_3 
REMARK    2  A    between atoms: C_6  and  C_7 
REMARK    3  A    between atoms: C_7  and  C_8 
REMARK       I    between atoms: C_8  and  N_10 
REMARK    4  A    between atoms: N_10  and  C_11 
REMARK    5  A    between atoms: C_11  and  C_13 
REMARK    6  A    between atoms: C_11  and  C_15 
REMARK    7  A    between atoms: C_15  and  C_16 
REMARK    8  A    between atoms: C_16  and  O_18 
ROOT
HETATM    1  C   UNL     1     -42.492 -48.525  11.634  1.00  0.00     0.223 C 
HETATM    2  O   UNL     1     -42.846 -47.598  12.360  1.00  0.00    -0.273 OA
HETATM    3  N   UNL     1     -42.689 -48.558  10.259  1.00  0.00    -0.351 N 
HETATM    4  H   UNL     1     -42.108 -49.223   9.759  1.00  0.00     0.163 HD
ENDROOT
BRANCH   1   5
HETATM    5  C   UNL     1     -41.817 -49.750  12.215  1.00  0.00     0.160 C 
BRANCH   5   6
HETATM    6  C   UNL     1     -42.801 -50.802  12.597  1.00  0.00     0.025 A 
HETATM    7  N   UNL     1     -44.097 -50.421  12.923  1.00  0.00    -0.356 N 
HETATM    8  C   UNL     1     -44.793 -51.471  13.309  1.00  0.00     0.050 A 
ATOM      9  HN  UNL     1     -44.457 -49.467  12.871  1.00  0.00     0.166 HD
HETATM   10  S   UNL     1     -43.952 -52.969  13.274  1.00  0.00    -0.087 SA
HETATM   11  C   UNL     1     -42.551 -52.156  12.723  1.00  0.00     0.077 A 
BRANCH   8  12
HETATM   12  C   UNL     1     -46.213 -51.413  13.782  1.00  0.00     0.060 C 
HETATM   13  C   UNL     1     -46.660 -52.732  14.389  1.00  0.00     0.012 C 
ENDBRANCH   8  12
ENDBRANCH   5   6
ENDBRANCH   1   5
BRANCH   3  14
HETATM   14  C   UNL     1     -43.306 -47.439   9.476  1.00  0.00     0.038 C 
HETATM   15  C   UNL     1     -43.279 -47.828   7.980  1.00  0.00     0.039 C 
BRANCH  14  16
HETATM   16  C   UNL     1     -44.765 -47.214   9.964  1.00  0.00     0.026 C 
HETATM   17  C   UNL     1     -45.835 -47.586   8.940  1.00  0.00     0.007 C 
ENDBRANCH  14  16
BRANCH  14  18
HETATM   18  C   UNL     1     -42.431 -46.164   9.665  1.00  0.00     0.140 C 
BRANCH  18  19
HETATM   19  C   UNL     1     -43.169 -44.914  10.119  1.00  0.00     0.141 C 
HETATM   20  O   UNL     1     -43.789 -44.136   9.414  1.00  0.00    -0.650 OA
BRANCH  19  21
HETATM   21  O   UNL     1     -43.075 -44.717  11.455  1.00  0.00    -0.776 OA
HETATM   22  H   UNL     1     -42.972 -43.784  11.719  1.00  0.00     0.167 HD
ENDBRANCH  19  21
ENDBRANCH  18  19
ENDBRANCH  14  18
ENDBRANCH   3  14
TORSDOF 8
ENDMDL
MODEL 7
REMARK VINA RESULT:      -5.1      2.620      3.726
REMARK  8 active torsions:
REMARK  status: ('A' for Active; 'I' for Inactive)
REMARK    1  A    between atoms: C_2  and  C_3 
REMARK    2  A    between atoms: C_6  and  C_7 
REMARK    3  A    between atoms: C_7  and  C_8 
REMARK       I    between atoms: C_8  and  N_10 
REMARK    4  A    between atoms: N_10  and  C_11 
REMARK    5  A    between atoms: C_11  and  C_13 
REMARK    6  A    between atoms: C_11  and  C_15 
REMARK    7  A    between atoms: C_15  and  C_16 
REMARK    8  A    between atoms: C_16  and  O_18 
ROOT
HETATM    1  C   UNL     1     -43.549 -51.040  14.167  1.00  0.00     0.223 C 
HETATM    2  O   UNL     1     -43.851 -49.987  14.726  1.00  0.00    -0.273 OA
HETATM    3  N   UNL     1     -44.297 -52.208  14.248  1.00  0.00    -0.351 N 
HETATM    4  H   UNL     1     -44.098 -52.895  13.528  1.00  0.00     0.163 HD
ENDROOT
BRANCH   1   5
HETATM    5  C   UNL     1     -42.281 -51.145  13.346  1.00  0.00     0.160 C 
BRANCH   5   6
HETATM    6  C   UNL     1     -42.041 -49.922  12.529  1.00  0.00     0.025 A 
HETATM    7  N   UNL     1     -43.131 -49.265  11.970  1.00  0.00    -0.356 N 
HETATM    8  C   UNL     1     -42.718 -48.263  11.221  1.00  0.00     0.050 A 
ATOM      9  HN  UNL     1     -44.107 -49.521  12.119  1.00  0.00     0.166 HD
HETATM   10  S   UNL     1     -41.016 -48.030  11.168  1.00  0.00    -0.087 SA
HETATM   11  C   UNL     1     -40.812 -49.377  12.203  1.00  0.00     0.077 A 
BRANCH   8  12
HETATM   12  C   UNL     1     -43.626 -47.374  10.428  1.00  0.00     0.060 C 
HETATM   13  C   UNL     1     -43.429 -47.555   8.933  1.00  0.00     0.012 C 
ENDBRANCH   8  12
ENDBRANCH   5   6
ENDBRANCH   1   5
BRANCH   3  14
HETATM   14  C   UNL     1     -45.601 -52.317  14.978  1.00  0.00     0.038 C 
HETATM   15  C   UNL     1     -45.374 -51.860  16.438  1.00  0.00     0.039 C 
BRANCH  14  16
HETATM   16  C   UNL     1     -46.660 -51.421  14.276  1.00  0.00     0.026 C 
HETATM   17  C   UNL     1     -46.724 -51.595  12.760  1.00  0.00     0.007 C 
ENDBRANCH  14  16
BRANCH  14  18
HETATM   18  C   UNL     1     -46.033 -53.814  14.997  1.00  0.00     0.140 C 
BRANCH  18  19
HETATM   19  C   UNL     1     -45.135 -54.773  14.231  1.00  0.00     0.141 C 
HETATM   20  O   UNL     1     -44.234 -55.452  14.691  1.00  0.00    -0.650 OA
BRANCH  19  21
HETATM   21  O   UNL     1     -45.432 -54.814  12.911  1.00  0.00    -0.776 OA
HETATM   22  H   UNL     1     -44.794 -55.315  12.369  1.00  0.00     0.167 HD
ENDBRANCH  19  21
ENDBRANCH  18  19
ENDBRANCH  14  18
ENDBRANCH   3  14
TORSDOF 8
ENDMDL
MODEL 8
REMARK VINA RESULT:      -5.1      3.308      6.316
REMARK  8 active torsions:
REMARK  status: ('A' for Active; 'I' for Inactive)
REMARK    1  A    between atoms: C_2  and  C_3 
REMARK    2  A    between atoms: C_6  and  C_7 
REMARK    3  A    between atoms: C_7  and  C_8 
REMARK       I    between atoms: C_8  and  N_10 
REMARK    4  A    between atoms: N_10  and  C_11 
REMARK    5  A    between atoms: C_11  and  C_13 
REMARK    6  A    between atoms: C_11  and  C_15 
REMARK    7  A    between atoms: C_15  and  C_16 
REMARK    8  A    between atoms: C_16  and  O_18 
ROOT
HETATM    1  C   UNL     1     -41.113 -49.764  11.900  1.00  0.00     0.223 C 
HETATM    2  O   UNL     1     -40.647 -49.310  12.943  1.00  0.00    -0.273 OA
HETATM    3  N   UNL     1     -42.040 -49.101  11.106  1.00  0.00    -0.351 N 
HETATM    4  H   UNL     1     -42.119 -49.450  10.157  1.00  0.00     0.163 HD
ENDROOT
BRANCH   1   5
HETATM    5  C   UNL     1     -40.714 -51.140  11.408  1.00  0.00     0.160 C 
BRANCH   5   6
HETATM    6  C   UNL     1     -41.363 -52.226  12.196  1.00  0.00     0.025 A 
HETATM    7  N   UNL     1     -42.680 -52.566  11.910  1.00  0.00    -0.356 N 
HETATM    8  C   UNL     1     -43.104 -53.481  12.757  1.00  0.00     0.050 A 
ATOM      9  HN  UNL     1     -43.236 -52.165  11.154  1.00  0.00     0.166 HD
HETATM   10  S   UNL     1     -41.950 -54.008  13.916  1.00  0.00    -0.087 SA
HETATM   11  C   UNL     1     -40.806 -52.921  13.253  1.00  0.00     0.077 A 
BRANCH   8  12
HETATM   12  C   UNL     1     -44.494 -54.038  12.769  1.00  0.00     0.060 C 
HETATM   13  C   UNL     1     -44.793 -54.783  14.060  1.00  0.00     0.012 C 
ENDBRANCH   8  12
ENDBRANCH   5   6
ENDBRANCH   1   5
BRANCH   3  14
HETATM   14  C   UNL     1     -42.546 -47.719  11.389  1.00  0.00     0.038 C 
HETATM   15  C   UNL     1     -43.109 -47.698  12.829  1.00  0.00     0.039 C 
BRANCH  14  16
HETATM   16  C   UNL     1     -41.379 -46.703  11.235  1.00  0.00     0.026 C 
HETATM   17  C   UNL     1     -41.571 -45.403  12.012  1.00  0.00     0.007 C 
ENDBRANCH  14  16
BRANCH  14  18
HETATM   18  C   UNL     1     -43.714 -47.410  10.405  1.00  0.00     0.140 C 
BRANCH  18  19
HETATM   19  C   UNL     1     -43.306 -47.042   8.986  1.00  0.00     0.141 C 
HETATM   20  O   UNL     1     -43.401 -45.946   8.462  1.00  0.00    -0.650 OA
BRANCH  19  21
HETATM   21  O   UNL     1     -42.800 -48.097   8.305  1.00  0.00    -0.776 OA
HETATM   22  H   UNL     1     -42.831 -48.003   7.336  1.00  0.00     0.167 HD
ENDBRANCH  19  21
ENDBRANCH  18  19
ENDBRANCH  14  18
ENDBRANCH   3  14
TORSDOF 8
ENDMDL
MODEL 9
REMARK VINA RESULT:      -5.0      5.065      6.852
REMARK  8 active torsions:
REMARK  status: ('A' for Active; 'I' for Inactive)
REMARK    1  A    between atoms: C_2  and  C_3 
REMARK    2  A    between atoms: C_6  and  C_7 
REMARK    3  A    between atoms: C_7  and  C_8 
REMARK       I    between atoms: C_8  and  N_10 
REMARK    4  A    between atoms: N_10  and  C_11 
REMARK    5  A    between atoms: C_11  and  C_13 
REMARK    6  A    between atoms: C_11  and  C_15 
REMARK    7  A    between atoms: C_15  and  C_16 
REMARK    8  A    between atoms: C_16  and  O_18 
ROOT
HETATM    1  C   UNL     1     -39.360 -53.319  14.331  1.00  0.00     0.223 C 
HETATM    2  O   UNL     1     -38.454 -53.624  13.558  1.00  0.00    -0.273 OA
HETATM    3  N   UNL     1     -39.902 -52.044  14.432  1.00  0.00    -0.351 N 
HETATM    4  H   UNL     1     -40.809 -51.999  14.886  1.00  0.00     0.163 HD
ENDROOT
BRANCH   1   5
HETATM    5  C   UNL     1     -39.946 -54.343  15.281  1.00  0.00     0.160 C 
BRANCH   5   6
HETATM    6  C   UNL     1     -41.434 -54.273  15.329  1.00  0.00     0.025 A 
HETATM    7  N   UNL     1     -42.155 -54.540  14.172  1.00  0.00    -0.356 N 
HETATM    8  C   UNL     1     -43.441 -54.349  14.388  1.00  0.00     0.050 A 
ATOM      9  HN  UNL     1     -41.749 -54.839  13.285  1.00  0.00     0.166 HD
HETATM   10  S   UNL     1     -43.861 -53.875  15.986  1.00  0.00    -0.087 SA
HETATM   11  C   UNL     1     -42.205 -53.905  16.416  1.00  0.00     0.077 A 
BRANCH   8  12
HETATM   12  C   UNL     1     -44.502 -54.496  13.341  1.00  0.00     0.060 C 
HETATM   13  C   UNL     1     -45.728 -55.217  13.877  1.00  0.00     0.012 C 
ENDBRANCH   8  12
ENDBRANCH   5   6
ENDBRANCH   1   5
BRANCH   3  14
HETATM   14  C   UNL     1     -39.494 -50.891  13.567  1.00  0.00     0.038 C 
HETATM   15  C   UNL     1     -40.182 -49.616  14.107  1.00  0.00     0.039 C 
BRANCH  14  16
HETATM   16  C   UNL     1     -37.946 -50.743  13.605  1.00  0.00     0.026 C 
HETATM   17  C   UNL     1     -37.289 -50.660  12.229  1.00  0.00     0.007 C 
ENDBRANCH  14  16
BRANCH  14  18
HETATM   18  C   UNL     1     -40.013 -51.150  12.121  1.00  0.00     0.140 C 
BRANCH  18  19
HETATM   19  C   UNL     1     -41.165 -52.134  11.996  1.00  0.00     0.141 C 
HETATM   20  O   UNL     1     -42.334 -51.928  12.274  1.00  0.00    -0.650 OA
BRANCH  19  21
HETATM   21  O   UNL     1     -40.766 -53.339  11.524  1.00  0.00    -0.776 OA
HETATM   22  H   UNL     1     -40.512 -53.338  10.582  1.00  0.00     0.167 HD
ENDBRANCH  19  21
ENDBRANCH  18  19
ENDBRANCH  14  18
ENDBRANCH   3  14
TORSDOF 8
ENDMDL
