MODEL 1
REMARK VINA RESULT:      -6.1      0.000      0.000
REMARK  5 active torsions:
REMARK  status: ('A' for Active; 'I' for Inactive)
REMARK    1  A    between atoms: C_2  and  N_3 
REMARK    2  A    between atoms: C_6  and  C_7 
REMARK    3  A    between atoms: C_7  and  N_8 
REMARK       I    between atoms: N_8  and  C_9 
REMARK       I    between atoms: C_9  and  N_11 
REMARK    4  A    between atoms: N_11  and  C_12 
REMARK    5  A    between atoms: C_18  and  O_19 
ROOT
HETATM    1  N   UNL     1     -40.590 -49.721  10.592  1.00  0.00    -0.342 N 
HETATM    2  C   UNL     1     -41.557 -48.747  10.706  1.00  0.00     0.320 C 
HETATM    3  O   UNL     1     -42.017 -48.423  11.795  1.00  0.00    -0.247 OA
HETATM    4  N   UNL     1     -41.927 -48.202   9.488  1.00  0.00    -0.305 N 
HETATM    5  H   UNL     1     -40.482 -50.151   9.688  1.00  0.00     0.164 HD
HETATM    6  H   UNL     1     -41.225 -48.160   8.762  1.00  0.00     0.171 HD
ENDROOT
BRANCH   1   7
HETATM    7  C   UNL     1     -40.184 -50.498  11.765  1.00  0.00     0.129 C 
BRANCH   7   8
HETATM    8  C   UNL     1     -38.704 -50.285  12.133  1.00  0.00     0.007 C 
HETATM    9  C   UNL     1     -38.224 -51.274  13.206  1.00  0.00     0.036 C 
HETATM   10  C   UNL     1     -38.741 -50.912  14.601  1.00  0.00     0.272 C 
HETATM   11  N   UNL     1     -38.395 -49.547  15.019  1.00  0.00     0.088 N 
HETATM   12  C   UNL     1     -38.912 -48.576  14.040  1.00  0.00     0.272 C 
HETATM   13  C   UNL     1     -38.445 -48.838  12.601  1.00  0.00     0.036 C 
BRANCH  11  14
HETATM   14  C   UNL     1     -36.960 -49.338  15.277  1.00  0.00     0.268 C 
HETATM   15  C   UNL     1     -36.608 -47.916  15.706  1.00  0.00     0.037 C 
ENDBRANCH  11  14
ENDBRANCH   7   8
ENDBRANCH   1   7
BRANCH   4  16
HETATM   16  C   UNL     1     -43.053 -47.340   9.323  1.00  0.00     0.087 A 
HETATM   17  C   UNL     1     -44.302 -47.837   8.952  1.00  0.00     0.035 A 
HETATM   18  C   UNL     1     -45.404 -46.994   8.839  1.00  0.00     0.019 A 
HETATM   19  C   UNL     1     -45.215 -45.647   9.067  1.00  0.00     0.090 A 
HETATM   20  N   UNL     1     -44.020 -45.106   9.372  1.00  0.00    -0.345 N 
HETATM   21  C   UNL     1     -42.961 -45.949   9.493  1.00  0.00     0.169 A 
ATOM     22  HN  UNL     1     -43.914 -44.100   9.507  1.00  0.00     0.167 HD
BRANCH  21  23
HETATM   23  O   UNL     1     -41.734 -45.397   9.824  1.00  0.00    -0.339 OA
HETATM   24  C   UNL     1     -41.725 -44.889  11.165  1.00  0.00     0.211 C 
ENDBRANCH  21  23
ENDBRANCH   4  16
TORSDOF 5
ENDMDL
MODEL 2
REMARK VINA RESULT:      -6.0      2.995      4.092
REMARK  5 active torsions:
REMARK  status: ('A' for Active; 'I' for Inactive)
REMARK    1  A    between atoms: C_2  and  N_3 
REMARK    2  A    between atoms: C_6  and  C_7 
REMARK    3  A    between atoms: C_7  and  N_8 
REMARK       I    between atoms: N_8  and  C_9 
REMARK       I    between atoms: C_9  and  N_11 
REMARK    4  A    between atoms: N_11  and  C_12 
REMARK    5  A    between atoms: C_18  and  O_19 
ROOT
HETATM    1  N   UNL     1     -40.598 -50.370  11.154  1.00  0.00    -0.342 N 
HETATM    2  C   UNL     1     -41.395 -49.249  11.212  1.00  0.00     0.320 C 
HETATM    3  O   UNL     1     -41.975 -48.926  12.242  1.00  0.00    -0.247 OA
HETATM    4  N   UNL     1     -41.452 -48.560  10.012  1.00  0.00    -0.305 N 
HETATM    5  H   UNL     1     -40.409 -50.747  10.239  1.00  0.00     0.164 HD
HETATM    6  H   UNL     1     -40.639 -48.593   9.413  1.00  0.00     0.171 HD
ENDROOT
BRANCH   1   7
HETATM    7  C   UNL     1     -40.536 -51.290  12.292  1.00  0.00     0.129 C 
BRANCH   7   8
HETATM    8  C   UNL     1     -41.370 -52.565  12.069  1.00  0.00     0.007 C 
HETATM    9  C   UNL     1     -42.846 -52.367  12.447  1.00  0.00     0.036 C 
HETATM   10  C   UNL     1     -43.059 -52.356  13.963  1.00  0.00     0.272 C 
HETATM   11  N   UNL     1     -42.550 -53.558  14.636  1.00  0.00     0.088 N 
HETATM   12  C   UNL     1     -41.115 -53.726  14.346  1.00  0.00     0.272 C 
HETATM   13  C   UNL     1     -40.786 -53.762  12.847  1.00  0.00     0.036 C 
BRANCH  11  14
HETATM   14  C   UNL     1     -43.305 -54.786  14.336  1.00  0.00     0.268 C 
HETATM   15  C   UNL     1     -44.819 -54.626  14.446  1.00  0.00     0.037 C 
ENDBRANCH  11  14
ENDBRANCH   7   8
ENDBRANCH   1   7
BRANCH   4  16
HETATM   16  C   UNL     1     -42.373 -47.498   9.759  1.00  0.00     0.087 A 
HETATM   17  C   UNL     1     -43.495 -47.685   8.952  1.00  0.00     0.035 A 
HETATM   18  C   UNL     1     -44.411 -46.656   8.750  1.00  0.00     0.019 A 
HETATM   19  C   UNL     1     -44.157 -45.437   9.340  1.00  0.00     0.090 A 
HETATM   20  N   UNL     1     -43.061 -45.185  10.083  1.00  0.00    -0.345 N 
HETATM   21  C   UNL     1     -42.188 -46.208  10.281  1.00  0.00     0.169 A 
ATOM     22  HN  UNL     1     -42.893 -44.261  10.482  1.00  0.00     0.167 HD
BRANCH  21  23
HETATM   23  O   UNL     1     -41.069 -45.957  11.059  1.00  0.00    -0.339 OA
HETATM   24  C   UNL     1     -40.095 -45.178  10.353  1.00  0.00     0.211 C 
ENDBRANCH  21  23
ENDBRANCH   4  16
TORSDOF 5
ENDMDL
MODEL 3
REMARK VINA RESULT:      -5.9      3.261      4.768
REMARK  5 active torsions:
REMARK  status: ('A' for Active; 'I' for Inactive)
REMARK    1  A    between atoms: C_2  and  N_3 
REMARK    2  A    between atoms: C_6  and  C_7 
REMARK    3  A    between atoms: C_7  and  N_8 
REMARK       I    between atoms: N_8  and  C_9 
REMARK       I    between atoms: C_9  and  N_11 
REMARK    4  A    between atoms: N_11  and  C_12 
REMARK    5  A    between atoms: C_18  and  O_19 
ROOT
HETATM    1  N   UNL     1     -40.766 -50.860  11.249  1.00  0.00    -0.342 N 
HETATM    2  C   UNL     1     -40.782 -49.521  11.568  1.00  0.00     0.320 C 
HETATM    3  O   UNL     1     -40.457 -49.122  12.680  1.00  0.00    -0.247 OA
HETATM    4  N   UNL     1     -41.193 -48.717  10.518  1.00  0.00    -0.305 N 
HETATM    5  H   UNL     1     -41.321 -51.147  10.459  1.00  0.00     0.164 HD
HETATM    6  H   UNL     1     -40.984 -49.028   9.579  1.00  0.00     0.171 HD
ENDROOT
BRANCH   1   7
HETATM    7  C   UNL     1     -40.490 -51.861  12.282  1.00  0.00     0.129 C 
BRANCH   7   8
HETATM    8  C   UNL     1     -41.407 -53.093  12.172  1.00  0.00     0.007 C 
HETATM    9  C   UNL     1     -42.885 -52.738  12.395  1.00  0.00     0.036 C 
HETATM   10  C   UNL     1     -43.206 -52.491  13.871  1.00  0.00     0.272 C 
HETATM   11  N   UNL     1     -42.845 -53.613  14.747  1.00  0.00     0.088 N 
HETATM   12  C   UNL     1     -41.412 -53.922  14.603  1.00  0.00     0.272 C 
HETATM   13  C   UNL     1     -40.980 -54.201  13.157  1.00  0.00     0.036 C 
BRANCH  11  14
HETATM   14  C   UNL     1     -43.674 -54.816  14.562  1.00  0.00     0.268 C 
HETATM   15  C   UNL     1     -45.169 -54.528  14.450  1.00  0.00     0.037 C 
ENDBRANCH  11  14
ENDBRANCH   7   8
ENDBRANCH   1   7
BRANCH   4  16
HETATM   16  C   UNL     1     -41.499 -47.330  10.664  1.00  0.00     0.087 A 
HETATM   17  C   UNL     1     -40.493 -46.369  10.766  1.00  0.00     0.035 A 
HETATM   18  C   UNL     1     -40.802 -45.015  10.861  1.00  0.00     0.019 A 
HETATM   19  C   UNL     1     -42.133 -44.655  10.889  1.00  0.00     0.090 A 
HETATM   20  N   UNL     1     -43.144 -45.544  10.850  1.00  0.00    -0.345 N 
HETATM   21  C   UNL     1     -42.820 -46.860  10.742  1.00  0.00     0.169 A 
ATOM     22  HN  UNL     1     -44.117 -45.241  10.901  1.00  0.00     0.167 HD
BRANCH  21  23
HETATM   23  O   UNL     1     -43.859 -47.775  10.684  1.00  0.00    -0.339 OA
HETATM   24  C   UNL     1     -44.785 -47.461   9.637  1.00  0.00     0.211 C 
ENDBRANCH  21  23
ENDBRANCH   4  16
TORSDOF 5
ENDMDL
MODEL 4
REMARK VINA RESULT:      -5.8      4.197      6.877
REMARK  5 active torsions:
REMARK  status: ('A' for Active; 'I' for Inactive)
REMARK    1  A    between atoms: C_2  and  N_3 
REMARK    2  A    between atoms: C_6  and  C_7 
REMARK    3  A    between atoms: C_7  and  N_8 
REMARK       I    between atoms: N_8  and  C_9 
REMARK       I    between atoms: C_9  and  N_11 
REMARK    4  A    between atoms: N_11  and  C_12 
REMARK    5  A    between atoms: C_18  and  O_19 
ROOT
HETATM    1  N   UNL     1     -41.615 -50.737  11.565  1.00  0.00    -0.342 N 
HETATM    2  C   UNL     1     -42.479 -51.311  12.471  1.00  0.00     0.320 C 
HETATM    3  O   UNL     1     -42.722 -50.782  13.549  1.00  0.00    -0.247 OA
HETATM    4  N   UNL     1     -43.016 -52.507  12.027  1.00  0.00    -0.305 N 
HETATM    5  H   UNL     1     -41.223 -51.343  10.862  1.00  0.00     0.164 HD
HETATM    6  H   UNL     1     -43.151 -52.620  11.032  1.00  0.00     0.171 HD
ENDROOT
BRANCH   1   7
HETATM    7  C   UNL     1     -40.851 -49.541  11.929  1.00  0.00     0.129 C 
BRANCH   7   8
HETATM    8  C   UNL     1     -40.993 -48.410  10.894  1.00  0.00     0.007 C 
HETATM    9  C   UNL     1     -40.221 -47.148  11.304  1.00  0.00     0.036 C 
HETATM   10  C   UNL     1     -40.929 -46.371  12.417  1.00  0.00     0.272 C 
HETATM   11  N   UNL     1     -42.312 -46.000  12.087  1.00  0.00     0.088 N 
HETATM   12  C   UNL     1     -43.090 -47.208  11.761  1.00  0.00     0.272 C 
HETATM   13  C   UNL     1     -42.474 -48.060  10.644  1.00  0.00     0.036 C 
BRANCH  11  14
HETATM   14  C   UNL     1     -42.430 -44.984  11.027  1.00  0.00     0.268 C 
HETATM   15  C   UNL     1     -42.587 -43.559  11.550  1.00  0.00     0.037 C 
ENDBRANCH  11  14
ENDBRANCH   7   8
ENDBRANCH   1   7
BRANCH   4  16
HETATM   16  C   UNL     1     -43.761 -53.392  12.864  1.00  0.00     0.087 A 
HETATM   17  C   UNL     1     -43.127 -54.243  13.770  1.00  0.00     0.035 A 
HETATM   18  C   UNL     1     -43.865 -55.068  14.614  1.00  0.00     0.019 A 
HETATM   19  C   UNL     1     -45.239 -55.047  14.503  1.00  0.00     0.090 A 
HETATM   20  N   UNL     1     -45.900 -54.287  13.608  1.00  0.00    -0.345 N 
HETATM   21  C   UNL     1     -45.161 -53.477  12.804  1.00  0.00     0.169 A 
ATOM     22  HN  UNL     1     -46.917 -54.319  13.535  1.00  0.00     0.167 HD
BRANCH  21  23
HETATM   23  O   UNL     1     -45.839 -52.681  11.894  1.00  0.00    -0.339 OA
HETATM   24  C   UNL     1     -46.550 -51.621  12.545  1.00  0.00     0.211 C 
ENDBRANCH  21  23
ENDBRANCH   4  16
TORSDOF 5
ENDMDL
MODEL 5
REMARK VINA RESULT:      -5.8      4.695      6.672
REMARK  5 active torsions:
REMARK  status: ('A' for Active; 'I' for Inactive)
REMARK    1  A    between atoms: C_2  and  N_3 
REMARK    2  A    between atoms: C_6  and  C_7 
REMARK    3  A    between atoms: C_7  and  N_8 
REMARK       I    between atoms: N_8  and  C_9 
REMARK       I    between atoms: C_9  and  N_11 
REMARK    4  A    between atoms: N_11  and  C_12 
REMARK    5  A    between atoms: C_18  and  O_19 
ROOT
HETATM    1  N   UNL     1     -42.119 -53.300  12.118  1.00  0.00    -0.342 N 
HETATM    2  C   UNL     1     -41.458 -52.135  12.433  1.00  0.00     0.320 C 
HETATM    3  O   UNL     1     -41.255 -51.806  13.596  1.00  0.00    -0.247 OA
HETATM    4  N   UNL     1     -41.065 -51.413  11.319  1.00  0.00    -0.305 N 
HETATM    5  H   UNL     1     -42.520 -53.361  11.196  1.00  0.00     0.164 HD
HETATM    6  H   UNL     1     -40.841 -51.931  10.480  1.00  0.00     0.171 HD
ENDROOT
BRANCH   1   7
HETATM    7  C   UNL     1     -42.725 -54.114  13.175  1.00  0.00     0.129 C 
BRANCH   7   8
HETATM    8  C   UNL     1     -44.263 -54.099  13.125  1.00  0.00     0.007 C 
HETATM    9  C   UNL     1     -44.823 -52.691  12.872  1.00  0.00     0.036 C 
HETATM   10  C   UNL     1     -44.742 -51.803  14.117  1.00  0.00     0.272 C 
HETATM   11  N   UNL     1     -45.407 -52.379  15.293  1.00  0.00     0.088 N 
HETATM   12  C   UNL     1     -44.833 -53.701  15.597  1.00  0.00     0.272 C 
HETATM   13  C   UNL     1     -44.873 -54.681  14.417  1.00  0.00     0.036 C 
BRANCH  11  14
HETATM   14  C   UNL     1     -46.875 -52.443  15.188  1.00  0.00     0.268 C 
HETATM   15  C   UNL     1     -47.607 -51.534  16.172  1.00  0.00     0.037 C 
ENDBRANCH  11  14
ENDBRANCH   7   8
ENDBRANCH   1   7
BRANCH   4  16
HETATM   16  C   UNL     1     -40.562 -50.079  11.384  1.00  0.00     0.087 A 
HETATM   17  C   UNL     1     -41.395 -48.976  11.198  1.00  0.00     0.035 A 
HETATM   18  C   UNL     1     -40.902 -47.679  11.310  1.00  0.00     0.019 A 
HETATM   19  C   UNL     1     -39.559 -47.516  11.573  1.00  0.00     0.090 A 
HETATM   20  N   UNL     1     -38.698 -48.545  11.705  1.00  0.00    -0.345 N 
HETATM   21  C   UNL     1     -39.203 -49.803  11.608  1.00  0.00     0.169 A 
ATOM     22  HN  UNL     1     -37.705 -48.385  11.872  1.00  0.00     0.167 HD
BRANCH  21  23
HETATM   23  O   UNL     1     -38.324 -50.863  11.762  1.00  0.00    -0.339 OA
HETATM   24  C   UNL     1     -37.599 -50.776  12.996  1.00  0.00     0.211 C 
ENDBRANCH  21  23
ENDBRANCH   4  16
TORSDOF 5
ENDMDL
MODEL 6
REMARK VINA RESULT:      -5.7      4.445      5.781
REMARK  5 active torsions:
REMARK  status: ('A' for Active; 'I' for Inactive)
REMARK    1  A    between atoms: C_2  and  N_3 
REMARK    2  A    between atoms: C_6  and  C_7 
REMARK    3  A    between atoms: C_7  and  N_8 
REMARK       I    between atoms: N_8  and  C_9 
REMARK       I    between atoms: C_9  and  N_11 
REMARK    4  A    between atoms: N_11  and  C_12 
REMARK    5  A    between atoms: C_18  and  O_19 
ROOT
HETATM    1  N   UNL     1     -42.257 -51.474  11.959  1.00  0.00    -0.342 N 
HETATM    2  C   UNL     1     -41.878 -50.159  12.109  1.00  0.00     0.320 C 
HETATM    3  O   UNL     1     -41.879 -49.612  13.206  1.00  0.00    -0.247 OA
HETATM    4  N   UNL     1     -41.509 -49.559  10.917  1.00  0.00    -0.305 N 
HETATM    5  H   UNL     1     -42.529 -51.766  11.034  1.00  0.00     0.164 HD
HETATM    6  H   UNL     1     -41.092 -50.145  10.207  1.00  0.00     0.171 HD
ENDROOT
BRANCH   1   7
HETATM    7  C   UNL     1     -42.808 -52.217  13.094  1.00  0.00     0.129 C 
BRANCH   7   8
HETATM    8  C   UNL     1     -44.347 -52.259  13.082  1.00  0.00     0.007 C 
HETATM    9  C   UNL     1     -44.967 -51.060  13.815  1.00  0.00     0.036 C 
HETATM   10  C   UNL     1     -44.863 -51.195  15.337  1.00  0.00     0.272 C 
HETATM   11  N   UNL     1     -45.454 -52.433  15.859  1.00  0.00     0.088 N 
HETATM   12  C   UNL     1     -44.820 -53.600  15.221  1.00  0.00     0.272 C 
HETATM   13  C   UNL     1     -44.878 -53.575  13.688  1.00  0.00     0.036 C 
BRANCH  11  14
HETATM   14  C   UNL     1     -46.922 -52.495  15.753  1.00  0.00     0.268 C 
HETATM   15  C   UNL     1     -47.641 -51.329  16.425  1.00  0.00     0.037 C 
ENDBRANCH  11  14
ENDBRANCH   7   8
ENDBRANCH   1   7
BRANCH   4  16
HETATM   16  C   UNL     1     -41.288 -48.155  10.779  1.00  0.00     0.087 A 
HETATM   17  C   UNL     1     -40.170 -47.536  11.338  1.00  0.00     0.035 A 
HETATM   18  C   UNL     1     -39.940 -46.175  11.158  1.00  0.00     0.019 A 
HETATM   19  C   UNL     1     -40.869 -45.450  10.442  1.00  0.00     0.090 A 
HETATM   20  N   UNL     1     -41.994 -45.985   9.929  1.00  0.00    -0.345 N 
HETATM   21  C   UNL     1     -42.191 -47.319  10.103  1.00  0.00     0.169 A 
ATOM     22  HN  UNL     1     -42.672 -45.411   9.429  1.00  0.00     0.167 HD
BRANCH  21  23
HETATM   23  O   UNL     1     -43.338 -47.876   9.560  1.00  0.00    -0.339 OA
HETATM   24  C   UNL     1     -43.467 -47.572   8.166  1.00  0.00     0.211 C 
ENDBRANCH  21  23
ENDBRANCH   4  16
TORSDOF 5
ENDMDL
MODEL 7
REMARK VINA RESULT:      -5.7      4.835      6.808
REMARK  5 active torsions:
REMARK  status: ('A' for Active; 'I' for Inactive)
REMARK    1  A    between atoms: C_2  and  N_3 
REMARK    2  A    between atoms: C_6  and  C_7 
REMARK    3  A    between atoms: C_7  and  N_8 
REMARK       I    between atoms: N_8  and  C_9 
REMARK       I    between atoms: C_9  and  N_11 
REMARK    4  A    between atoms: N_11  and  C_12 
REMARK    5  A    between atoms: C_18  and  O_19 
ROOT
HETATM    1  N   UNL     1     -43.072 -53.005  11.879  1.00  0.00    -0.342 N 
HETATM    2  C   UNL     1     -42.025 -52.246  12.351  1.00  0.00     0.320 C 
HETATM    3  O   UNL     1     -41.659 -52.311  13.519  1.00  0.00    -0.247 OA
HETATM    4  N   UNL     1     -41.460 -51.435  11.380  1.00  0.00    -0.305 N 
HETATM    5  H   UNL     1     -43.515 -52.692  11.030  1.00  0.00     0.164 HD
HETATM    6  H   UNL     1     -41.478 -51.767  10.425  1.00  0.00     0.171 HD
ENDROOT
BRANCH   1   7
HETATM    7  C   UNL     1     -43.872 -53.814  12.802  1.00  0.00     0.129 C 
BRANCH   7   8
HETATM    8  C   UNL     1     -45.326 -53.322  12.912  1.00  0.00     0.007 C 
HETATM    9  C   UNL     1     -45.412 -51.799  13.097  1.00  0.00     0.036 C 
HETATM   10  C   UNL     1     -45.039 -51.366  14.518  1.00  0.00     0.272 C 
HETATM   11  N   UNL     1     -45.840 -52.021  15.561  1.00  0.00     0.088 N 
HETATM   12  C   UNL     1     -45.712 -53.484  15.446  1.00  0.00     0.272 C 
HETATM   13  C   UNL     1     -46.075 -54.032  14.059  1.00  0.00     0.036 C 
BRANCH  11  14
HETATM   14  C   UNL     1     -47.253 -51.607  15.589  1.00  0.00     0.268 C 
HETATM   15  C   UNL     1     -47.725 -51.108  16.953  1.00  0.00     0.037 C 
ENDBRANCH  11  14
ENDBRANCH   7   8
ENDBRANCH   1   7
BRANCH   4  16
HETATM   16  C   UNL     1     -40.513 -50.407  11.669  1.00  0.00     0.087 A 
HETATM   17  C   UNL     1     -39.206 -50.708  12.054  1.00  0.00     0.035 A 
HETATM   18  C   UNL     1     -38.278 -49.697  12.288  1.00  0.00     0.019 A 
HETATM   19  C   UNL     1     -38.699 -48.389  12.165  1.00  0.00     0.090 A 
HETATM   20  N   UNL     1     -39.962 -48.042  11.851  1.00  0.00    -0.345 N 
HETATM   21  C   UNL     1     -40.848 -49.044  11.611  1.00  0.00     0.169 A 
ATOM     22  HN  UNL     1     -40.243 -47.063  11.797  1.00  0.00     0.167 HD
BRANCH  21  23
HETATM   23  O   UNL     1     -42.144 -48.690  11.271  1.00  0.00    -0.339 OA
HETATM   24  C   UNL     1     -42.180 -47.885  10.086  1.00  0.00     0.211 C 
ENDBRANCH  21  23
ENDBRANCH   4  16
TORSDOF 5
ENDMDL
MODEL 8
REMARK VINA RESULT:      -5.6      3.072      4.399
REMARK  5 active torsions:
REMARK  status: ('A' for Active; 'I' for Inactive)
REMARK    1  A    between atoms: C_2  and  N_3 
REMARK    2  A    between atoms: C_6  and  C_7 
REMARK    3  A    between atoms: C_7  and  N_8 
REMARK       I    between atoms: N_8  and  C_9 
REMARK       I    between atoms: C_9  and  N_11 
REMARK    4  A    between atoms: N_11  and  C_12 
REMARK    5  A    between atoms: C_18  and  O_19 
ROOT
HETATM    1  N   UNL     1     -42.028 -51.508  11.891  1.00  0.00    -0.342 N 
HETATM    2  C   UNL     1     -41.791 -50.164  12.071  1.00  0.00     0.320 C 
HETATM    3  O   UNL     1     -42.036 -49.606  13.134  1.00  0.00    -0.247 OA
HETATM    4  N   UNL     1     -41.261 -49.549  10.949  1.00  0.00    -0.305 N 
HETATM    5  H   UNL     1     -42.102 -51.834  10.940  1.00  0.00     0.164 HD
HETATM    6  H   UNL     1     -40.675 -50.107  10.342  1.00  0.00     0.171 HD
ENDROOT
BRANCH   1   7
HETATM    7  C   UNL     1     -42.716 -52.282  12.927  1.00  0.00     0.129 C 
BRANCH   7   8
HETATM    8  C   UNL     1     -42.133 -53.697  13.094  1.00  0.00     0.007 C 
HETATM    9  C   UNL     1     -42.639 -54.387  14.370  1.00  0.00     0.036 C 
HETATM   10  C   UNL     1     -41.966 -53.839  15.631  1.00  0.00     0.272 C 
HETATM   11  N   UNL     1     -40.500 -53.916  15.595  1.00  0.00     0.088 N 
HETATM   12  C   UNL     1     -39.989 -53.195  14.416  1.00  0.00     0.272 C 
HETATM   13  C   UNL     1     -40.591 -53.674  13.088  1.00  0.00     0.036 C 
BRANCH  11  14
HETATM   14  C   UNL     1     -39.963 -55.285  15.661  1.00  0.00     0.268 C 
HETATM   15  C   UNL     1     -38.463 -55.351  15.936  1.00  0.00     0.037 C 
ENDBRANCH  11  14
ENDBRANCH   7   8
ENDBRANCH   1   7
BRANCH   4  16
HETATM   16  C   UNL     1     -41.133 -48.134  10.815  1.00  0.00     0.087 A 
HETATM   17  C   UNL     1     -40.033 -47.450  11.333  1.00  0.00     0.035 A 
HETATM   18  C   UNL     1     -39.895 -46.076  11.156  1.00  0.00     0.019 A 
HETATM   19  C   UNL     1     -40.896 -45.406  10.486  1.00  0.00     0.090 A 
HETATM   20  N   UNL     1     -42.006 -46.007  10.015  1.00  0.00    -0.345 N 
HETATM   21  C   UNL     1     -42.113 -47.351  10.185  1.00  0.00     0.169 A 
ATOM     22  HN  UNL     1     -42.740 -45.472   9.549  1.00  0.00     0.167 HD
BRANCH  21  23
HETATM   23  O   UNL     1     -43.245 -47.974   9.685  1.00  0.00    -0.339 OA
HETATM   24  C   UNL     1     -43.475 -47.637   8.311  1.00  0.00     0.211 C 
ENDBRANCH  21  23
ENDBRANCH   4  16
TORSDOF 5
ENDMDL
MODEL 9
REMARK VINA RESULT:      -5.6      3.987      5.862
REMARK  5 active torsions:
REMARK  status: ('A' for Active; 'I' for Inactive)
REMARK    1  A    between atoms: C_2  and  N_3 
REMARK    2  A    between atoms: C_6  and  C_7 
REMARK    3  A    between atoms: C_7  and  N_8 
REMARK       I    between atoms: N_8  and  C_9 
REMARK       I    between atoms: C_9  and  N_11 
REMARK    4  A    between atoms: N_11  and  C_12 
REMARK    5  A    between atoms: C_18  and  O_19 
ROOT
HETATM    1  N   UNL     1     -40.849 -51.143  11.338  1.00  0.00    -0.342 N 
HETATM    2  C   UNL     1     -41.882 -51.469  12.188  1.00  0.00     0.320 C 
HETATM    3  O   UNL     1     -42.171 -50.764  13.148  1.00  0.00    -0.247 OA
HETATM    4  N   UNL     1     -42.528 -52.641  11.834  1.00  0.00    -0.305 N 
HETATM    5  H   UNL     1     -40.469 -51.888  10.777  1.00  0.00     0.164 HD
HETATM    6  H   UNL     1     -42.564 -52.879  10.852  1.00  0.00     0.171 HD
ENDROOT
BRANCH   1   7
HETATM    7  C   UNL     1     -39.972 -50.010  11.644  1.00  0.00     0.129 C 
BRANCH   7   8
HETATM    8  C   UNL     1     -38.585 -50.454  12.143  1.00  0.00     0.007 C 
HETATM    9  C   UNL     1     -38.677 -51.400  13.350  1.00  0.00     0.036 C 
HETATM   10  C   UNL     1     -39.029 -50.659  14.642  1.00  0.00     0.272 C 
HETATM   11  N   UNL     1     -38.104 -49.564  14.962  1.00  0.00     0.088 N 
HETATM   12  C   UNL     1     -38.057 -48.604  13.845  1.00  0.00     0.272 C 
HETATM   13  C   UNL     1     -37.700 -49.241  12.495  1.00  0.00     0.036 C 
BRANCH  11  14
HETATM   14  C   UNL     1     -36.753 -50.005  15.347  1.00  0.00     0.268 C 
HETATM   15  C   UNL     1     -36.533 -50.085  16.855  1.00  0.00     0.037 C 
ENDBRANCH  11  14
ENDBRANCH   7   8
ENDBRANCH   1   7
BRANCH   4  16
HETATM   16  C   UNL     1     -43.480 -53.297  12.672  1.00  0.00     0.087 A 
HETATM   17  C   UNL     1     -44.848 -53.051  12.551  1.00  0.00     0.035 A 
HETATM   18  C   UNL     1     -45.771 -53.732  13.341  1.00  0.00     0.019 A 
HETATM   19  C   UNL     1     -45.290 -54.627  14.272  1.00  0.00     0.090 A 
HETATM   20  N   UNL     1     -43.979 -54.861  14.470  1.00  0.00    -0.345 N 
HETATM   21  C   UNL     1     -43.096 -54.199  13.677  1.00  0.00     0.169 A 
ATOM     22  HN  UNL     1     -43.660 -55.512  15.189  1.00  0.00     0.167 HD
BRANCH  21  23
HETATM   23  O   UNL     1     -41.746 -54.451  13.866  1.00  0.00    -0.339 OA
HETATM   24  C   UNL     1     -41.326 -54.119  15.196  1.00  0.00     0.211 C 
ENDBRANCH  21  23
ENDBRANCH   4  16
TORSDOF 5
ENDMDL
