MODEL 1
REMARK VINA RESULT:      -5.7      0.000      0.000
REMARK  3 active torsions:
REMARK  status: ('A' for Active; 'I' for Inactive)
REMARK    1  A    between atoms: S_2  and  C_3 
REMARK    2  A    between atoms: C_5  and  N_6 
REMARK       I    between atoms: N_6  and  C_7 
REMARK       I    between atoms: C_7  and  N_9 
REMARK    3  A    between atoms: N_9  and  C_10 
ROOT
HETATM    1  N   UNL     1     -42.211 -49.761  11.587  1.00  0.00    -0.309 N 
HETATM    2  C   UNL     1     -42.967 -50.028  12.710  1.00  0.00     0.321 C 
HETATM    3  O   UNL     1     -43.448 -49.196  13.468  1.00  0.00    -0.247 OA
HETATM    4  N   UNL     1     -43.096 -51.383  12.943  1.00  0.00    -0.338 N 
HETATM    5  H   UNL     1     -41.629 -50.519  11.262  1.00  0.00     0.170 HD
HETATM    6  H   UNL     1     -43.059 -51.994  12.140  1.00  0.00     0.164 HD
ENDROOT
BRANCH   1   7
HETATM    7  C   UNL     1     -41.936 -48.465  11.079  1.00  0.00     0.040 A 
HETATM    8  C   UNL     1     -42.864 -47.733  10.335  1.00  0.00     0.066 A 
HETATM    9  C   UNL     1     -42.542 -46.454   9.902  1.00  0.00     0.071 A 
HETATM   10  N   UNL     1     -41.345 -45.882  10.149  1.00  0.00    -0.360 N 
HETATM   11  C   UNL     1     -40.449 -46.611  10.849  1.00  0.00     0.091 A 
ATOM     12  HN  UNL     1     -41.127 -44.941   9.820  1.00  0.00     0.165 HD
HETATM   13  C   UNL     1     -40.690 -47.892  11.324  1.00  0.00     0.046 A 
BRANCH   9  14
HETATM   14  S   UNL     1     -43.775 -45.538   8.989  1.00  0.00    -0.117 SA
HETATM   15  C   UNL     1     -45.122 -46.743   8.946  1.00  0.00     0.097 C 
ENDBRANCH   9  14
ENDBRANCH   1   7
BRANCH   4  16
HETATM   16  C   UNL     1     -43.828 -51.842  14.131  1.00  0.00     0.089 C 
HETATM   17  C   UNL     1     -43.477 -53.285  14.489  1.00  0.00     0.055 C 
HETATM   18  C   UNL     1     -44.210 -54.296  13.610  1.00  0.00     0.274 C 
HETATM   19  N   UNL     1     -45.663 -54.118  13.566  1.00  0.00     0.084 N 
HETATM   20  C   UNL     1     -46.322 -54.581  14.786  1.00  0.00     0.309 C 
HETATM   21  C   UNL     1     -46.035 -52.747  13.205  1.00  0.00     0.274 C 
HETATM   22  C   UNL     1     -45.347 -51.653  14.022  1.00  0.00     0.055 C 
ENDBRANCH   4  16
TORSDOF 3
ENDMDL
MODEL 2
REMARK VINA RESULT:      -5.4      1.645      2.004
REMARK  3 active torsions:
REMARK  status: ('A' for Active; 'I' for Inactive)
REMARK    1  A    between atoms: S_2  and  C_3 
REMARK    2  A    between atoms: C_5  and  N_6 
REMARK       I    between atoms: N_6  and  C_7 
REMARK       I    between atoms: C_7  and  N_9 
REMARK    3  A    between atoms: N_9  and  C_10 
ROOT
HETATM    1  N   UNL     1     -42.904 -48.545  11.475  1.00  0.00    -0.309 N 
HETATM    2  C   UNL     1     -43.137 -49.174  12.681  1.00  0.00     0.321 C 
HETATM    3  O   UNL     1     -42.660 -48.857  13.762  1.00  0.00    -0.247 OA
HETATM    4  N   UNL     1     -43.958 -50.276  12.545  1.00  0.00    -0.338 N 
HETATM    5  H   UNL     1     -43.096 -49.096  10.651  1.00  0.00     0.170 HD
HETATM    6  H   UNL     1     -44.625 -50.264  11.787  1.00  0.00     0.164 HD
ENDROOT
BRANCH   1   7
HETATM    7  C   UNL     1     -42.130 -47.368  11.306  1.00  0.00     0.040 A 
HETATM    8  C   UNL     1     -42.684 -46.087  11.349  1.00  0.00     0.066 A 
HETATM    9  C   UNL     1     -41.860 -44.977  11.216  1.00  0.00     0.071 A 
HETATM   10  N   UNL     1     -40.529 -45.078  11.017  1.00  0.00    -0.360 N 
HETATM   11  C   UNL     1     -40.011 -46.324  10.954  1.00  0.00     0.091 A 
ATOM     12  HN  UNL     1     -39.941 -44.251  10.920  1.00  0.00     0.165 HD
HETATM   13  C   UNL     1     -40.759 -47.485  11.084  1.00  0.00     0.046 A 
BRANCH   9  14
HETATM   14  S   UNL     1     -42.606 -43.357  11.319  1.00  0.00    -0.117 SA
HETATM   15  C   UNL     1     -41.134 -42.320  11.475  1.00  0.00     0.097 C 
ENDBRANCH   9  14
ENDBRANCH   1   7
BRANCH   4  16
HETATM   16  C   UNL     1     -44.266 -51.094  13.725  1.00  0.00     0.089 C 
HETATM   17  C   UNL     1     -43.470 -52.398  13.734  1.00  0.00     0.055 C 
HETATM   18  C   UNL     1     -44.073 -53.452  12.809  1.00  0.00     0.274 C 
HETATM   19  N   UNL     1     -45.495 -53.718  13.042  1.00  0.00     0.084 N 
HETATM   20  C   UNL     1     -45.727 -54.522  14.240  1.00  0.00     0.309 C 
HETATM   21  C   UNL     1     -46.292 -52.488  13.020  1.00  0.00     0.274 C 
HETATM   22  C   UNL     1     -45.766 -51.360  13.908  1.00  0.00     0.055 C 
ENDBRANCH   4  16
TORSDOF 3
ENDMDL
MODEL 3
REMARK VINA RESULT:      -5.4      2.561      3.573
REMARK  3 active torsions:
REMARK  status: ('A' for Active; 'I' for Inactive)
REMARK    1  A    between atoms: S_2  and  C_3 
REMARK    2  A    between atoms: C_5  and  N_6 
REMARK       I    between atoms: N_6  and  C_7 
REMARK       I    between atoms: C_7  and  N_9 
REMARK    3  A    between atoms: N_9  and  C_10 
ROOT
HETATM    1  N   UNL     1     -42.224 -48.848  10.786  1.00  0.00    -0.309 N 
HETATM    2  C   UNL     1     -42.531 -49.511  11.957  1.00  0.00     0.321 C 
HETATM    3  O   UNL     1     -43.199 -49.067  12.880  1.00  0.00    -0.247 OA
HETATM    4  N   UNL     1     -41.948 -50.762  12.017  1.00  0.00    -0.338 N 
HETATM    5  H   UNL     1     -41.423 -49.200  10.282  1.00  0.00     0.170 HD
HETATM    6  H   UNL     1     -41.775 -51.232  11.140  1.00  0.00     0.164 HD
ENDROOT
BRANCH   1   7
HETATM    7  C   UNL     1     -42.706 -47.563  10.427  1.00  0.00     0.040 A 
HETATM    8  C   UNL     1     -42.250 -46.389  11.031  1.00  0.00     0.066 A 
HETATM    9  C   UNL     1     -42.737 -45.162  10.602  1.00  0.00     0.071 A 
HETATM   10  N   UNL     1     -43.665 -45.047   9.629  1.00  0.00    -0.360 N 
HETATM   11  C   UNL     1     -44.114 -46.191   9.071  1.00  0.00     0.091 A 
ATOM     12  HN  UNL     1     -44.012 -44.135   9.330  1.00  0.00     0.165 HD
HETATM   13  C   UNL     1     -43.677 -47.457   9.433  1.00  0.00     0.046 A 
BRANCH   9  14
HETATM   14  S   UNL     1     -42.096 -43.684  11.376  1.00  0.00    -0.117 SA
HETATM   15  C   UNL     1     -42.616 -43.949  13.086  1.00  0.00     0.097 C 
ENDBRANCH   9  14
ENDBRANCH   1   7
BRANCH   4  16
HETATM   16  C   UNL     1     -42.130 -51.582  13.221  1.00  0.00     0.089 C 
HETATM   17  C   UNL     1     -41.029 -51.329  14.250  1.00  0.00     0.055 C 
HETATM   18  C   UNL     1     -39.735 -52.063  13.909  1.00  0.00     0.274 C 
HETATM   19  N   UNL     1     -39.898 -53.500  13.677  1.00  0.00     0.084 N 
HETATM   20  C   UNL     1     -40.090 -54.251  14.916  1.00  0.00     0.309 C 
HETATM   21  C   UNL     1     -40.934 -53.779  12.677  1.00  0.00     0.274 C 
HETATM   22  C   UNL     1     -42.272 -53.081  12.922  1.00  0.00     0.055 C 
ENDBRANCH   4  16
TORSDOF 3
ENDMDL
MODEL 4
REMARK VINA RESULT:      -5.2      3.121      7.845
REMARK  3 active torsions:
REMARK  status: ('A' for Active; 'I' for Inactive)
REMARK    1  A    between atoms: S_2  and  C_3 
REMARK    2  A    between atoms: C_5  and  N_6 
REMARK       I    between atoms: N_6  and  C_7 
REMARK       I    between atoms: C_7  and  N_9 
REMARK    3  A    between atoms: N_9  and  C_10 
ROOT
HETATM    1  N   UNL     1     -43.017 -51.756  12.408  1.00  0.00    -0.309 N 
HETATM    2  C   UNL     1     -43.123 -50.469  12.895  1.00  0.00     0.321 C 
HETATM    3  O   UNL     1     -43.669 -50.138  13.938  1.00  0.00    -0.247 OA
HETATM    4  N   UNL     1     -42.576 -49.537  12.034  1.00  0.00    -0.338 N 
HETATM    5  H   UNL     1     -42.839 -51.834  11.417  1.00  0.00     0.170 HD
HETATM    6  H   UNL     1     -41.819 -49.846  11.442  1.00  0.00     0.164 HD
ENDROOT
BRANCH   1   7
HETATM    7  C   UNL     1     -43.456 -52.922  13.085  1.00  0.00     0.040 A 
HETATM    8  C   UNL     1     -42.715 -53.529  14.102  1.00  0.00     0.066 A 
HETATM    9  C   UNL     1     -43.225 -54.647  14.749  1.00  0.00     0.071 A 
HETATM   10  N   UNL     1     -44.411 -55.200  14.422  1.00  0.00    -0.360 N 
HETATM   11  C   UNL     1     -45.105 -54.617  13.421  1.00  0.00     0.091 A 
ATOM     12  HN  UNL     1     -44.767 -56.023  14.909  1.00  0.00     0.165 HD
HETATM   13  C   UNL     1     -44.674 -53.495  12.726  1.00  0.00     0.046 A 
BRANCH   9  14
HETATM   14  S   UNL     1     -42.261 -55.366  16.071  1.00  0.00    -0.117 SA
HETATM   15  C   UNL     1     -40.601 -54.818  15.612  1.00  0.00     0.097 C 
ENDBRANCH   9  14
ENDBRANCH   1   7
BRANCH   4  16
HETATM   16  C   UNL     1     -42.652 -48.111  12.375  1.00  0.00     0.089 C 
HETATM   17  C   UNL     1     -43.314 -47.298  11.265  1.00  0.00     0.055 C 
HETATM   18  C   UNL     1     -42.358 -47.002  10.112  1.00  0.00     0.274 C 
HETATM   19  N   UNL     1     -41.095 -46.380  10.518  1.00  0.00     0.084 N 
HETATM   20  C   UNL     1     -41.250 -44.967  10.858  1.00  0.00     0.309 C 
HETATM   21  C   UNL     1     -40.422 -47.147  11.570  1.00  0.00     0.274 C 
HETATM   22  C   UNL     1     -41.299 -47.506  12.771  1.00  0.00     0.055 C 
ENDBRANCH   4  16
TORSDOF 3
ENDMDL
MODEL 5
REMARK VINA RESULT:      -5.1      2.802      3.494
REMARK  3 active torsions:
REMARK  status: ('A' for Active; 'I' for Inactive)
REMARK    1  A    between atoms: S_2  and  C_3 
REMARK    2  A    between atoms: C_5  and  N_6 
REMARK       I    between atoms: N_6  and  C_7 
REMARK       I    between atoms: C_7  and  N_9 
REMARK    3  A    between atoms: N_9  and  C_10 
ROOT
HETATM    1  N   UNL     1     -41.470 -49.214  12.669  1.00  0.00    -0.309 N 
HETATM    2  C   UNL     1     -40.912 -50.458  12.457  1.00  0.00     0.321 C 
HETATM    3  O   UNL     1     -40.411 -50.853  11.414  1.00  0.00    -0.247 OA
HETATM    4  N   UNL     1     -41.017 -51.274  13.567  1.00  0.00    -0.338 N 
HETATM    5  H   UNL     1     -42.113 -49.150  13.445  1.00  0.00     0.170 HD
HETATM    6  H   UNL     1     -41.043 -50.822  14.470  1.00  0.00     0.164 HD
ENDROOT
BRANCH   1   7
HETATM    7  C   UNL     1     -41.481 -48.154  11.726  1.00  0.00     0.040 A 
HETATM    8  C   UNL     1     -42.523 -47.965  10.815  1.00  0.00     0.066 A 
HETATM    9  C   UNL     1     -42.486 -46.883   9.946  1.00  0.00     0.071 A 
HETATM   10  N   UNL     1     -41.464 -46.003   9.921  1.00  0.00    -0.360 N 
HETATM   11  C   UNL     1     -40.453 -46.212  10.791  1.00  0.00     0.091 A 
ATOM     12  HN  UNL     1     -41.455 -45.215   9.273  1.00  0.00     0.165 HD
HETATM   13  C   UNL     1     -40.411 -47.262  11.698  1.00  0.00     0.046 A 
BRANCH   9  14
HETATM   14  S   UNL     1     -43.860 -46.657   8.825  1.00  0.00    -0.117 SA
HETATM   15  C   UNL     1     -43.512 -47.944   7.605  1.00  0.00     0.097 C 
ENDBRANCH   9  14
ENDBRANCH   1   7
BRANCH   4  16
HETATM   16  C   UNL     1     -40.520 -52.653  13.495  1.00  0.00     0.089 C 
HETATM   17  C   UNL     1     -41.566 -53.658  13.973  1.00  0.00     0.055 C 
HETATM   18  C   UNL     1     -41.646 -53.735  15.496  1.00  0.00     0.274 C 
HETATM   19  N   UNL     1     -40.361 -53.980  16.156  1.00  0.00     0.084 N 
HETATM   20  C   UNL     1     -39.921 -55.368  16.030  1.00  0.00     0.309 C 
HETATM   21  C   UNL     1     -39.337 -53.019  15.735  1.00  0.00     0.274 C 
HETATM   22  C   UNL     1     -39.184 -52.859  14.222  1.00  0.00     0.055 C 
ENDBRANCH   4  16
TORSDOF 3
ENDMDL
MODEL 6
REMARK VINA RESULT:      -5.1      3.094      7.550
REMARK  3 active torsions:
REMARK  status: ('A' for Active; 'I' for Inactive)
REMARK    1  A    between atoms: S_2  and  C_3 
REMARK    2  A    between atoms: C_5  and  N_6 
REMARK       I    between atoms: N_6  and  C_7 
REMARK       I    between atoms: C_7  and  N_9 
REMARK    3  A    between atoms: N_9  and  C_10 
ROOT
HETATM    1  N   UNL     1     -41.933 -50.171  11.797  1.00  0.00    -0.309 N 
HETATM    2  C   UNL     1     -41.547 -49.105  12.584  1.00  0.00     0.321 C 
HETATM    3  O   UNL     1     -41.254 -49.156  13.770  1.00  0.00    -0.247 OA
HETATM    4  N   UNL     1     -41.571 -47.909  11.893  1.00  0.00    -0.338 N 
HETATM    5  H   UNL     1     -42.443 -49.932  10.958  1.00  0.00     0.170 HD
HETATM    6  H   UNL     1     -41.413 -47.950  10.896  1.00  0.00     0.164 HD
ENDROOT
BRANCH   1   7
HETATM    7  C   UNL     1     -41.974 -51.524  12.220  1.00  0.00     0.040 A 
HETATM    8  C   UNL     1     -43.152 -52.153  12.628  1.00  0.00     0.066 A 
HETATM    9  C   UNL     1     -43.125 -53.493  12.992  1.00  0.00     0.071 A 
HETATM   10  N   UNL     1     -41.991 -54.223  12.996  1.00  0.00    -0.360 N 
HETATM   11  C   UNL     1     -40.855 -53.595  12.622  1.00  0.00     0.091 A 
ATOM     12  HN  UNL     1     -41.992 -55.206  13.269  1.00  0.00     0.165 HD
HETATM   13  C   UNL     1     -40.793 -52.264  12.237  1.00  0.00     0.046 A 
BRANCH   9  14
HETATM   14  S   UNL     1     -44.664 -54.267  13.467  1.00  0.00    -0.117 SA
HETATM   15  C   UNL     1     -45.843 -52.977  13.009  1.00  0.00     0.097 C 
ENDBRANCH   9  14
ENDBRANCH   1   7
BRANCH   4  16
HETATM   16  C   UNL     1     -41.238 -46.665  12.598  1.00  0.00     0.089 C 
HETATM   17  C   UNL     1     -42.332 -45.611  12.434  1.00  0.00     0.055 C 
HETATM   18  C   UNL     1     -42.259 -44.902  11.084  1.00  0.00     0.274 C 
HETATM   19  N   UNL     1     -40.947 -44.330  10.773  1.00  0.00     0.084 N 
HETATM   20  C   UNL     1     -40.677 -43.104  11.521  1.00  0.00     0.309 C 
HETATM   21  C   UNL     1     -39.874 -45.321  10.900  1.00  0.00     0.274 C 
HETATM   22  C   UNL     1     -39.864 -46.098  12.218  1.00  0.00     0.055 C 
ENDBRANCH   4  16
TORSDOF 3
ENDMDL
MODEL 7
REMARK VINA RESULT:      -5.0      3.072      7.640
REMARK  3 active torsions:
REMARK  status: ('A' for Active; 'I' for Inactive)
REMARK    1  A    between atoms: S_2  and  C_3 
REMARK    2  A    between atoms: C_5  and  N_6 
REMARK       I    between atoms: N_6  and  C_7 
REMARK       I    between atoms: C_7  and  N_9 
REMARK    3  A    between atoms: N_9  and  C_10 
ROOT
HETATM    1  N   UNL     1     -44.755 -50.830  12.940  1.00  0.00    -0.309 N 
HETATM    2  C   UNL     1     -43.476 -50.312  12.967  1.00  0.00     0.321 C 
HETATM    3  O   UNL     1     -42.595 -50.613  13.761  1.00  0.00    -0.247 OA
HETATM    4  N   UNL     1     -43.285 -49.341  12.004  1.00  0.00    -0.338 N 
HETATM    5  H   UNL     1     -45.443 -50.270  12.458  1.00  0.00     0.170 HD
HETATM    6  H   UNL     1     -43.838 -49.412  11.162  1.00  0.00     0.164 HD
ENDROOT
BRANCH   1   7
HETATM    7  C   UNL     1     -45.233 -51.865  13.784  1.00  0.00     0.040 A 
HETATM    8  C   UNL     1     -45.677 -51.630  15.088  1.00  0.00     0.066 A 
HETATM    9  C   UNL     1     -46.170 -52.685  15.846  1.00  0.00     0.071 A 
HETATM   10  N   UNL     1     -46.219 -53.952  15.385  1.00  0.00    -0.360 N 
HETATM   11  C   UNL     1     -45.765 -54.167  14.131  1.00  0.00     0.091 A 
ATOM     12  HN  UNL     1     -46.583 -54.713  15.958  1.00  0.00     0.165 HD
HETATM   13  C   UNL     1     -45.263 -53.172  13.304  1.00  0.00     0.046 A 
BRANCH   9  14
HETATM   14  S   UNL     1     -46.764 -52.332  17.494  1.00  0.00    -0.117 SA
HETATM   15  C   UNL     1     -48.021 -51.083  17.135  1.00  0.00     0.097 C 
ENDBRANCH   9  14
ENDBRANCH   1   7
BRANCH   4  16
HETATM   16  C   UNL     1     -41.993 -48.647  11.929  1.00  0.00     0.089 C 
HETATM   17  C   UNL     1     -41.936 -47.453  12.881  1.00  0.00     0.055 C 
HETATM   18  C   UNL     1     -42.660 -46.230  12.323  1.00  0.00     0.274 C 
HETATM   19  N   UNL     1     -42.230 -45.835  10.980  1.00  0.00     0.084 N 
HETATM   20  C   UNL     1     -40.931 -45.165  10.980  1.00  0.00     0.309 C 
HETATM   21  C   UNL     1     -42.292 -46.953  10.034  1.00  0.00     0.274 C 
HETATM   22  C   UNL     1     -41.603 -48.236  10.503  1.00  0.00     0.055 C 
ENDBRANCH   4  16
TORSDOF 3
ENDMDL
MODEL 8
REMARK VINA RESULT:      -4.9      5.078      6.061
REMARK  3 active torsions:
REMARK  status: ('A' for Active; 'I' for Inactive)
REMARK    1  A    between atoms: S_2  and  C_3 
REMARK    2  A    between atoms: C_5  and  N_6 
REMARK       I    between atoms: N_6  and  C_7 
REMARK       I    between atoms: C_7  and  N_9 
REMARK    3  A    between atoms: N_9  and  C_10 
ROOT
HETATM    1  N   UNL     1     -38.938 -51.842  14.440  1.00  0.00    -0.309 N 
HETATM    2  C   UNL     1     -39.021 -53.219  14.409  1.00  0.00     0.321 C 
HETATM    3  O   UNL     1     -39.101 -53.912  13.405  1.00  0.00    -0.247 OA
HETATM    4  N   UNL     1     -39.057 -53.769  15.676  1.00  0.00    -0.338 N 
HETATM    5  H   UNL     1     -39.201 -51.408  15.314  1.00  0.00     0.170 HD
HETATM    6  H   UNL     1     -38.596 -53.256  16.414  1.00  0.00     0.164 HD
ENDROOT
BRANCH   1   7
HETATM    7  C   UNL     1     -38.850 -51.005  13.298  1.00  0.00     0.040 A 
HETATM    8  C   UNL     1     -39.953 -50.331  12.769  1.00  0.00     0.066 A 
HETATM    9  C   UNL     1     -39.785 -49.496  11.671  1.00  0.00     0.071 A 
HETATM   10  N   UNL     1     -38.593 -49.321  11.066  1.00  0.00    -0.360 N 
HETATM   11  C   UNL     1     -37.540 -49.997  11.574  1.00  0.00     0.091 A 
ATOM     12  HN  UNL     1     -38.491 -48.704  10.259  1.00  0.00     0.165 HD
HETATM   13  C   UNL     1     -37.616 -50.845  12.670  1.00  0.00     0.046 A 
BRANCH   9  14
HETATM   14  S   UNL     1     -41.216 -48.623  11.052  1.00  0.00    -0.117 SA
HETATM   15  C   UNL     1     -41.306 -47.253  12.229  1.00  0.00     0.097 C 
ENDBRANCH   9  14
ENDBRANCH   1   7
BRANCH   4  16
HETATM   16  C   UNL     1     -39.198 -55.223  15.825  1.00  0.00     0.089 C 
HETATM   17  C   UNL     1     -40.498 -55.596  16.535  1.00  0.00     0.055 C 
HETATM   18  C   UNL     1     -40.405 -55.420  18.048  1.00  0.00     0.274 C 
HETATM   19  N   UNL     1     -39.269 -56.106  18.668  1.00  0.00     0.084 N 
HETATM   20  C   UNL     1     -39.472 -57.550  18.768  1.00  0.00     0.309 C 
HETATM   21  C   UNL     1     -38.000 -55.754  18.023  1.00  0.00     0.274 C 
HETATM   22  C   UNL     1     -37.990 -55.887  16.499  1.00  0.00     0.055 C 
ENDBRANCH   4  16
TORSDOF 3
ENDMDL
MODEL 9
REMARK VINA RESULT:      -4.9      3.076      7.722
REMARK  3 active torsions:
REMARK  status: ('A' for Active; 'I' for Inactive)
REMARK    1  A    between atoms: S_2  and  C_3 
REMARK    2  A    between atoms: C_5  and  N_6 
REMARK       I    between atoms: N_6  and  C_7 
REMARK       I    between atoms: C_7  and  N_9 
REMARK    3  A    between atoms: N_9  and  C_10 
ROOT
HETATM    1  N   UNL     1     -41.112 -49.253  12.622  1.00  0.00    -0.309 N 
HETATM    2  C   UNL     1     -41.370 -48.303  11.655  1.00  0.00     0.321 C 
HETATM    3  O   UNL     1     -41.929 -48.499  10.585  1.00  0.00    -0.247 OA
HETATM    4  N   UNL     1     -40.873 -47.060  11.998  1.00  0.00    -0.338 N 
HETATM    5  H   UNL     1     -40.381 -49.020  13.279  1.00  0.00     0.170 HD
HETATM    6  H   UNL     1     -40.805 -46.847  12.982  1.00  0.00     0.164 HD
ENDROOT
BRANCH   1   7
HETATM    7  C   UNL     1     -41.530 -50.607  12.566  1.00  0.00     0.040 A 
HETATM    8  C   UNL     1     -42.850 -51.000  12.797  1.00  0.00     0.066 A 
HETATM    9  C   UNL     1     -43.197 -52.340  12.686  1.00  0.00     0.071 A 
HETATM   10  N   UNL     1     -42.301 -53.302  12.385  1.00  0.00    -0.360 N 
HETATM   11  C   UNL     1     -41.023 -52.910  12.188  1.00  0.00     0.091 A 
ATOM     12  HN  UNL     1     -42.575 -54.281  12.310  1.00  0.00     0.165 HD
HETATM   13  C   UNL     1     -40.592 -51.594  12.272  1.00  0.00     0.046 A 
BRANCH   9  14
HETATM   14  S   UNL     1     -44.906 -52.792  12.950  1.00  0.00    -0.117 SA
HETATM   15  C   UNL     1     -44.727 -54.535  13.392  1.00  0.00     0.097 C 
ENDBRANCH   9  14
ENDBRANCH   1   7
BRANCH   4  16
HETATM   16  C   UNL     1     -41.015 -45.944  11.054  1.00  0.00     0.089 C 
HETATM   17  C   UNL     1     -39.783 -45.040  11.057  1.00  0.00     0.055 C 
HETATM   18  C   UNL     1     -39.772 -44.077  12.241  1.00  0.00     0.274 C 
HETATM   19  N   UNL     1     -40.992 -43.279  12.383  1.00  0.00     0.084 N 
HETATM   20  C   UNL     1     -41.074 -42.199  11.402  1.00  0.00     0.309 C 
HETATM   21  C   UNL     1     -42.195 -44.118  12.404  1.00  0.00     0.274 C 
HETATM   22  C   UNL     1     -42.299 -45.130  11.262  1.00  0.00     0.055 C 
ENDBRANCH   4  16
TORSDOF 3
ENDMDL
