MODEL 1
REMARK VINA RESULT:      -5.2      0.000      0.000
REMARK  2 active torsions:
REMARK  status: ('A' for Active; 'I' for Inactive)
REMARK    1  A    between atoms: C_8  and  C_12 
REMARK    2  A    between atoms: C_17  and  N_18 
ROOT
HETATM    1  C   UNL     3     -42.199 -46.737   9.833  1.00  0.00     0.190 C 
HETATM    2  O   UNL     3     -42.569 -45.526  10.475  1.00  0.00    -0.379 OA
HETATM    3  C   UNL     3     -41.434 -44.874  11.012  1.00  0.00     0.168 C 
HETATM    4  C   UNL     3     -40.815 -45.718  12.131  1.00  0.00     0.028 C 
HETATM    5  C   UNL     3     -40.403 -47.073  11.555  1.00  0.00     0.040 C 
HETATM    6  C   UNL     3     -41.617 -47.737  10.878  1.00  0.00     0.251 C 
ENDROOT
BRANCH   1   7
HETATM    7  C   UNL     3     -43.429 -47.239   9.132  1.00  0.00     0.007 A 
HETATM    8  C   UNL     3     -44.694 -47.377   9.667  1.00  0.00     0.120 A 
HETATM    9  N   UNL     3     -45.478 -47.945   8.731  1.00  0.00    -0.307 N 
HETATM   10  C   UNL     3     -46.877 -48.322   8.889  1.00  0.00     0.177 C 
HETATM   11  N   UNL     3     -44.781 -48.155   7.624  1.00  0.00    -0.310 N 
HETATM   12  C   UNL     3     -43.521 -47.729   7.842  1.00  0.00     0.118 A 
ATOM     13  HN  UNL     3     -45.135 -48.566   6.761  1.00  0.00     0.186 HD
ENDBRANCH   1   7
BRANCH   6  14
HETATM   14  N   UNL     3     -41.203 -49.003  10.271  1.00  0.00     0.085 N 
HETATM   15  H   UNL     3     -42.033 -49.518   9.895  1.00  0.00     0.313 HD
HETATM   16  H   UNL     3     -40.715 -49.601  10.975  1.00  0.00     0.313 HD
ENDBRANCH   6  14
TORSDOF 2
ENDMDL
MODEL 2
REMARK VINA RESULT:      -4.8      1.909      2.170
REMARK  2 active torsions:
REMARK  status: ('A' for Active; 'I' for Inactive)
REMARK    1  A    between atoms: C_8  and  C_12 
REMARK    2  A    between atoms: C_17  and  N_18 
ROOT
HETATM    1  C   UNL     3     -42.190 -46.027  10.758  1.00  0.00     0.190 C 
HETATM    2  O   UNL     3     -41.357 -45.326   9.849  1.00  0.00    -0.379 OA
HETATM    3  C   UNL     3     -40.036 -45.228  10.348  1.00  0.00     0.168 C 
HETATM    4  C   UNL     3     -40.009 -44.374  11.619  1.00  0.00     0.028 C 
HETATM    5  C   UNL     3     -40.908 -45.025  12.670  1.00  0.00     0.040 C 
HETATM    6  C   UNL     3     -42.320 -45.225  12.089  1.00  0.00     0.251 C 
ENDROOT
BRANCH   1   7
HETATM    7  C   UNL     3     -43.498 -46.248  10.052  1.00  0.00     0.007 A 
HETATM    8  C   UNL     3     -44.247 -47.406  10.031  1.00  0.00     0.120 A 
HETATM    9  N   UNL     3     -45.295 -47.205   9.209  1.00  0.00    -0.307 N 
HETATM   10  C   UNL     3     -46.313 -48.185   8.852  1.00  0.00     0.177 C 
HETATM   11  N   UNL     3     -45.260 -45.972   8.725  1.00  0.00    -0.310 N 
HETATM   12  C   UNL     3     -44.169 -45.362   9.228  1.00  0.00     0.118 A 
ATOM     13  HN  UNL     3     -45.938 -45.559   8.086  1.00  0.00     0.186 HD
ENDBRANCH   1   7
BRANCH   6  14
HETATM   14  N   UNL     3     -43.160 -45.907  13.075  1.00  0.00     0.085 N 
HETATM   15  H   UNL     3     -42.573 -46.296  13.849  1.00  0.00     0.313 HD
HETATM   16  H   UNL     3     -43.694 -46.682  12.623  1.00  0.00     0.313 HD
ENDBRANCH   6  14
TORSDOF 2
ENDMDL
MODEL 3
REMARK VINA RESULT:      -4.6      3.381      4.909
REMARK  2 active torsions:
REMARK  status: ('A' for Active; 'I' for Inactive)
REMARK    1  A    between atoms: C_8  and  C_12 
REMARK    2  A    between atoms: C_17  and  N_18 
ROOT
HETATM    1  C   UNL     3     -38.947 -48.861  12.481  1.00  0.00     0.190 C 
HETATM    2  O   UNL     3     -39.610 -49.160  13.700  1.00  0.00    -0.379 OA
HETATM    3  C   UNL     3     -38.708 -49.706  14.643  1.00  0.00     0.168 C 
HETATM    4  C   UNL     3     -38.185 -51.061  14.158  1.00  0.00     0.028 C 
HETATM    5  C   UNL     3     -37.472 -50.864  12.820  1.00  0.00     0.040 C 
HETATM    6  C   UNL     3     -38.423 -50.174  11.824  1.00  0.00     0.251 C 
ENDROOT
BRANCH   1   7
HETATM    7  C   UNL     3     -39.935 -48.111  11.634  1.00  0.00     0.007 A 
HETATM    8  C   UNL     3     -41.118 -48.592  11.111  1.00  0.00     0.120 A 
HETATM    9  N   UNL     3     -41.651 -47.626  10.339  1.00  0.00    -0.307 N 
HETATM   10  C   UNL     3     -42.874 -47.726   9.550  1.00  0.00     0.177 C 
HETATM   11  N   UNL     3     -40.878 -46.550  10.362  1.00  0.00    -0.310 N 
HETATM   12  C   UNL     3     -39.819 -46.819  11.151  1.00  0.00     0.118 A 
ATOM     13  HN  UNL     3     -41.054 -45.674   9.871  1.00  0.00     0.186 HD
ENDBRANCH   1   7
BRANCH   6  14
HETATM   14  N   UNL     3     -37.716 -49.928  10.567  1.00  0.00     0.085 N 
HETATM   15  H   UNL     3     -36.725 -50.257  10.633  1.00  0.00     0.313 HD
HETATM   16  H   UNL     3     -37.728 -48.910  10.336  1.00  0.00     0.313 HD
ENDBRANCH   6  14
TORSDOF 2
ENDMDL
MODEL 4
REMARK VINA RESULT:      -4.6      5.494      7.045
REMARK  2 active torsions:
REMARK  status: ('A' for Active; 'I' for Inactive)
REMARK    1  A    between atoms: C_8  and  C_12 
REMARK    2  A    between atoms: C_17  and  N_18 
ROOT
HETATM    1  C   UNL     3     -44.255 -52.147  13.814  1.00  0.00     0.190 C 
HETATM    2  O   UNL     3     -43.938 -51.612  15.090  1.00  0.00    -0.379 OA
HETATM    3  C   UNL     3     -44.953 -51.912  16.028  1.00  0.00     0.168 C 
HETATM    4  C   UNL     3     -46.259 -51.212  15.642  1.00  0.00     0.028 C 
HETATM    5  C   UNL     3     -46.685 -51.694  14.255  1.00  0.00     0.040 C 
HETATM    6  C   UNL     3     -45.538 -51.461  13.253  1.00  0.00     0.251 C 
ENDROOT
BRANCH   1   7
HETATM    7  C   UNL     3     -43.038 -51.950  12.956  1.00  0.00     0.007 A 
HETATM    8  C   UNL     3     -42.336 -50.778  12.765  1.00  0.00     0.120 A 
HETATM    9  N   UNL     3     -41.373 -51.017  11.853  1.00  0.00    -0.307 N 
HETATM   10  C   UNL     3     -40.433 -50.043  11.313  1.00  0.00     0.177 C 
HETATM   11  N   UNL     3     -41.417 -52.285  11.472  1.00  0.00    -0.310 N 
HETATM   12  C   UNL     3     -42.427 -52.881  12.135  1.00  0.00     0.118 A 
ATOM     13  HN  UNL     3     -40.796 -52.731  10.798  1.00  0.00     0.186 HD
ENDBRANCH   1   7
BRANCH   6  14
HETATM   14  N   UNL     3     -45.925 -51.983  11.942  1.00  0.00     0.085 N 
HETATM   15  H   UNL     3     -45.198 -51.751  11.226  1.00  0.00     0.313 HD
HETATM   16  H   UNL     3     -46.842 -51.580  11.646  1.00  0.00     0.313 HD
ENDBRANCH   6  14
TORSDOF 2
ENDMDL
MODEL 5
REMARK VINA RESULT:      -4.6      5.057      5.884
REMARK  2 active torsions:
REMARK  status: ('A' for Active; 'I' for Inactive)
REMARK    1  A    between atoms: C_8  and  C_12 
REMARK    2  A    between atoms: C_17  and  N_18 
ROOT
HETATM    1  C   UNL     3     -40.431 -50.542  12.838  1.00  0.00     0.190 C 
HETATM    2  O   UNL     3     -39.571 -50.759  13.946  1.00  0.00    -0.379 OA
HETATM    3  C   UNL     3     -38.880 -49.573  14.287  1.00  0.00     0.168 C 
HETATM    4  C   UNL     3     -37.936 -49.162  13.153  1.00  0.00     0.028 C 
HETATM    5  C   UNL     3     -38.759 -48.930  11.886  1.00  0.00     0.040 C 
HETATM    6  C   UNL     3     -39.591 -50.188  11.574  1.00  0.00     0.251 C 
ENDROOT
BRANCH   1   7
HETATM    7  C   UNL     3     -41.255 -51.790  12.689  1.00  0.00     0.007 A 
HETATM    8  C   UNL     3     -42.632 -51.884  12.700  1.00  0.00     0.120 A 
HETATM    9  N   UNL     3     -42.957 -53.189  12.630  1.00  0.00    -0.307 N 
HETATM   10  C   UNL     3     -44.303 -53.747  12.668  1.00  0.00     0.177 C 
HETATM   11  N   UNL     3     -41.858 -53.925  12.556  1.00  0.00    -0.310 N 
HETATM   12  C   UNL     3     -40.799 -53.092  12.588  1.00  0.00     0.118 A 
ATOM     13  HN  UNL     3     -41.820 -54.942  12.486  1.00  0.00     0.186 HD
ENDBRANCH   1   7
BRANCH   6  14
HETATM   14  N   UNL     3     -40.427 -49.938  10.398  1.00  0.00     0.085 N 
HETATM   15  H   UNL     3     -41.187 -49.256  10.626  1.00  0.00     0.313 HD
HETATM   16  H   UNL     3     -40.852 -50.829  10.058  1.00  0.00     0.313 HD
ENDBRANCH   6  14
TORSDOF 2
ENDMDL
MODEL 6
REMARK VINA RESULT:      -4.5      5.907      7.423
REMARK  2 active torsions:
REMARK  status: ('A' for Active; 'I' for Inactive)
REMARK    1  A    between atoms: C_8  and  C_12 
REMARK    2  A    between atoms: C_17  and  N_18 
ROOT
HETATM    1  C   UNL     3     -43.347 -52.765  13.457  1.00  0.00     0.190 C 
HETATM    2  O   UNL     3     -44.466 -52.935  12.602  1.00  0.00    -0.379 OA
HETATM    3  C   UNL     3     -45.540 -53.544  13.294  1.00  0.00     0.168 C 
HETATM    4  C   UNL     3     -45.165 -54.969  13.711  1.00  0.00     0.028 C 
HETATM    5  C   UNL     3     -43.937 -54.909  14.620  1.00  0.00     0.040 C 
HETATM    6  C   UNL     3     -42.801 -54.155  13.904  1.00  0.00     0.251 C 
ENDROOT
BRANCH   1   7
HETATM    7  C   UNL     3     -42.351 -51.940  12.692  1.00  0.00     0.007 A 
HETATM    8  C   UNL     3     -42.269 -50.563  12.650  1.00  0.00     0.120 A 
HETATM    9  N   UNL     3     -41.297 -50.234  11.777  1.00  0.00    -0.307 N 
HETATM   10  C   UNL     3     -40.909 -48.885  11.384  1.00  0.00     0.177 C 
HETATM   11  N   UNL     3     -40.745 -51.331  11.280  1.00  0.00    -0.310 N 
HETATM   12  C   UNL     3     -41.371 -52.392  11.826  1.00  0.00     0.118 A 
ATOM     13  HN  UNL     3     -39.982 -51.366  10.605  1.00  0.00     0.186 HD
ENDBRANCH   1   7
BRANCH   6  14
HETATM   14  N   UNL     3     -41.651 -54.043  14.802  1.00  0.00     0.085 N 
HETATM   15  H   UNL     3     -40.907 -54.727  14.531  1.00  0.00     0.313 HD
HETATM   16  H   UNL     3     -41.941 -54.221  15.789  1.00  0.00     0.313 HD
ENDBRANCH   6  14
TORSDOF 2
ENDMDL
MODEL 7
REMARK VINA RESULT:      -4.5      7.153      8.491
REMARK  2 active torsions:
REMARK  status: ('A' for Active; 'I' for Inactive)
REMARK    1  A    between atoms: C_8  and  C_12 
REMARK    2  A    between atoms: C_17  and  N_18 
ROOT
HETATM    1  C   UNL     3     -44.388 -53.018  14.600  1.00  0.00     0.190 C 
HETATM    2  O   UNL     3     -44.389 -51.603  14.702  1.00  0.00    -0.379 OA
HETATM    3  C   UNL     3     -45.485 -51.155  15.477  1.00  0.00     0.168 C 
HETATM    4  C   UNL     3     -46.804 -51.482  14.772  1.00  0.00     0.028 C 
HETATM    5  C   UNL     3     -46.898 -52.996  14.578  1.00  0.00     0.040 C 
HETATM    6  C   UNL     3     -45.652 -53.497  13.824  1.00  0.00     0.251 C 
ENDROOT
BRANCH   1   7
HETATM    7  C   UNL     3     -43.091 -53.395  13.939  1.00  0.00     0.007 A 
HETATM    8  C   UNL     3     -41.973 -53.929  14.546  1.00  0.00     0.120 A 
HETATM    9  N   UNL     3     -41.006 -54.030  13.613  1.00  0.00    -0.307 N 
HETATM   10  C   UNL     3     -39.641 -54.494  13.830  1.00  0.00     0.177 C 
HETATM   11  N   UNL     3     -41.461 -53.606  12.443  1.00  0.00    -0.310 N 
HETATM   12  C   UNL     3     -42.738 -53.212  12.614  1.00  0.00     0.118 A 
ATOM     13  HN  UNL     3     -40.937 -53.582  11.569  1.00  0.00     0.186 HD
ENDBRANCH   1   7
BRANCH   6  14
HETATM   14  N   UNL     3     -45.714 -54.954  13.698  1.00  0.00     0.085 N 
HETATM   15  H   UNL     3     -46.689 -55.262  13.480  1.00  0.00     0.313 HD
HETATM   16  H   UNL     3     -45.397 -55.409  14.583  1.00  0.00     0.313 HD
ENDBRANCH   6  14
TORSDOF 2
ENDMDL
MODEL 8
REMARK VINA RESULT:      -4.4      7.104      7.820
REMARK  2 active torsions:
REMARK  status: ('A' for Active; 'I' for Inactive)
REMARK    1  A    between atoms: C_8  and  C_12 
REMARK    2  A    between atoms: C_17  and  N_18 
ROOT
HETATM    1  C   UNL     3     -42.045 -53.505  14.013  1.00  0.00     0.190 C 
HETATM    2  O   UNL     3     -42.044 -54.198  15.251  1.00  0.00    -0.379 OA
HETATM    3  C   UNL     3     -40.784 -54.093  15.886  1.00  0.00     0.168 C 
HETATM    4  C   UNL     3     -39.709 -54.802  15.058  1.00  0.00     0.028 C 
HETATM    5  C   UNL     3     -39.643 -54.151  13.675  1.00  0.00     0.040 C 
HETATM    6  C   UNL     3     -41.040 -54.174  13.027  1.00  0.00     0.251 C 
ENDROOT
BRANCH   1   7
HETATM    7  C   UNL     3     -43.467 -53.508  13.526  1.00  0.00     0.007 A 
HETATM    8  C   UNL     3     -44.160 -52.451  12.974  1.00  0.00     0.120 A 
HETATM    9  N   UNL     3     -45.428 -52.854  12.762  1.00  0.00    -0.307 N 
HETATM   10  C   UNL     3     -46.518 -52.038  12.242  1.00  0.00     0.177 C 
HETATM   11  N   UNL     3     -45.568 -54.118  13.131  1.00  0.00    -0.310 N 
HETATM   12  C   UNL     3     -44.380 -54.545  13.602  1.00  0.00     0.118 A 
ATOM     13  HN  UNL     3     -46.423 -54.670  13.070  1.00  0.00     0.186 HD
ENDBRANCH   1   7
BRANCH   6  14
HETATM   14  N   UNL     3     -40.987 -53.492  11.733  1.00  0.00     0.085 N 
HETATM   15  H   UNL     3     -41.921 -53.524  11.263  1.00  0.00     0.313 HD
HETATM   16  H   UNL     3     -40.273 -53.939  11.116  1.00  0.00     0.313 HD
ENDBRANCH   6  14
TORSDOF 2
ENDMDL
MODEL 9
REMARK VINA RESULT:      -4.3      5.203      7.201
REMARK  2 active torsions:
REMARK  status: ('A' for Active; 'I' for Inactive)
REMARK    1  A    between atoms: C_8  and  C_12 
REMARK    2  A    between atoms: C_17  and  N_18 
ROOT
HETATM    1  C   UNL     3     -41.314 -52.155  13.518  1.00  0.00     0.190 C 
HETATM    2  O   UNL     3     -42.359 -51.305  13.966  1.00  0.00    -0.379 OA
HETATM    3  C   UNL     3     -43.104 -51.923  14.998  1.00  0.00     0.168 C 
HETATM    4  C   UNL     3     -43.830 -53.161  14.463  1.00  0.00     0.028 C 
HETATM    5  C   UNL     3     -42.792 -54.144  13.919  1.00  0.00     0.040 C 
HETATM    6  C   UNL     3     -41.914 -53.439  12.869  1.00  0.00     0.251 C 
ENDROOT
BRANCH   1   7
HETATM    7  C   UNL     3     -40.473 -51.336  12.580  1.00  0.00     0.007 A 
HETATM    8  C   UNL     3     -39.107 -51.150  12.634  1.00  0.00     0.120 A 
HETATM    9  N   UNL     3     -38.771 -50.276  11.666  1.00  0.00    -0.307 N 
HETATM   10  C   UNL     3     -37.436 -49.754  11.400  1.00  0.00     0.177 C 
HETATM   11  N   UNL     3     -39.850 -49.915  10.989  1.00  0.00    -0.310 N 
HETATM   12  C   UNL     3     -40.909 -50.552  11.527  1.00  0.00     0.118 A 
ATOM     13  HN  UNL     3     -39.876 -49.269  10.200  1.00  0.00     0.186 HD
ENDBRANCH   1   7
BRANCH   6  14
HETATM   14  N   UNL     3     -40.881 -54.364  12.399  1.00  0.00     0.085 N 
HETATM   15  H   UNL     3     -39.964 -54.153  12.857  1.00  0.00     0.313 HD
HETATM   16  H   UNL     3     -40.775 -54.294  11.363  1.00  0.00     0.313 HD
ENDBRANCH   6  14
TORSDOF 2
ENDMDL
