MODEL 1
REMARK VINA RESULT:      -5.9      0.000      0.000
REMARK  4 active torsions:
REMARK  status: ('A' for Active; 'I' for Inactive)
REMARK    1  A    between atoms: C_2  and  C_4 
REMARK    2  A    between atoms: C_7  and  C_8 
REMARK    3  A    between atoms: C_8  and  C_9 
REMARK    4  A    between atoms: C_9  and  N_10 
REMARK       I    between atoms: N_10  and  C_11 
REMARK       I    between atoms: C_11  and  N_13 
ROOT
HETATM    1  C   UNL     1     -40.442 -49.959  11.035  1.00  0.00     0.130 C 
ENDROOT
BRANCH   1   2
HETATM    2  C   UNL     1     -40.484 -48.647  11.827  1.00  0.00     0.077 C 
BRANCH   2   3
HETATM    3  C   UNL     1     -41.355 -47.625  11.168  1.00  0.00     0.018 A 
HETATM    4  N   UNL     1     -42.212 -48.019  10.150  1.00  0.00    -0.356 N 
HETATM    5  C   UNL     1     -42.873 -46.979   9.685  1.00  0.00     0.054 A 
ATOM      6  HN  UNL     1     -42.315 -48.975   9.812  1.00  0.00     0.166 HD
HETATM    7  S   UNL     1     -42.526 -45.481  10.458  1.00  0.00    -0.086 SA
HETATM    8  C   UNL     1     -41.397 -46.277  11.465  1.00  0.00     0.076 A 
BRANCH   5   9
HETATM    9  C   UNL     1     -43.859 -47.027   8.545  1.00  0.00     0.035 C 
HETATM   10  C   UNL     1     -43.398 -48.026   7.484  1.00  0.00     0.016 C 
HETATM   11  C   UNL     1     -45.259 -47.381   9.048  1.00  0.00     0.016 C 
ENDBRANCH   5   9
ENDBRANCH   2   3
ENDBRANCH   1   2
BRANCH   1  12
HETATM   12  N   UNL     1     -41.315 -51.007  11.554  1.00  0.00    -0.343 N 
HETATM   13  C   UNL     1     -40.806 -52.041  12.294  1.00  0.00     0.318 C 
HETATM   14  O   UNL     1     -39.602 -52.136  12.520  1.00  0.00    -0.247 OA
HETATM   15  N   UNL     1     -41.720 -52.983  12.732  1.00  0.00    -0.333 N 
HETATM   16  C   UNL     1     -43.174 -52.977  12.508  1.00  0.00     0.137 C 
HETATM   17  C   UNL     1     -41.206 -54.188  13.392  1.00  0.00     0.137 C 
HETATM   18  C   UNL     1     -43.957 -53.026  13.823  1.00  0.00     0.093 C 
HETATM   19  S   UNL     1     -43.585 -54.525  14.797  1.00  0.00    -0.166 SA
HETATM   20  C   UNL     1     -41.765 -54.377  14.800  1.00  0.00     0.093 C 
HETATM   21  H   UNL     1     -42.216 -50.675  11.857  1.00  0.00     0.164 HD
ENDBRANCH   1  12
TORSDOF 4
ENDMDL
MODEL 2
REMARK VINA RESULT:      -5.7      3.551      6.525
REMARK  4 active torsions:
REMARK  status: ('A' for Active; 'I' for Inactive)
REMARK    1  A    between atoms: C_2  and  C_4 
REMARK    2  A    between atoms: C_7  and  C_8 
REMARK    3  A    between atoms: C_8  and  C_9 
REMARK    4  A    between atoms: C_9  and  N_10 
REMARK       I    between atoms: N_10  and  C_11 
REMARK       I    between atoms: C_11  and  N_13 
ROOT
HETATM    1  C   UNL     1     -41.156 -54.171  13.126  1.00  0.00     0.130 C 
ENDROOT
BRANCH   1   2
HETATM    2  C   UNL     1     -41.897 -54.398  14.449  1.00  0.00     0.077 C 
BRANCH   2   3
HETATM    3  C   UNL     1     -43.364 -54.135  14.320  1.00  0.00     0.018 A 
HETATM    4  N   UNL     1     -43.800 -52.848  14.037  1.00  0.00    -0.356 N 
HETATM    5  C   UNL     1     -45.116 -52.815  13.985  1.00  0.00     0.054 A 
ATOM      6  HN  UNL     1     -43.190 -52.044  13.891  1.00  0.00     0.166 HD
HETATM    7  S   UNL     1     -45.900 -54.325  14.243  1.00  0.00    -0.086 SA
HETATM    8  C   UNL     1     -44.374 -55.065  14.464  1.00  0.00     0.076 A 
BRANCH   5   9
HETATM    9  C   UNL     1     -45.936 -51.573  13.744  1.00  0.00     0.035 C 
HETATM   10  C   UNL     1     -46.668 -51.669  12.406  1.00  0.00     0.016 C 
HETATM   11  C   UNL     1     -46.926 -51.342  14.887  1.00  0.00     0.016 C 
ENDBRANCH   5   9
ENDBRANCH   2   3
ENDBRANCH   1   2
BRANCH   1  12
HETATM   12  N   UNL     1     -40.171 -53.095  13.163  1.00  0.00    -0.343 N 
HETATM   13  C   UNL     1     -40.482 -51.843  12.702  1.00  0.00     0.318 C 
HETATM   14  O   UNL     1     -41.584 -51.593  12.220  1.00  0.00    -0.247 OA
HETATM   15  N   UNL     1     -39.473 -50.899  12.777  1.00  0.00    -0.333 N 
HETATM   16  C   UNL     1     -38.119 -51.092  13.319  1.00  0.00     0.137 C 
HETATM   17  C   UNL     1     -39.704 -49.592  12.156  1.00  0.00     0.137 C 
HETATM   18  C   UNL     1     -37.803 -50.101  14.442  1.00  0.00     0.093 C 
HETATM   19  S   UNL     1     -37.900 -48.366  13.885  1.00  0.00    -0.166 SA
HETATM   20  C   UNL     1     -39.566 -48.433  13.141  1.00  0.00     0.093 C 
HETATM   21  H   UNL     1     -39.579 -53.110  13.978  1.00  0.00     0.164 HD
ENDBRANCH   1  12
TORSDOF 4
ENDMDL
MODEL 3
REMARK VINA RESULT:      -5.4      2.196      6.533
REMARK  4 active torsions:
REMARK  status: ('A' for Active; 'I' for Inactive)
REMARK    1  A    between atoms: C_2  and  C_4 
REMARK    2  A    between atoms: C_7  and  C_8 
REMARK    3  A    between atoms: C_8  and  C_9 
REMARK    4  A    between atoms: C_9  and  N_10 
REMARK       I    between atoms: N_10  and  C_11 
REMARK       I    between atoms: C_11  and  N_13 
ROOT
HETATM    1  C   UNL     1     -40.520 -51.174  12.492  1.00  0.00     0.130 C 
ENDROOT
BRANCH   1   2
HETATM    2  C   UNL     1     -41.304 -52.355  11.907  1.00  0.00     0.077 C 
BRANCH   2   3
HETATM    3  C   UNL     1     -42.579 -52.602  12.651  1.00  0.00     0.018 A 
HETATM    4  N   UNL     1     -43.658 -51.754  12.445  1.00  0.00    -0.356 N 
HETATM    5  C   UNL     1     -44.673 -52.119  13.201  1.00  0.00     0.054 A 
ATOM      6  HN  UNL     1     -43.664 -50.962  11.803  1.00  0.00     0.166 HD
HETATM    7  S   UNL     1     -44.400 -53.512  14.175  1.00  0.00    -0.086 SA
HETATM    8  C   UNL     1     -42.808 -53.614  13.560  1.00  0.00     0.076 A 
BRANCH   5   9
HETATM    9  C   UNL     1     -45.996 -51.399  13.271  1.00  0.00     0.035 C 
HETATM   10  C   UNL     1     -46.875 -51.784  12.082  1.00  0.00     0.016 C 
HETATM   11  C   UNL     1     -46.711 -51.697  14.590  1.00  0.00     0.016 C 
ENDBRANCH   5   9
ENDBRANCH   2   3
ENDBRANCH   1   2
BRANCH   1  12
HETATM   12  N   UNL     1     -40.857 -49.878  11.910  1.00  0.00    -0.343 N 
HETATM   13  C   UNL     1     -41.668 -49.000  12.579  1.00  0.00     0.318 C 
HETATM   14  O   UNL     1     -42.157 -49.282  13.671  1.00  0.00    -0.247 OA
HETATM   15  N   UNL     1     -41.930 -47.803  11.935  1.00  0.00    -0.333 N 
HETATM   16  C   UNL     1     -41.413 -47.370  10.628  1.00  0.00     0.137 C 
HETATM   17  C   UNL     1     -42.913 -46.897  12.537  1.00  0.00     0.137 C 
HETATM   18  C   UNL     1     -40.663 -46.038  10.720  1.00  0.00     0.093 C 
HETATM   19  S   UNL     1     -41.724 -44.686  11.337  1.00  0.00    -0.166 SA
HETATM   20  C   UNL     1     -42.339 -45.516  12.842  1.00  0.00     0.093 C 
HETATM   21  H   UNL     1     -40.103 -49.451  11.398  1.00  0.00     0.164 HD
ENDBRANCH   1  12
TORSDOF 4
ENDMDL
MODEL 4
REMARK VINA RESULT:      -5.3      1.810      2.347
REMARK  4 active torsions:
REMARK  status: ('A' for Active; 'I' for Inactive)
REMARK    1  A    between atoms: C_2  and  C_4 
REMARK    2  A    between atoms: C_7  and  C_8 
REMARK    3  A    between atoms: C_8  and  C_9 
REMARK    4  A    between atoms: C_9  and  N_10 
REMARK       I    between atoms: N_10  and  C_11 
REMARK       I    between atoms: C_11  and  N_13 
ROOT
HETATM    1  C   UNL     1     -41.196 -51.378  11.765  1.00  0.00     0.130 C 
ENDROOT
BRANCH   1   2
HETATM    2  C   UNL     1     -40.644 -50.062  12.328  1.00  0.00     0.077 C 
BRANCH   2   3
HETATM    3  C   UNL     1     -41.476 -48.888  11.920  1.00  0.00     0.018 A 
HETATM    4  N   UNL     1     -42.178 -48.938  10.724  1.00  0.00    -0.356 N 
HETATM    5  C   UNL     1     -42.828 -47.808  10.531  1.00  0.00     0.054 A 
ATOM      6  HN  UNL     1     -42.188 -49.733  10.086  1.00  0.00     0.166 HD
HETATM    7  S   UNL     1     -42.657 -46.639  11.783  1.00  0.00    -0.086 SA
HETATM    8  C   UNL     1     -41.624 -47.710  12.624  1.00  0.00     0.076 A 
BRANCH   5   9
HETATM    9  C   UNL     1     -43.659 -47.491   9.314  1.00  0.00     0.035 C 
HETATM   10  C   UNL     1     -45.148 -47.568   9.651  1.00  0.00     0.016 C 
HETATM   11  C   UNL     1     -43.303 -46.114   8.752  1.00  0.00     0.016 C 
ENDBRANCH   5   9
ENDBRANCH   2   3
ENDBRANCH   1   2
BRANCH   1  12
HETATM   12  N   UNL     1     -42.583 -51.654  12.127  1.00  0.00    -0.343 N 
HETATM   13  C   UNL     1     -42.936 -52.854  12.684  1.00  0.00     0.318 C 
HETATM   14  O   UNL     1     -42.108 -53.742  12.873  1.00  0.00    -0.247 OA
HETATM   15  N   UNL     1     -44.278 -53.014  12.982  1.00  0.00    -0.333 N 
HETATM   16  C   UNL     1     -45.352 -52.029  12.786  1.00  0.00     0.137 C 
HETATM   17  C   UNL     1     -44.731 -54.334  13.435  1.00  0.00     0.137 C 
HETATM   18  C   UNL     1     -46.097 -51.725  14.089  1.00  0.00     0.093 C 
HETATM   19  S   UNL     1     -46.876 -53.211  14.806  1.00  0.00    -0.166 SA
HETATM   20  C   UNL     1     -45.405 -54.292  14.804  1.00  0.00     0.093 C 
HETATM   21  H   UNL     1     -43.077 -50.857  12.492  1.00  0.00     0.164 HD
ENDBRANCH   1  12
TORSDOF 4
ENDMDL
MODEL 5
REMARK VINA RESULT:      -5.3      2.096      2.462
REMARK  4 active torsions:
REMARK  status: ('A' for Active; 'I' for Inactive)
REMARK    1  A    between atoms: C_2  and  C_4 
REMARK    2  A    between atoms: C_7  and  C_8 
REMARK    3  A    between atoms: C_8  and  C_9 
REMARK    4  A    between atoms: C_9  and  N_10 
REMARK       I    between atoms: N_10  and  C_11 
REMARK       I    between atoms: C_11  and  N_13 
ROOT
HETATM    1  C   UNL     1     -40.943 -50.822  11.642  1.00  0.00     0.130 C 
ENDROOT
BRANCH   1   2
HETATM    2  C   UNL     1     -40.201 -49.529  11.282  1.00  0.00     0.077 C 
BRANCH   2   3
HETATM    3  C   UNL     1     -41.146 -48.408  10.983  1.00  0.00     0.018 A 
HETATM    4  N   UNL     1     -41.949 -48.480   9.854  1.00  0.00    -0.356 N 
HETATM    5  C   UNL     1     -42.690 -47.395   9.752  1.00  0.00     0.054 A 
ATOM      6  HN  UNL     1     -41.963 -49.260   9.197  1.00  0.00     0.166 HD
HETATM    7  S   UNL     1     -42.487 -46.246  11.017  1.00  0.00    -0.086 SA
HETATM    8  C   UNL     1     -41.310 -47.259  11.731  1.00  0.00     0.076 A 
BRANCH   5   9
HETATM    9  C   UNL     1     -43.648 -47.112   8.623  1.00  0.00     0.035 C 
HETATM   10  C   UNL     1     -43.388 -48.060   7.453  1.00  0.00     0.016 C 
HETATM   11  C   UNL     1     -45.098 -47.223   9.097  1.00  0.00     0.016 C 
ENDBRANCH   5   9
ENDBRANCH   2   3
ENDBRANCH   1   2
BRANCH   1  12
HETATM   12  N   UNL     1     -40.673 -51.317  12.988  1.00  0.00    -0.343 N 
HETATM   13  C   UNL     1     -40.476 -52.653  13.216  1.00  0.00     0.318 C 
HETATM   14  O   UNL     1     -40.547 -53.477  12.307  1.00  0.00    -0.247 OA
HETATM   15  N   UNL     1     -40.235 -53.017  14.529  1.00  0.00    -0.333 N 
HETATM   16  C   UNL     1     -40.144 -52.121  15.693  1.00  0.00     0.137 C 
HETATM   17  C   UNL     1     -40.172 -54.446  14.849  1.00  0.00     0.137 C 
HETATM   18  C   UNL     1     -38.808 -52.266  16.426  1.00  0.00     0.093 C 
HETATM   19  S   UNL     1     -38.538 -53.961  17.049  1.00  0.00    -0.166 SA
HETATM   20  C   UNL     1     -38.846 -54.854  15.487  1.00  0.00     0.093 C 
HETATM   21  H   UNL     1     -40.097 -50.705  13.541  1.00  0.00     0.164 HD
ENDBRANCH   1  12
TORSDOF 4
ENDMDL
MODEL 6
REMARK VINA RESULT:      -5.3      1.817      6.941
REMARK  4 active torsions:
REMARK  status: ('A' for Active; 'I' for Inactive)
REMARK    1  A    between atoms: C_2  and  C_4 
REMARK    2  A    between atoms: C_7  and  C_8 
REMARK    3  A    between atoms: C_8  and  C_9 
REMARK    4  A    between atoms: C_9  and  N_10 
REMARK       I    between atoms: N_10  and  C_11 
REMARK       I    between atoms: C_11  and  N_13 
ROOT
HETATM    1  C   UNL     1     -41.112 -50.971  12.151  1.00  0.00     0.130 C 
ENDROOT
BRANCH   1   2
HETATM    2  C   UNL     1     -41.525 -52.390  11.742  1.00  0.00     0.077 C 
BRANCH   2   3
HETATM    3  C   UNL     1     -42.569 -52.952  12.654  1.00  0.00     0.018 A 
HETATM    4  N   UNL     1     -43.893 -52.573  12.483  1.00  0.00    -0.356 N 
HETATM    5  C   UNL     1     -44.653 -53.153  13.391  1.00  0.00     0.054 A 
ATOM      6  HN  UNL     1     -44.230 -51.936  11.761  1.00  0.00     0.166 HD
HETATM    7  S   UNL     1     -43.828 -54.205  14.476  1.00  0.00    -0.086 SA
HETATM    8  C   UNL     1     -42.354 -53.836  13.692  1.00  0.00     0.076 A 
BRANCH   5   9
HETATM    9  C   UNL     1     -46.138 -52.936  13.535  1.00  0.00     0.035 C 
HETATM   10  C   UNL     1     -46.691 -53.788  14.677  1.00  0.00     0.016 C 
HETATM   11  C   UNL     1     -46.454 -51.457  13.762  1.00  0.00     0.016 C 
ENDBRANCH   5   9
ENDBRANCH   2   3
ENDBRANCH   1   2
BRANCH   1  12
HETATM   12  N   UNL     1     -41.998 -49.919  11.660  1.00  0.00    -0.343 N 
HETATM   13  C   UNL     1     -41.595 -48.610  11.654  1.00  0.00     0.318 C 
HETATM   14  O   UNL     1     -40.494 -48.276  12.084  1.00  0.00    -0.247 OA
HETATM   15  N   UNL     1     -42.514 -47.694  11.175  1.00  0.00    -0.333 N 
HETATM   16  C   UNL     1     -43.859 -47.979  10.652  1.00  0.00     0.137 C 
HETATM   17  C   UNL     1     -42.192 -46.268  11.292  1.00  0.00     0.137 C 
HETATM   18  C   UNL     1     -44.046 -47.452   9.227  1.00  0.00     0.093 C 
HETATM   19  S   UNL     1     -43.818 -45.644   9.121  1.00  0.00    -0.166 SA
HETATM   20  C   UNL     1     -42.192 -45.547   9.946  1.00  0.00     0.093 C 
HETATM   21  H   UNL     1     -42.558 -50.192  10.869  1.00  0.00     0.164 HD
ENDBRANCH   1  12
TORSDOF 4
ENDMDL
MODEL 7
REMARK VINA RESULT:      -5.1      4.676      6.980
REMARK  4 active torsions:
REMARK  status: ('A' for Active; 'I' for Inactive)
REMARK    1  A    between atoms: C_2  and  C_4 
REMARK    2  A    between atoms: C_7  and  C_8 
REMARK    3  A    between atoms: C_8  and  C_9 
REMARK    4  A    between atoms: C_9  and  N_10 
REMARK       I    between atoms: N_10  and  C_11 
REMARK       I    between atoms: C_11  and  N_13 
ROOT
HETATM    1  C   UNL     1     -40.975 -52.727  11.954  1.00  0.00     0.130 C 
ENDROOT
BRANCH   1   2
HETATM    2  C   UNL     1     -40.164 -51.734  12.796  1.00  0.00     0.077 C 
BRANCH   2   3
HETATM    3  C   UNL     1     -39.666 -52.354  14.064  1.00  0.00     0.018 A 
HETATM    4  N   UNL     1     -39.556 -53.734  14.145  1.00  0.00    -0.356 N 
HETATM    5  C   UNL     1     -39.124 -54.086  15.340  1.00  0.00     0.054 A 
ATOM      6  HN  UNL     1     -39.777 -54.383  13.391  1.00  0.00     0.166 HD
HETATM    7  S   UNL     1     -38.800 -52.783  16.417  1.00  0.00    -0.086 SA
HETATM    8  C   UNL     1     -39.296 -51.679  15.210  1.00  0.00     0.076 A 
BRANCH   5   9
HETATM    9  C   UNL     1     -38.929 -55.509  15.799  1.00  0.00     0.035 C 
HETATM   10  C   UNL     1     -37.681 -55.619  16.675  1.00  0.00     0.016 C 
HETATM   11  C   UNL     1     -40.162 -56.015  16.549  1.00  0.00     0.016 C 
ENDBRANCH   5   9
ENDBRANCH   2   3
ENDBRANCH   1   2
BRANCH   1  12
HETATM   12  N   UNL     1     -42.408 -52.724  12.231  1.00  0.00    -0.343 N 
HETATM   13  C   UNL     1     -42.964 -53.666  13.056  1.00  0.00     0.318 C 
HETATM   14  O   UNL     1     -42.285 -54.555  13.564  1.00  0.00    -0.247 OA
HETATM   15  N   UNL     1     -44.332 -53.576  13.245  1.00  0.00    -0.333 N 
HETATM   16  C   UNL     1     -45.240 -52.568  12.678  1.00  0.00     0.137 C 
HETATM   17  C   UNL     1     -44.996 -54.650  13.991  1.00  0.00     0.137 C 
HETATM   18  C   UNL     1     -46.019 -51.820  13.764  1.00  0.00     0.093 C 
HETATM   19  S   UNL     1     -47.047 -52.939  14.775  1.00  0.00    -0.166 SA
HETATM   20  C   UNL     1     -45.748 -54.142  15.220  1.00  0.00     0.093 C 
HETATM   21  H   UNL     1     -42.807 -51.803  12.313  1.00  0.00     0.164 HD
ENDBRANCH   1  12
TORSDOF 4
ENDMDL
MODEL 8
REMARK VINA RESULT:      -5.0      2.251      2.955
REMARK  4 active torsions:
REMARK  status: ('A' for Active; 'I' for Inactive)
REMARK    1  A    between atoms: C_2  and  C_4 
REMARK    2  A    between atoms: C_7  and  C_8 
REMARK    3  A    between atoms: C_8  and  C_9 
REMARK    4  A    between atoms: C_9  and  N_10 
REMARK       I    between atoms: N_10  and  C_11 
REMARK       I    between atoms: C_11  and  N_13 
ROOT
HETATM    1  C   UNL     1     -38.241 -51.076  12.880  1.00  0.00     0.130 C 
ENDROOT
BRANCH   1   2
HETATM    2  C   UNL     1     -37.841 -49.885  12.002  1.00  0.00     0.077 C 
BRANCH   2   3
HETATM    3  C   UNL     1     -38.581 -48.640  12.378  1.00  0.00     0.018 A 
HETATM    4  N   UNL     1     -39.341 -47.987  11.418  1.00  0.00    -0.356 N 
HETATM    5  C   UNL     1     -39.894 -46.907  11.933  1.00  0.00     0.054 A 
ATOM      6  HN  UNL     1     -39.455 -48.298  10.453  1.00  0.00     0.166 HD
HETATM    7  S   UNL     1     -39.556 -46.632  13.598  1.00  0.00    -0.086 SA
HETATM    8  C   UNL     1     -38.586 -48.039  13.620  1.00  0.00     0.076 A 
BRANCH   5   9
HETATM    9  C   UNL     1     -40.750 -45.931  11.166  1.00  0.00     0.035 C 
HETATM   10  C   UNL     1     -39.883 -45.067  10.251  1.00  0.00     0.016 C 
HETATM   11  C   UNL     1     -41.824 -46.663  10.360  1.00  0.00     0.016 C 
ENDBRANCH   5   9
ENDBRANCH   2   3
ENDBRANCH   1   2
BRANCH   1  12
HETATM   12  N   UNL     1     -39.653 -51.436  12.802  1.00  0.00    -0.343 N 
HETATM   13  C   UNL     1     -40.081 -52.679  13.185  1.00  0.00     0.318 C 
HETATM   14  O   UNL     1     -39.294 -53.537  13.577  1.00  0.00    -0.247 OA
HETATM   15  N   UNL     1     -41.439 -52.919  13.064  1.00  0.00    -0.333 N 
HETATM   16  C   UNL     1     -42.466 -51.976  12.594  1.00  0.00     0.137 C 
HETATM   17  C   UNL     1     -41.924 -54.280  13.311  1.00  0.00     0.137 C 
HETATM   18  C   UNL     1     -43.579 -51.777  13.627  1.00  0.00     0.093 C 
HETATM   19  S   UNL     1     -44.443 -53.335  14.024  1.00  0.00    -0.166 SA
HETATM   20  C   UNL     1     -42.974 -54.344  14.419  1.00  0.00     0.093 C 
HETATM   21  H   UNL     1     -40.281 -50.683  13.035  1.00  0.00     0.164 HD
ENDBRANCH   1  12
TORSDOF 4
ENDMDL
MODEL 9
REMARK VINA RESULT:      -4.8      2.467      3.318
REMARK  4 active torsions:
REMARK  status: ('A' for Active; 'I' for Inactive)
REMARK    1  A    between atoms: C_2  and  C_4 
REMARK    2  A    between atoms: C_7  and  C_8 
REMARK    3  A    between atoms: C_8  and  C_9 
REMARK    4  A    between atoms: C_9  and  N_10 
REMARK       I    between atoms: N_10  and  C_11 
REMARK       I    between atoms: C_11  and  N_13 
ROOT
HETATM    1  C   UNL     1     -39.910 -50.412  11.476  1.00  0.00     0.130 C 
ENDROOT
BRANCH   1   2
HETATM    2  C   UNL     1     -38.989 -49.650  12.437  1.00  0.00     0.077 C 
BRANCH   2   3
HETATM    3  C   UNL     1     -39.295 -48.186  12.460  1.00  0.00     0.018 A 
HETATM    4  N   UNL     1     -39.887 -47.599  11.350  1.00  0.00    -0.356 N 
HETATM    5  C   UNL     1     -40.055 -46.308  11.554  1.00  0.00     0.054 A 
ATOM      6  HN  UNL     1     -40.153 -48.096  10.500  1.00  0.00     0.166 HD
HETATM    7  S   UNL     1     -39.541 -45.734  13.093  1.00  0.00    -0.086 SA
HETATM    8  C   UNL     1     -39.037 -47.316  13.500  1.00  0.00     0.076 A 
BRANCH   5   9
HETATM    9  C   UNL     1     -40.629 -45.346  10.544  1.00  0.00     0.035 C 
HETATM   10  C   UNL     1     -42.109 -45.644  10.308  1.00  0.00     0.016 C 
HETATM   11  C   UNL     1     -40.435 -43.899  10.998  1.00  0.00     0.016 C 
ENDBRANCH   5   9
ENDBRANCH   2   3
ENDBRANCH   1   2
BRANCH   1  12
HETATM   12  N   UNL     1     -40.955 -51.191  12.134  1.00  0.00    -0.343 N 
HETATM   13  C   UNL     1     -42.160 -50.623  12.448  1.00  0.00     0.318 C 
HETATM   14  O   UNL     1     -42.392 -49.439  12.214  1.00  0.00    -0.247 OA
HETATM   15  N   UNL     1     -43.077 -51.448  13.075  1.00  0.00    -0.333 N 
HETATM   16  C   UNL     1     -42.901 -52.868  13.416  1.00  0.00     0.137 C 
HETATM   17  C   UNL     1     -44.320 -50.848  13.571  1.00  0.00     0.137 C 
HETATM   18  C   UNL     1     -43.994 -53.746  12.798  1.00  0.00     0.093 C 
HETATM   19  S   UNL     1     -45.664 -53.276  13.365  1.00  0.00    -0.166 SA
HETATM   20  C   UNL     1     -45.569 -51.495  12.978  1.00  0.00     0.093 C 
HETATM   21  H   UNL     1     -41.007 -52.148  11.825  1.00  0.00     0.164 HD
ENDBRANCH   1  12
TORSDOF 4
ENDMDL
