MODEL 1
REMARK VINA RESULT:      -6.3      0.000      0.000
REMARK  5 active torsions:
REMARK  status: ('A' for Active; 'I' for Inactive)
REMARK    1  A    between atoms: N_1  and  C_2 
REMARK    2  A    between atoms: N_11  and  C_12 
REMARK    3  A    between atoms: C_12  and  C_13 
REMARK    4  A    between atoms: C_13  and  N_14 
REMARK       I    between atoms: N_14  and  C_15 
REMARK    5  A    between atoms: C_15  and  C_17 
ROOT
HETATM    1  C   UNL     1     -40.632 -48.056  11.143  1.00  0.00     0.680 A 
HETATM    2  N   UNL     1     -40.060 -48.757  12.091  1.00  0.00    -0.179 N 
ATOM      3  HN  UNL     1     -40.031 -49.773  12.173  1.00  0.00     0.185 HD
HETATM    4  C   UNL     1     -39.506 -47.841  12.949  1.00  0.00     0.167 A 
HETATM    5  C   UNL     1     -38.782 -48.254  14.113  1.00  0.00     0.121 C 
HETATM    6  N   UNL     1     -38.181 -48.557  15.061  1.00  0.00    -0.190 NA
HETATM    7  C   UNL     1     -39.752 -46.556  12.517  1.00  0.00     0.170 A 
HETATM    8  C   UNL     1     -39.358 -45.338  13.118  1.00  0.00     0.121 C 
HETATM    9  N   UNL     1     -39.066 -44.314  13.580  1.00  0.00    -0.190 NA
HETATM   10  N   UNL     1     -40.467 -46.703  11.347  1.00  0.00    -0.169 N 
ENDROOT
BRANCH   1  11
HETATM   11  N   UNL     1     -41.299 -48.574  10.107  1.00  0.00    -0.234 N 
HETATM   12  H   UNL     1     -41.074 -48.216   9.183  1.00  0.00     0.174 HD
HETATM   13  H   UNL     1     -42.202 -49.037  10.164  1.00  0.00     0.174 HD
ENDBRANCH   1  11
BRANCH  10  14
HETATM   14  C   UNL     1     -40.862 -45.627  10.449  1.00  0.00     0.168 C 
BRANCH  14  15
HETATM   15  C   UNL     1     -42.202 -44.971  10.810  1.00  0.00     0.143 C 
BRANCH  15  16
HETATM   16  N   UNL     1     -43.360 -45.847  10.618  1.00  0.00    -0.359 N 
HETATM   17  C   UNL     1     -43.777 -46.204   9.351  1.00  0.00     0.221 C 
HETATM   18  O   UNL     1     -43.284 -45.699   8.346  1.00  0.00    -0.273 OA
HETATM   19  H   UNL     1     -43.656 -46.423  11.397  1.00  0.00     0.162 HD
BRANCH  17  20
HETATM   20  C   UNL     1     -44.813 -47.328   9.294  1.00  0.00     0.078 C 
HETATM   21  C   UNL     1     -44.745 -48.128   7.985  1.00  0.00     0.014 C 
HETATM   22  C   UNL     1     -46.138 -48.722   7.773  1.00  0.00     0.001 C 
HETATM   23  C   UNL     1     -47.015 -48.136   8.873  1.00  0.00     0.001 C 
HETATM   24  C   UNL     1     -46.273 -46.887   9.335  1.00  0.00     0.014 C 
ENDBRANCH  17  20
ENDBRANCH  15  16
ENDBRANCH  14  15
ENDBRANCH  10  14
TORSDOF 5
ENDMDL
MODEL 2
REMARK VINA RESULT:      -6.3      3.878      5.254
REMARK  5 active torsions:
REMARK  status: ('A' for Active; 'I' for Inactive)
REMARK    1  A    between atoms: N_1  and  C_2 
REMARK    2  A    between atoms: N_11  and  C_12 
REMARK    3  A    between atoms: C_12  and  C_13 
REMARK    4  A    between atoms: C_13  and  N_14 
REMARK       I    between atoms: N_14  and  C_15 
REMARK    5  A    between atoms: C_15  and  C_17 
ROOT
HETATM    1  C   UNL     1     -40.980 -48.885  10.671  1.00  0.00     0.680 A 
HETATM    2  N   UNL     1     -41.740 -48.267   9.800  1.00  0.00    -0.179 N 
ATOM      3  HN  UNL     1     -42.034 -48.612   8.886  1.00  0.00     0.185 HD
HETATM    4  C   UNL     1     -42.058 -47.062  10.372  1.00  0.00     0.167 A 
HETATM    5  C   UNL     1     -42.896 -46.115   9.698  1.00  0.00     0.121 C 
HETATM    6  N   UNL     1     -43.579 -45.330   9.181  1.00  0.00    -0.190 NA
HETATM    7  C   UNL     1     -41.476 -46.941  11.614  1.00  0.00     0.170 A 
HETATM    8  C   UNL     1     -41.554 -45.857  12.518  1.00  0.00     0.121 C 
HETATM    9  N   UNL     1     -41.581 -44.988  13.287  1.00  0.00    -0.190 NA
HETATM   10  N   UNL     1     -40.792 -48.124  11.805  1.00  0.00    -0.169 N 
ENDROOT
BRANCH   1  11
HETATM   11  N   UNL     1     -40.444 -50.096  10.493  1.00  0.00    -0.234 N 
HETATM   12  H   UNL     1     -40.976 -50.764   9.943  1.00  0.00     0.174 HD
HETATM   13  H   UNL     1     -39.741 -50.519  11.092  1.00  0.00     0.174 HD
ENDBRANCH   1  11
BRANCH  10  14
HETATM   14  C   UNL     1     -40.108 -48.525  13.026  1.00  0.00     0.168 C 
BRANCH  14  15
HETATM   15  C   UNL     1     -40.734 -49.741  13.722  1.00  0.00     0.143 C 
BRANCH  15  16
HETATM   16  N   UNL     1     -42.190 -49.663  13.852  1.00  0.00    -0.359 N 
HETATM   17  C   UNL     1     -43.007 -50.598  13.249  1.00  0.00     0.221 C 
HETATM   18  O   UNL     1     -42.559 -51.441  12.476  1.00  0.00    -0.273 OA
HETATM   19  H   UNL     1     -42.572 -49.121  14.619  1.00  0.00     0.162 HD
BRANCH  17  20
HETATM   20  C   UNL     1     -44.474 -50.565  13.683  1.00  0.00     0.078 C 
HETATM   21  C   UNL     1     -44.643 -50.717  15.202  1.00  0.00     0.014 C 
HETATM   22  C   UNL     1     -46.040 -51.301  15.420  1.00  0.00     0.001 C 
HETATM   23  C   UNL     1     -46.585 -51.613  14.031  1.00  0.00     0.001 C 
HETATM   24  C   UNL     1     -45.352 -51.688  13.139  1.00  0.00     0.014 C 
ENDBRANCH  17  20
ENDBRANCH  15  16
ENDBRANCH  14  15
ENDBRANCH  10  14
TORSDOF 5
ENDMDL
MODEL 3
REMARK VINA RESULT:      -6.2      3.600      4.859
REMARK  5 active torsions:
REMARK  status: ('A' for Active; 'I' for Inactive)
REMARK    1  A    between atoms: N_1  and  C_2 
REMARK    2  A    between atoms: N_11  and  C_12 
REMARK    3  A    between atoms: C_12  and  C_13 
REMARK    4  A    between atoms: C_13  and  N_14 
REMARK       I    between atoms: N_14  and  C_15 
REMARK    5  A    between atoms: C_15  and  C_17 
ROOT
HETATM    1  C   UNL     1     -41.812 -52.411  11.970  1.00  0.00     0.680 A 
HETATM    2  N   UNL     1     -43.035 -52.796  12.244  1.00  0.00    -0.179 N 
ATOM      3  HN  UNL     1     -43.463 -53.693  12.014  1.00  0.00     0.185 HD
HETATM    4  C   UNL     1     -43.619 -51.744  12.901  1.00  0.00     0.167 A 
HETATM    5  C   UNL     1     -44.971 -51.814  13.366  1.00  0.00     0.121 C 
HETATM    6  N   UNL     1     -46.063 -51.843  13.763  1.00  0.00    -0.190 NA
HETATM    7  C   UNL     1     -42.734 -50.695  13.026  1.00  0.00     0.170 A 
HETATM    8  C   UNL     1     -42.948 -49.435  13.632  1.00  0.00     0.121 C 
HETATM    9  N   UNL     1     -43.080 -48.386  14.110  1.00  0.00    -0.190 NA
HETATM   10  N   UNL     1     -41.570 -51.136  12.434  1.00  0.00    -0.169 N 
ENDROOT
BRANCH   1  11
HETATM   11  N   UNL     1     -40.907 -53.148  11.320  1.00  0.00    -0.234 N 
HETATM   12  H   UNL     1     -39.943 -52.827  11.341  1.00  0.00     0.174 HD
HETATM   13  H   UNL     1     -41.111 -53.794  10.563  1.00  0.00     0.174 HD
ENDBRANCH   1  11
BRANCH  10  14
HETATM   14  C   UNL     1     -40.300 -50.424  12.418  1.00  0.00     0.168 C 
BRANCH  14  15
HETATM   15  C   UNL     1     -40.036 -49.646  11.122  1.00  0.00     0.143 C 
BRANCH  15  16
HETATM   16  N   UNL     1     -41.253 -49.185  10.451  1.00  0.00    -0.359 N 
HETATM   17  C   UNL     1     -41.675 -47.876  10.566  1.00  0.00     0.221 C 
HETATM   18  O   UNL     1     -41.130 -47.090  11.337  1.00  0.00    -0.273 OA
HETATM   19  H   UNL     1     -41.604 -49.731   9.672  1.00  0.00     0.162 HD
BRANCH  17  20
HETATM   20  C   UNL     1     -42.792 -47.459   9.608  1.00  0.00     0.078 C 
HETATM   21  C   UNL     1     -42.826 -45.943   9.364  1.00  0.00     0.014 C 
HETATM   22  C   UNL     1     -44.265 -45.604   8.973  1.00  0.00     0.001 C 
HETATM   23  C   UNL     1     -45.060 -46.893   9.144  1.00  0.00     0.001 C 
HETATM   24  C   UNL     1     -44.214 -47.749  10.080  1.00  0.00     0.014 C 
ENDBRANCH  17  20
ENDBRANCH  15  16
ENDBRANCH  14  15
ENDBRANCH  10  14
TORSDOF 5
ENDMDL
MODEL 4
REMARK VINA RESULT:      -6.1      5.728      6.984
REMARK  5 active torsions:
REMARK  status: ('A' for Active; 'I' for Inactive)
REMARK    1  A    between atoms: N_1  and  C_2 
REMARK    2  A    between atoms: N_11  and  C_12 
REMARK    3  A    between atoms: C_12  and  C_13 
REMARK    4  A    between atoms: C_13  and  N_14 
REMARK       I    between atoms: N_14  and  C_15 
REMARK    5  A    between atoms: C_15  and  C_17 
ROOT
HETATM    1  C   UNL     1     -40.574 -52.211  12.091  1.00  0.00     0.680 A 
HETATM    2  N   UNL     1     -40.059 -51.006  12.089  1.00  0.00    -0.179 N 
ATOM      3  HN  UNL     1     -40.139 -50.304  11.353  1.00  0.00     0.185 HD
HETATM    4  C   UNL     1     -39.393 -50.883  13.282  1.00  0.00     0.167 A 
HETATM    5  C   UNL     1     -38.708 -49.675  13.632  1.00  0.00     0.121 C 
HETATM    6  N   UNL     1     -38.150 -48.706  13.949  1.00  0.00    -0.190 NA
HETATM    7  C   UNL     1     -39.500 -52.040  14.022  1.00  0.00     0.170 A 
HETATM    8  C   UNL     1     -38.955 -52.318  15.297  1.00  0.00     0.121 C 
HETATM    9  N   UNL     1     -38.520 -52.596  16.337  1.00  0.00    -0.190 NA
HETATM   10  N   UNL     1     -40.271 -52.886  13.254  1.00  0.00    -0.169 N 
ENDROOT
BRANCH   1  11
HETATM   11  N   UNL     1     -41.296 -52.734  11.096  1.00  0.00    -0.234 N 
HETATM   12  H   UNL     1     -41.774 -52.085  10.477  1.00  0.00     0.174 HD
HETATM   13  H   UNL     1     -41.674 -53.677  11.079  1.00  0.00     0.174 HD
ENDBRANCH   1  11
BRANCH  10  14
HETATM   14  C   UNL     1     -40.763 -54.195  13.660  1.00  0.00     0.168 C 
BRANCH  14  15
HETATM   15  C   UNL     1     -41.874 -54.144  14.719  1.00  0.00     0.143 C 
BRANCH  15  16
HETATM   16  N   UNL     1     -43.123 -53.552  14.237  1.00  0.00    -0.359 N 
HETATM   17  C   UNL     1     -44.314 -54.247  14.314  1.00  0.00     0.221 C 
HETATM   18  O   UNL     1     -44.349 -55.425  14.659  1.00  0.00    -0.273 OA
HETATM   19  H   UNL     1     -43.165 -52.545  14.136  1.00  0.00     0.162 HD
BRANCH  17  20
HETATM   20  C   UNL     1     -45.572 -53.424  14.035  1.00  0.00     0.078 C 
HETATM   21  C   UNL     1     -45.569 -52.797  12.633  1.00  0.00     0.014 C 
HETATM   22  C   UNL     1     -46.466 -51.561  12.714  1.00  0.00     0.001 C 
HETATM   23  C   UNL     1     -46.844 -51.414  14.184  1.00  0.00     0.001 C 
HETATM   24  C   UNL     1     -45.786 -52.212  14.937  1.00  0.00     0.014 C 
ENDBRANCH  17  20
ENDBRANCH  15  16
ENDBRANCH  14  15
ENDBRANCH  10  14
TORSDOF 5
ENDMDL
MODEL 5
REMARK VINA RESULT:      -6.1      5.369      6.415
REMARK  5 active torsions:
REMARK  status: ('A' for Active; 'I' for Inactive)
REMARK    1  A    between atoms: N_1  and  C_2 
REMARK    2  A    between atoms: N_11  and  C_12 
REMARK    3  A    between atoms: C_12  and  C_13 
REMARK    4  A    between atoms: C_13  and  N_14 
REMARK       I    between atoms: N_14  and  C_15 
REMARK    5  A    between atoms: C_15  and  C_17 
ROOT
HETATM    1  C   UNL     1     -40.657 -52.908  12.355  1.00  0.00     0.680 A 
HETATM    2  N   UNL     1     -40.395 -54.084  12.871  1.00  0.00    -0.179 N 
ATOM      3  HN  UNL     1     -40.704 -54.991  12.521  1.00  0.00     0.185 HD
HETATM    4  C   UNL     1     -39.619 -53.843  13.976  1.00  0.00     0.167 A 
HETATM    5  C   UNL     1     -39.132 -54.914  14.792  1.00  0.00     0.121 C 
HETATM    6  N   UNL     1     -38.714 -55.761  15.469  1.00  0.00    -0.190 NA
HETATM    7  C   UNL     1     -39.409 -52.491  14.139  1.00  0.00     0.170 A 
HETATM    8  C   UNL     1     -38.672 -51.835  15.152  1.00  0.00     0.121 C 
HETATM    9  N   UNL     1     -38.086 -51.252  15.968  1.00  0.00    -0.190 NA
HETATM   10  N   UNL     1     -40.070 -51.896  13.086  1.00  0.00    -0.169 N 
ENDROOT
BRANCH   1  11
HETATM   11  N   UNL     1     -41.400 -52.700  11.265  1.00  0.00    -0.234 N 
HETATM   12  H   UNL     1     -40.924 -52.355  10.436  1.00  0.00     0.174 HD
HETATM   13  H   UNL     1     -42.404 -52.543  11.261  1.00  0.00     0.174 HD
ENDBRANCH   1  11
BRANCH  10  14
HETATM   14  C   UNL     1     -40.043 -50.478  12.755  1.00  0.00     0.168 C 
BRANCH  14  15
HETATM   15  C   UNL     1     -40.950 -49.613  13.642  1.00  0.00     0.143 C 
BRANCH  15  16
HETATM   16  N   UNL     1     -42.378 -49.885  13.472  1.00  0.00    -0.359 N 
HETATM   17  C   UNL     1     -43.078 -50.615  14.412  1.00  0.00     0.221 C 
HETATM   18  O   UNL     1     -42.510 -51.173  15.347  1.00  0.00    -0.273 OA
HETATM   19  H   UNL     1     -42.905 -49.293  12.840  1.00  0.00     0.162 HD
BRANCH  17  20
HETATM   20  C   UNL     1     -44.600 -50.595  14.257  1.00  0.00     0.078 C 
HETATM   21  C   UNL     1     -45.329 -51.029  15.538  1.00  0.00     0.014 C 
HETATM   22  C   UNL     1     -46.686 -51.575  15.093  1.00  0.00     0.001 C 
HETATM   23  C   UNL     1     -46.655 -51.587  13.569  1.00  0.00     0.001 C 
HETATM   24  C   UNL     1     -45.173 -51.548  13.213  1.00  0.00     0.014 C 
ENDBRANCH  17  20
ENDBRANCH  15  16
ENDBRANCH  14  15
ENDBRANCH  10  14
TORSDOF 5
ENDMDL
MODEL 6
REMARK VINA RESULT:      -6.0      4.626      6.013
REMARK  5 active torsions:
REMARK  status: ('A' for Active; 'I' for Inactive)
REMARK    1  A    between atoms: N_1  and  C_2 
REMARK    2  A    between atoms: N_11  and  C_12 
REMARK    3  A    between atoms: C_12  and  C_13 
REMARK    4  A    between atoms: C_13  and  N_14 
REMARK       I    between atoms: N_14  and  C_15 
REMARK    5  A    between atoms: C_15  and  C_17 
ROOT
HETATM    1  C   UNL     1     -42.886 -47.449  10.319  1.00  0.00     0.680 A 
HETATM    2  N   UNL     1     -42.339 -46.375   9.805  1.00  0.00    -0.179 N 
ATOM      3  HN  UNL     1     -42.708 -45.798   9.049  1.00  0.00     0.185 HD
HETATM    4  C   UNL     1     -41.168 -46.186  10.494  1.00  0.00     0.167 A 
HETATM    5  C   UNL     1     -40.302 -45.084  10.202  1.00  0.00     0.121 C 
HETATM    6  N   UNL     1     -39.581 -44.196   9.995  1.00  0.00    -0.190 NA
HETATM    7  C   UNL     1     -40.997 -47.169  11.444  1.00  0.00     0.170 A 
HETATM    8  C   UNL     1     -39.925 -47.334  12.351  1.00  0.00     0.121 C 
HETATM    9  N   UNL     1     -39.063 -47.515  13.107  1.00  0.00    -0.190 NA
HETATM   10  N   UNL     1     -42.112 -47.972  11.333  1.00  0.00    -0.169 N 
ENDROOT
BRANCH   1  11
HETATM   11  N   UNL     1     -44.043 -47.984   9.918  1.00  0.00    -0.234 N 
HETATM   12  H   UNL     1     -44.330 -47.807   8.959  1.00  0.00     0.174 HD
HETATM   13  H   UNL     1     -44.801 -48.269  10.531  1.00  0.00     0.174 HD
ENDBRANCH   1  11
BRANCH  10  14
HETATM   14  C   UNL     1     -42.450 -49.086  12.208  1.00  0.00     0.168 C 
BRANCH  14  15
HETATM   15  C   UNL     1     -41.633 -50.358  11.945  1.00  0.00     0.143 C 
BRANCH  15  16
HETATM   16  N   UNL     1     -42.367 -51.598  12.207  1.00  0.00    -0.359 N 
HETATM   17  C   UNL     1     -41.700 -52.787  12.421  1.00  0.00     0.221 C 
HETATM   18  O   UNL     1     -40.484 -52.878  12.267  1.00  0.00    -0.273 OA
HETATM   19  H   UNL     1     -43.325 -51.525  12.530  1.00  0.00     0.162 HD
BRANCH  17  20
HETATM   20  C   UNL     1     -42.559 -53.936  12.950  1.00  0.00     0.078 C 
HETATM   21  C   UNL     1     -44.039 -53.793  12.562  1.00  0.00     0.014 C 
HETATM   22  C   UNL     1     -44.834 -54.559  13.620  1.00  0.00     0.001 C 
HETATM   23  C   UNL     1     -43.820 -54.997  14.671  1.00  0.00     0.001 C 
HETATM   24  C   UNL     1     -42.627 -54.070  14.468  1.00  0.00     0.014 C 
ENDBRANCH  17  20
ENDBRANCH  15  16
ENDBRANCH  14  15
ENDBRANCH  10  14
TORSDOF 5
ENDMDL
MODEL 7
REMARK VINA RESULT:      -6.0      5.744      6.979
REMARK  5 active torsions:
REMARK  status: ('A' for Active; 'I' for Inactive)
REMARK    1  A    between atoms: N_1  and  C_2 
REMARK    2  A    between atoms: N_11  and  C_12 
REMARK    3  A    between atoms: C_12  and  C_13 
REMARK    4  A    between atoms: C_13  and  N_14 
REMARK       I    between atoms: N_14  and  C_15 
REMARK    5  A    between atoms: C_15  and  C_17 
ROOT
HETATM    1  C   UNL     1     -40.859 -53.064  12.339  1.00  0.00     0.680 A 
HETATM    2  N   UNL     1     -41.007 -52.128  11.433  1.00  0.00    -0.179 N 
ATOM      3  HN  UNL     1     -41.130 -52.258  10.429  1.00  0.00     0.185 HD
HETATM    4  C   UNL     1     -40.963 -50.939  12.115  1.00  0.00     0.167 A 
HETATM    5  C   UNL     1     -41.103 -49.686  11.438  1.00  0.00     0.121 C 
HETATM    6  N   UNL     1     -41.222 -48.653  10.918  1.00  0.00    -0.190 NA
HETATM    7  C   UNL     1     -40.779 -51.156  13.463  1.00  0.00     0.170 A 
HETATM    8  C   UNL     1     -40.675 -50.199  14.499  1.00  0.00     0.121 C 
HETATM    9  N   UNL     1     -40.575 -49.450  15.381  1.00  0.00    -0.190 NA
HETATM   10  N   UNL     1     -40.724 -52.527  13.601  1.00  0.00    -0.169 N 
ENDROOT
BRANCH   1  11
HETATM   11  N   UNL     1     -40.833 -54.376  12.084  1.00  0.00    -0.234 N 
HETATM   12  H   UNL     1     -41.040 -54.669  11.133  1.00  0.00     0.174 HD
HETATM   13  H   UNL     1     -40.945 -55.110  12.778  1.00  0.00     0.174 HD
ENDBRANCH   1  11
BRANCH  10  14
HETATM   14  C   UNL     1     -40.657 -53.255  14.860  1.00  0.00     0.168 C 
BRANCH  14  15
HETATM   15  C   UNL     1     -41.930 -54.046  15.193  1.00  0.00     0.143 C 
BRANCH  15  16
HETATM   16  N   UNL     1     -43.157 -53.438  14.676  1.00  0.00    -0.359 N 
HETATM   17  C   UNL     1     -44.306 -54.186  14.513  1.00  0.00     0.221 C 
HETATM   18  O   UNL     1     -44.306 -55.405  14.664  1.00  0.00    -0.273 OA
HETATM   19  H   UNL     1     -43.248 -52.430  14.729  1.00  0.00     0.162 HD
BRANCH  17  20
HETATM   20  C   UNL     1     -45.576 -53.383  14.230  1.00  0.00     0.078 C 
HETATM   21  C   UNL     1     -45.608 -52.811  12.805  1.00  0.00     0.014 C 
HETATM   22  C   UNL     1     -46.512 -51.579  12.858  1.00  0.00     0.001 C 
HETATM   23  C   UNL     1     -46.860 -51.378  14.329  1.00  0.00     0.001 C 
HETATM   24  C   UNL     1     -45.780 -52.139  15.089  1.00  0.00     0.014 C 
ENDBRANCH  17  20
ENDBRANCH  15  16
ENDBRANCH  14  15
ENDBRANCH  10  14
TORSDOF 5
ENDMDL
MODEL 8
REMARK VINA RESULT:      -5.9      5.344      6.779
REMARK  5 active torsions:
REMARK  status: ('A' for Active; 'I' for Inactive)
REMARK    1  A    between atoms: N_1  and  C_2 
REMARK    2  A    between atoms: N_11  and  C_12 
REMARK    3  A    between atoms: C_12  and  C_13 
REMARK    4  A    between atoms: C_13  and  N_14 
REMARK       I    between atoms: N_14  and  C_15 
REMARK    5  A    between atoms: C_15  and  C_17 
ROOT
HETATM    1  C   UNL     1     -41.170 -53.053  12.273  1.00  0.00     0.680 A 
HETATM    2  N   UNL     1     -40.067 -53.507  12.817  1.00  0.00    -0.179 N 
ATOM      3  HN  UNL     1     -39.111 -53.332  12.508  1.00  0.00     0.185 HD
HETATM    4  C   UNL     1     -40.465 -54.266  13.888  1.00  0.00     0.167 A 
HETATM    5  C   UNL     1     -39.512 -54.920  14.733  1.00  0.00     0.121 C 
HETATM    6  N   UNL     1     -38.764 -55.456  15.443  1.00  0.00    -0.190 NA
HETATM    7  C   UNL     1     -41.839 -54.277  13.995  1.00  0.00     0.170 A 
HETATM    8  C   UNL     1     -42.638 -54.941  14.954  1.00  0.00     0.121 C 
HETATM    9  N   UNL     1     -43.335 -55.475  15.713  1.00  0.00    -0.190 NA
HETATM   10  N   UNL     1     -42.285 -53.485  12.958  1.00  0.00    -0.169 N 
ENDROOT
BRANCH   1  11
HETATM   11  N   UNL     1     -41.221 -52.274  11.188  1.00  0.00    -0.234 N 
HETATM   12  H   UNL     1     -42.130 -51.902  10.926  1.00  0.00     0.174 HD
HETATM   13  H   UNL     1     -40.539 -52.272  10.435  1.00  0.00     0.174 HD
ENDBRANCH   1  11
BRANCH  10  14
HETATM   14  C   UNL     1     -43.667 -53.092  12.719  1.00  0.00     0.168 C 
BRANCH  14  15
HETATM   15  C   UNL     1     -44.132 -51.898  13.565  1.00  0.00     0.143 C 
BRANCH  15  16
HETATM   16  N   UNL     1     -44.109 -50.622  12.848  1.00  0.00    -0.359 N 
HETATM   17  C   UNL     1     -43.053 -49.745  12.993  1.00  0.00     0.221 C 
HETATM   18  O   UNL     1     -42.168 -49.937  13.823  1.00  0.00    -0.273 OA
HETATM   19  H   UNL     1     -44.701 -50.523  12.031  1.00  0.00     0.162 HD
BRANCH  17  20
HETATM   20  C   UNL     1     -43.018 -48.588  11.994  1.00  0.00     0.078 C 
HETATM   21  C   UNL     1     -41.766 -48.614  11.104  1.00  0.00     0.014 C 
HETATM   22  C   UNL     1     -41.527 -47.171  10.659  1.00  0.00     0.001 C 
HETATM   23  C   UNL     1     -42.546 -46.325  11.415  1.00  0.00     0.001 C 
HETATM   24  C   UNL     1     -42.963 -47.189  12.600  1.00  0.00     0.014 C 
ENDBRANCH  17  20
ENDBRANCH  15  16
ENDBRANCH  14  15
ENDBRANCH  10  14
TORSDOF 5
ENDMDL
MODEL 9
REMARK VINA RESULT:      -5.9      5.540      7.040
REMARK  5 active torsions:
REMARK  status: ('A' for Active; 'I' for Inactive)
REMARK    1  A    between atoms: N_1  and  C_2 
REMARK    2  A    between atoms: N_11  and  C_12 
REMARK    3  A    between atoms: C_12  and  C_13 
REMARK    4  A    between atoms: C_13  and  N_14 
REMARK       I    between atoms: N_14  and  C_15 
REMARK    5  A    between atoms: C_15  and  C_17 
ROOT
HETATM    1  C   UNL     1     -40.041 -49.764  11.271  1.00  0.00     0.680 A 
HETATM    2  N   UNL     1     -40.714 -48.803  10.687  1.00  0.00    -0.179 N 
ATOM      3  HN  UNL     1     -40.379 -48.174   9.957  1.00  0.00     0.185 HD
HETATM    4  C   UNL     1     -41.960 -48.819  11.260  1.00  0.00     0.167 A 
HETATM    5  C   UNL     1     -42.978 -47.897  10.854  1.00  0.00     0.121 C 
HETATM    6  N   UNL     1     -43.828 -47.169  10.541  1.00  0.00    -0.190 NA
HETATM    7  C   UNL     1     -42.045 -49.807  12.216  1.00  0.00     0.170 A 
HETATM    8  C   UNL     1     -43.150 -50.144  13.031  1.00  0.00     0.121 C 
HETATM    9  N   UNL     1     -44.026 -50.451  13.728  1.00  0.00    -0.190 NA
HETATM   10  N   UNL     1     -40.810 -50.419  12.210  1.00  0.00    -0.169 N 
ENDROOT
BRANCH   1  11
HETATM   11  N   UNL     1     -38.769 -50.077  11.005  1.00  0.00    -0.234 N 
HETATM   12  H   UNL     1     -38.053 -49.645  11.582  1.00  0.00     0.174 HD
HETATM   13  H   UNL     1     -38.427 -50.433  10.117  1.00  0.00     0.174 HD
ENDBRANCH   1  11
BRANCH  10  14
HETATM   14  C   UNL     1     -40.443 -51.605  12.969  1.00  0.00     0.168 C 
BRANCH  14  15
HETATM   15  C   UNL     1     -40.750 -52.927  12.252  1.00  0.00     0.143 C 
BRANCH  15  16
HETATM   16  N   UNL     1     -42.043 -53.510  12.616  1.00  0.00    -0.359 N 
HETATM   17  C   UNL     1     -42.196 -54.220  13.790  1.00  0.00     0.221 C 
HETATM   18  O   UNL     1     -41.234 -54.504  14.500  1.00  0.00    -0.273 OA
HETATM   19  H   UNL     1     -42.875 -53.140  12.172  1.00  0.00     0.162 HD
BRANCH  17  20
HETATM   20  C   UNL     1     -43.640 -54.537  14.182  1.00  0.00     0.078 C 
HETATM   21  C   UNL     1     -44.657 -54.030  13.149  1.00  0.00     0.014 C 
HETATM   22  C   UNL     1     -45.968 -53.818  13.907  1.00  0.00     0.001 C 
HETATM   23  C   UNL     1     -45.646 -54.060  15.378  1.00  0.00     0.001 C 
HETATM   24  C   UNL     1     -44.133 -53.893  15.474  1.00  0.00     0.014 C 
ENDBRANCH  17  20
ENDBRANCH  15  16
ENDBRANCH  14  15
ENDBRANCH  10  14
TORSDOF 5
ENDMDL
