MODEL 1
REMARK VINA RESULT:      -5.2      0.000      0.000
REMARK  5 active torsions:
REMARK  status: ('A' for Active; 'I' for Inactive)
REMARK    1  A    between atoms: C_2  and  C_3 
REMARK    2  A    between atoms: C_9  and  N_10 
REMARK    3  A    between atoms: C_15  and  C_16 
REMARK    4  A    between atoms: C_16  and  C_17 
REMARK    5  A    between atoms: C_17  and  O_18 
ROOT
HETATM    1  C   UNL     1     -42.540 -49.339  12.562  1.00  0.00     0.052 A 
HETATM    2  N   UNL     1     -41.668 -50.315  12.242  1.00  0.00    -0.353 N 
ATOM      3  HN  UNL     1     -41.611 -51.188  12.767  1.00  0.00     0.166 HD
HETATM    4  C   UNL     1     -40.883 -50.063  11.188  1.00  0.00     0.182 A 
HETATM    5  N   UNL     1     -40.925 -48.971  10.399  1.00  0.00    -0.336 N 
ATOM      6  HN  UNL     1     -40.313 -48.885   9.588  1.00  0.00     0.168 HD
HETATM    7  C   UNL     1     -41.801 -48.000  10.713  1.00  0.00     0.146 A 
HETATM    8  C   UNL     1     -42.607 -48.154  11.845  1.00  0.00     0.182 A 
HETATM    9  F   UNL     1     -43.445 -47.189  12.264  1.00  0.00    -0.200 F 
ENDROOT
BRANCH   7  10
HETATM   10  N   UNL     1     -41.867 -46.850   9.925  1.00  0.00    -0.356 N 
HETATM   11  C   UNL     1     -41.150 -45.651  10.426  1.00  0.00     0.151 C 
HETATM   12  C   UNL     1     -42.122 -44.596  10.978  1.00  0.00     0.187 C 
HETATM   13  O   UNL     1     -43.138 -44.255  10.033  1.00  0.00    -0.388 OA
HETATM   14  C   UNL     1     -43.901 -45.422   9.688  1.00  0.00     0.193 C 
HETATM   15  C   UNL     1     -43.006 -46.491   9.021  1.00  0.00     0.111 C 
BRANCH  15  16
HETATM   16  C   UNL     1     -43.816 -47.653   8.428  1.00  0.00     0.053 C 
BRANCH  16  17
HETATM   17  C   UNL     1     -45.227 -47.732   9.016  1.00  0.00     0.166 C 
BRANCH  17  18
HETATM   18  O   UNL     1     -46.199 -47.720   7.978  1.00  0.00    -0.401 OA
HETATM   19  H   UNL     1     -46.995 -48.167   8.316  1.00  0.00     0.209 HD
ENDBRANCH  17  18
ENDBRANCH  16  17
ENDBRANCH  15  16
ENDBRANCH   7  10
BRANCH   1  20
HETATM   20  C   UNL     1     -43.527 -49.605  13.667  1.00  0.00     0.056 C 
HETATM   21  C   UNL     1     -44.353 -50.847  13.361  1.00  0.00     0.011 C 
ENDBRANCH   1  20
TORSDOF 5
ENDMDL
MODEL 2
REMARK VINA RESULT:      -5.2      6.199      7.786
REMARK  5 active torsions:
REMARK  status: ('A' for Active; 'I' for Inactive)
REMARK    1  A    between atoms: C_2  and  C_3 
REMARK    2  A    between atoms: C_9  and  N_10 
REMARK    3  A    between atoms: C_15  and  C_16 
REMARK    4  A    between atoms: C_16  and  C_17 
REMARK    5  A    between atoms: C_17  and  O_18 
ROOT
HETATM    1  C   UNL     1     -45.555 -52.871  13.949  1.00  0.00     0.052 A 
HETATM    2  N   UNL     1     -46.216 -53.991  13.598  1.00  0.00    -0.353 N 
ATOM      3  HN  UNL     1     -47.140 -53.966  13.167  1.00  0.00     0.166 HD
HETATM    4  C   UNL     1     -45.578 -55.139  13.853  1.00  0.00     0.182 A 
HETATM    5  N   UNL     1     -44.337 -55.271  14.363  1.00  0.00    -0.336 N 
ATOM      6  HN  UNL     1     -43.913 -56.191  14.483  1.00  0.00     0.168 HD
HETATM    7  C   UNL     1     -43.674 -54.152  14.706  1.00  0.00     0.146 A 
HETATM    8  C   UNL     1     -44.302 -52.914  14.540  1.00  0.00     0.182 A 
HETATM    9  F   UNL     1     -43.731 -51.763  14.937  1.00  0.00    -0.200 F 
ENDROOT
BRANCH   7  10
HETATM   10  N   UNL     1     -42.391 -54.249  15.245  1.00  0.00    -0.356 N 
HETATM   11  C   UNL     1     -42.271 -54.126  16.720  1.00  0.00     0.151 C 
HETATM   12  C   UNL     1     -41.685 -52.766  17.131  1.00  0.00     0.187 C 
HETATM   13  O   UNL     1     -40.448 -52.492  16.470  1.00  0.00    -0.388 OA
HETATM   14  C   UNL     1     -40.643 -52.478  15.047  1.00  0.00     0.193 C 
HETATM   15  C   UNL     1     -41.129 -53.856  14.541  1.00  0.00     0.111 C 
BRANCH  15  16
HETATM   16  C   UNL     1     -41.127 -53.955  13.008  1.00  0.00     0.053 C 
BRANCH  16  17
HETATM   17  C   UNL     1     -40.992 -52.584  12.341  1.00  0.00     0.166 C 
BRANCH  17  18
HETATM   18  O   UNL     1     -41.263 -52.680  10.949  1.00  0.00    -0.401 OA
HETATM   19  H   UNL     1     -41.833 -53.456  10.813  1.00  0.00     0.209 HD
ENDBRANCH  17  18
ENDBRANCH  16  17
ENDBRANCH  15  16
ENDBRANCH   7  10
BRANCH   1  20
HETATM   20  C   UNL     1     -46.170 -51.544  13.589  1.00  0.00     0.056 C 
HETATM   21  C   UNL     1     -46.754 -51.588  12.183  1.00  0.00     0.011 C 
ENDBRANCH   1  20
TORSDOF 5
ENDMDL
MODEL 3
REMARK VINA RESULT:      -5.1      2.640      4.246
REMARK  5 active torsions:
REMARK  status: ('A' for Active; 'I' for Inactive)
REMARK    1  A    between atoms: C_2  and  C_3 
REMARK    2  A    between atoms: C_9  and  N_10 
REMARK    3  A    between atoms: C_15  and  C_16 
REMARK    4  A    between atoms: C_16  and  C_17 
REMARK    5  A    between atoms: C_17  and  O_18 
ROOT
HETATM    1  C   UNL     1     -45.253 -47.911   8.723  1.00  0.00     0.052 A 
HETATM    2  N   UNL     1     -44.648 -48.135   7.541  1.00  0.00    -0.353 N 
ATOM      3  HN  UNL     1     -45.163 -48.439   6.714  1.00  0.00     0.166 HD
HETATM    4  C   UNL     1     -43.326 -47.931   7.523  1.00  0.00     0.182 A 
HETATM    5  N   UNL     1     -42.571 -47.474   8.542  1.00  0.00    -0.336 N 
ATOM      6  HN  UNL     1     -41.571 -47.308   8.422  1.00  0.00     0.168 HD
HETATM    7  C   UNL     1     -43.176 -47.243   9.721  1.00  0.00     0.146 A 
HETATM    8  C   UNL     1     -44.544 -47.504   9.843  1.00  0.00     0.182 A 
HETATM    9  F   UNL     1     -45.196 -47.373  11.012  1.00  0.00    -0.200 F 
ENDROOT
BRANCH   7  10
HETATM   10  N   UNL     1     -42.425 -46.779  10.801  1.00  0.00    -0.356 N 
HETATM   11  C   UNL     1     -42.033 -45.348  10.781  1.00  0.00     0.151 C 
HETATM   12  C   UNL     1     -40.543 -45.172  10.449  1.00  0.00     0.187 C 
HETATM   13  O   UNL     1     -39.705 -45.942  11.312  1.00  0.00    -0.388 OA
HETATM   14  C   UNL     1     -40.024 -47.338  11.190  1.00  0.00     0.193 C 
HETATM   15  C   UNL     1     -41.484 -47.611  11.617  1.00  0.00     0.111 C 
BRANCH  15  16
HETATM   16  C   UNL     1     -41.796 -49.112  11.723  1.00  0.00     0.053 C 
BRANCH  16  17
HETATM   17  C   UNL     1     -40.570 -49.979  11.427  1.00  0.00     0.166 C 
BRANCH  17  18
HETATM   18  O   UNL     1     -40.964 -51.315  11.141  1.00  0.00    -0.401 OA
HETATM   19  H   UNL     1     -41.415 -51.664  11.929  1.00  0.00     0.209 HD
ENDBRANCH  17  18
ENDBRANCH  16  17
ENDBRANCH  15  16
ENDBRANCH   7  10
BRANCH   1  20
HETATM   20  C   UNL     1     -46.754 -48.016   8.782  1.00  0.00     0.056 C 
HETATM   21  C   UNL     1     -47.176 -49.383   9.306  1.00  0.00     0.011 C 
ENDBRANCH   1  20
TORSDOF 5
ENDMDL
MODEL 4
REMARK VINA RESULT:      -5.1      4.498      6.573
REMARK  5 active torsions:
REMARK  status: ('A' for Active; 'I' for Inactive)
REMARK    1  A    between atoms: C_2  and  C_3 
REMARK    2  A    between atoms: C_9  and  N_10 
REMARK    3  A    between atoms: C_15  and  C_16 
REMARK    4  A    between atoms: C_16  and  C_17 
REMARK    5  A    between atoms: C_17  and  O_18 
ROOT
HETATM    1  C   UNL     1     -45.657 -51.536  14.719  1.00  0.00     0.052 A 
HETATM    2  N   UNL     1     -46.629 -51.535  13.786  1.00  0.00    -0.353 N 
ATOM      3  HN  UNL     1     -47.577 -51.218  13.988  1.00  0.00     0.166 HD
HETATM    4  C   UNL     1     -46.267 -51.980  12.577  1.00  0.00     0.182 A 
HETATM    5  N   UNL     1     -45.031 -52.362  12.200  1.00  0.00    -0.336 N 
ATOM      6  HN  UNL     1     -44.839 -52.647  11.239  1.00  0.00     0.168 HD
HETATM    7  C   UNL     1     -44.058 -52.355  13.129  1.00  0.00     0.146 A 
HETATM    8  C   UNL     1     -44.373 -51.975  14.437  1.00  0.00     0.182 A 
HETATM    9  F   UNL     1     -43.470 -52.022  15.433  1.00  0.00    -0.200 F 
ENDROOT
BRANCH   7  10
HETATM   10  N   UNL     1     -42.767 -52.753  12.778  1.00  0.00    -0.356 N 
HETATM   11  C   UNL     1     -42.346 -54.112  13.202  1.00  0.00     0.151 C 
HETATM   12  C   UNL     1     -41.358 -54.060  14.378  1.00  0.00     0.187 C 
HETATM   13  O   UNL     1     -40.239 -53.216  14.104  1.00  0.00    -0.388 OA
HETATM   14  C   UNL     1     -40.686 -51.876  13.842  1.00  0.00     0.193 C 
HETATM   15  C   UNL     1     -41.601 -51.831  12.597  1.00  0.00     0.111 C 
BRANCH  15  16
HETATM   16  C   UNL     1     -41.913 -50.396  12.145  1.00  0.00     0.053 C 
BRANCH  16  17
HETATM   17  C   UNL     1     -40.673 -49.677  11.609  1.00  0.00     0.166 C 
BRANCH  17  18
HETATM   18  O   UNL     1     -40.474 -49.987  10.236  1.00  0.00    -0.401 OA
HETATM   19  H   UNL     1     -39.911 -49.291   9.856  1.00  0.00     0.209 HD
ENDBRANCH  17  18
ENDBRANCH  16  17
ENDBRANCH  15  16
ENDBRANCH   7  10
BRANCH   1  20
HETATM   20  C   UNL     1     -45.970 -50.946  16.068  1.00  0.00     0.056 C 
HETATM   21  C   UNL     1     -47.385 -51.311  16.498  1.00  0.00     0.011 C 
ENDBRANCH   1  20
TORSDOF 5
ENDMDL
MODEL 5
REMARK VINA RESULT:      -5.1      4.721      6.732
REMARK  5 active torsions:
REMARK  status: ('A' for Active; 'I' for Inactive)
REMARK    1  A    between atoms: C_2  and  C_3 
REMARK    2  A    between atoms: C_9  and  N_10 
REMARK    3  A    between atoms: C_15  and  C_16 
REMARK    4  A    between atoms: C_16  and  C_17 
REMARK    5  A    between atoms: C_17  and  O_18 
ROOT
HETATM    1  C   UNL     1     -44.991 -52.306  13.780  1.00  0.00     0.052 A 
HETATM    2  N   UNL     1     -44.934 -51.750  15.005  1.00  0.00    -0.353 N 
ATOM      3  HN  UNL     1     -45.773 -51.496  15.527  1.00  0.00     0.166 HD
HETATM    4  C   UNL     1     -43.703 -51.552  15.491  1.00  0.00     0.182 A 
HETATM    5  N   UNL     1     -42.543 -51.908  14.906  1.00  0.00    -0.336 N 
ATOM      6  HN  UNL     1     -41.649 -51.755  15.374  1.00  0.00     0.168 HD
HETATM    7  C   UNL     1     -42.599 -52.471  13.685  1.00  0.00     0.146 A 
HETATM    8  C   UNL     1     -43.845 -52.643  13.075  1.00  0.00     0.182 A 
HETATM    9  F   UNL     1     -43.970 -53.124  11.825  1.00  0.00    -0.200 F 
ENDROOT
BRANCH   7  10
HETATM   10  N   UNL     1     -41.418 -52.843  13.043  1.00  0.00    -0.356 N 
HETATM   11  C   UNL     1     -40.951 -54.237  13.251  1.00  0.00     0.151 C 
HETATM   12  C   UNL     1     -39.742 -54.296  14.199  1.00  0.00     0.187 C 
HETATM   13  O   UNL     1     -38.683 -53.436  13.773  1.00  0.00    -0.388 OA
HETATM   14  C   UNL     1     -39.142 -52.076  13.725  1.00  0.00     0.193 C 
HETATM   15  C   UNL     1     -40.292 -51.915  12.705  1.00  0.00     0.111 C 
BRANCH  15  16
HETATM   16  C   UNL     1     -40.656 -50.444  12.453  1.00  0.00     0.053 C 
BRANCH  16  17
HETATM   17  C   UNL     1     -39.783 -49.812  11.366  1.00  0.00     0.166 C 
BRANCH  17  18
HETATM   18  O   UNL     1     -40.440 -49.865  10.107  1.00  0.00    -0.401 OA
HETATM   19  H   UNL     1     -40.363 -50.776   9.774  1.00  0.00     0.209 HD
ENDBRANCH  17  18
ENDBRANCH  16  17
ENDBRANCH  15  16
ENDBRANCH   7  10
BRANCH   1  20
HETATM   20  C   UNL     1     -46.345 -52.656  13.222  1.00  0.00     0.056 C 
HETATM   21  C   UNL     1     -46.795 -51.608  12.211  1.00  0.00     0.011 C 
ENDBRANCH   1  20
TORSDOF 5
ENDMDL
MODEL 6
REMARK VINA RESULT:      -5.1      6.142      7.867
REMARK  5 active torsions:
REMARK  status: ('A' for Active; 'I' for Inactive)
REMARK    1  A    between atoms: C_2  and  C_3 
REMARK    2  A    between atoms: C_9  and  N_10 
REMARK    3  A    between atoms: C_15  and  C_16 
REMARK    4  A    between atoms: C_16  and  C_17 
REMARK    5  A    between atoms: C_17  and  O_18 
ROOT
HETATM    1  C   UNL     1     -45.972 -52.418  14.470  1.00  0.00     0.052 A 
HETATM    2  N   UNL     1     -46.331 -53.611  13.957  1.00  0.00    -0.353 N 
ATOM      3  HN  UNL     1     -47.307 -53.890  13.859  1.00  0.00     0.166 HD
HETATM    4  C   UNL     1     -45.320 -54.405  13.585  1.00  0.00     0.182 A 
HETATM    5  N   UNL     1     -44.007 -54.102  13.620  1.00  0.00    -0.336 N 
ATOM      6  HN  UNL     1     -43.307 -54.758  13.273  1.00  0.00     0.168 HD
HETATM    7  C   UNL     1     -43.649 -52.908  14.125  1.00  0.00     0.146 A 
HETATM    8  C   UNL     1     -44.643 -52.050  14.605  1.00  0.00     0.182 A 
HETATM    9  F   UNL     1     -44.351 -50.877  15.196  1.00  0.00    -0.200 F 
ENDROOT
BRANCH   7  10
HETATM   10  N   UNL     1     -42.299 -52.563  14.186  1.00  0.00    -0.356 N 
HETATM   11  C   UNL     1     -41.711 -51.932  12.977  1.00  0.00     0.151 C 
HETATM   12  C   UNL     1     -40.804 -52.908  12.211  1.00  0.00     0.187 C 
HETATM   13  O   UNL     1     -39.803 -53.484  13.052  1.00  0.00    -0.388 OA
HETATM   14  C   UNL     1     -40.422 -54.207  14.129  1.00  0.00     0.193 C 
HETATM   15  C   UNL     1     -41.267 -53.264  15.015  1.00  0.00     0.111 C 
BRANCH  15  16
HETATM   16  C   UNL     1     -41.756 -53.946  16.302  1.00  0.00     0.053 C 
BRANCH  16  17
HETATM   17  C   UNL     1     -41.715 -55.472  16.199  1.00  0.00     0.166 C 
BRANCH  17  18
HETATM   18  O   UNL     1     -42.986 -55.978  15.812  1.00  0.00    -0.401 OA
HETATM   19  H   UNL     1     -42.834 -56.699  15.177  1.00  0.00     0.209 HD
ENDBRANCH  17  18
ENDBRANCH  16  17
ENDBRANCH  15  16
ENDBRANCH   7  10
BRANCH   1  20
HETATM   20  C   UNL     1     -47.062 -51.435  14.806  1.00  0.00     0.056 C 
HETATM   21  C   UNL     1     -47.406 -51.502  16.288  1.00  0.00     0.011 C 
ENDBRANCH   1  20
TORSDOF 5
ENDMDL
MODEL 7
REMARK VINA RESULT:      -5.0      3.188      4.459
REMARK  5 active torsions:
REMARK  status: ('A' for Active; 'I' for Inactive)
REMARK    1  A    between atoms: C_2  and  C_3 
REMARK    2  A    between atoms: C_9  and  N_10 
REMARK    3  A    between atoms: C_15  and  C_16 
REMARK    4  A    between atoms: C_16  and  C_17 
REMARK    5  A    between atoms: C_17  and  O_18 
ROOT
HETATM    1  C   UNL     1     -39.688 -49.265  11.672  1.00  0.00     0.052 A 
HETATM    2  N   UNL     1     -40.556 -49.425  10.655  1.00  0.00    -0.353 N 
ATOM      3  HN  UNL     1     -40.473 -50.189   9.983  1.00  0.00     0.166 HD
HETATM    4  C   UNL     1     -41.535 -48.516  10.584  1.00  0.00     0.182 A 
HETATM    5  N   UNL     1     -41.761 -47.512  11.455  1.00  0.00    -0.336 N 
ATOM      6  HN  UNL     1     -42.562 -46.890  11.344  1.00  0.00     0.168 HD
HETATM    7  C   UNL     1     -40.899 -47.356  12.476  1.00  0.00     0.146 A 
HETATM    8  C   UNL     1     -39.805 -48.221  12.577  1.00  0.00     0.182 A 
HETATM    9  F   UNL     1     -38.861 -48.074  13.524  1.00  0.00    -0.200 F 
ENDROOT
BRANCH   7  10
HETATM   10  N   UNL     1     -41.095 -46.323  13.392  1.00  0.00    -0.356 N 
HETATM   11  C   UNL     1     -42.129 -46.538  14.436  1.00  0.00     0.151 C 
HETATM   12  C   UNL     1     -43.398 -45.717  14.157  1.00  0.00     0.187 C 
HETATM   13  O   UNL     1     -43.111 -44.330  13.968  1.00  0.00    -0.388 OA
HETATM   14  C   UNL     1     -42.219 -44.160  12.854  1.00  0.00     0.193 C 
HETATM   15  C   UNL     1     -40.870 -44.869  13.111  1.00  0.00     0.111 C 
BRANCH  15  16
HETATM   16  C   UNL     1     -39.810 -44.521  12.056  1.00  0.00     0.053 C 
BRANCH  16  17
HETATM   17  C   UNL     1     -40.438 -44.075  10.733  1.00  0.00     0.166 C 
BRANCH  17  18
HETATM   18  O   UNL     1     -40.462 -45.153   9.806  1.00  0.00    -0.401 OA
HETATM   19  H   UNL     1     -41.225 -45.714  10.028  1.00  0.00     0.209 HD
ENDBRANCH  17  18
ENDBRANCH  16  17
ENDBRANCH  15  16
ENDBRANCH   7  10
BRANCH   1  20
HETATM   20  C   UNL     1     -38.629 -50.317  11.872  1.00  0.00     0.056 C 
HETATM   21  C   UNL     1     -37.351 -49.937  11.135  1.00  0.00     0.011 C 
ENDBRANCH   1  20
TORSDOF 5
ENDMDL
MODEL 8
REMARK VINA RESULT:      -5.0      3.576      5.600
REMARK  5 active torsions:
REMARK  status: ('A' for Active; 'I' for Inactive)
REMARK    1  A    between atoms: C_2  and  C_3 
REMARK    2  A    between atoms: C_9  and  N_10 
REMARK    3  A    between atoms: C_15  and  C_16 
REMARK    4  A    between atoms: C_16  and  C_17 
REMARK    5  A    between atoms: C_17  and  O_18 
ROOT
HETATM    1  C   UNL     1     -42.361 -47.193  10.217  1.00  0.00     0.052 A 
HETATM    2  N   UNL     1     -41.681 -46.106   9.804  1.00  0.00    -0.353 N 
ATOM      3  HN  UNL     1     -42.006 -45.520   9.035  1.00  0.00     0.166 HD
HETATM    4  C   UNL     1     -40.549 -45.848  10.469  1.00  0.00     0.182 A 
HETATM    5  N   UNL     1     -40.071 -46.526  11.532  1.00  0.00    -0.336 N 
ATOM      6  HN  UNL     1     -39.217 -46.228  12.004  1.00  0.00     0.168 HD
HETATM    7  C   UNL     1     -40.754 -47.607  11.950  1.00  0.00     0.146 A 
HETATM    8  C   UNL     1     -41.908 -47.988  11.259  1.00  0.00     0.182 A 
HETATM    9  F   UNL     1     -42.595 -49.102  11.570  1.00  0.00    -0.200 F 
ENDROOT
BRANCH   7  10
HETATM   10  N   UNL     1     -40.285 -48.340  13.040  1.00  0.00    -0.356 N 
HETATM   11  C   UNL     1     -40.448 -47.726  14.382  1.00  0.00     0.151 C 
HETATM   12  C   UNL     1     -39.112 -47.201  14.932  1.00  0.00     0.187 C 
HETATM   13  O   UNL     1     -38.095 -48.204  14.924  1.00  0.00    -0.388 OA
HETATM   14  C   UNL     1     -37.870 -48.666  13.582  1.00  0.00     0.193 C 
HETATM   15  C   UNL     1     -39.147 -49.312  12.998  1.00  0.00     0.111 C 
BRANCH  15  16
HETATM   16  C   UNL     1     -38.888 -50.023  11.661  1.00  0.00     0.053 C 
BRANCH  16  17
HETATM   17  C   UNL     1     -37.395 -50.137  11.346  1.00  0.00     0.166 C 
BRANCH  17  18
HETATM   18  O   UNL     1     -37.172 -50.026   9.946  1.00  0.00    -0.401 OA
HETATM   19  H   UNL     1     -36.215 -50.109   9.794  1.00  0.00     0.209 HD
ENDBRANCH  17  18
ENDBRANCH  16  17
ENDBRANCH  15  16
ENDBRANCH   7  10
BRANCH   1  20
HETATM   20  C   UNL     1     -43.697 -47.476   9.582  1.00  0.00     0.056 C 
HETATM   21  C   UNL     1     -43.552 -47.628   8.073  1.00  0.00     0.011 C 
ENDBRANCH   1  20
TORSDOF 5
ENDMDL
MODEL 9
REMARK VINA RESULT:      -5.0      4.864      7.753
REMARK  5 active torsions:
REMARK  status: ('A' for Active; 'I' for Inactive)
REMARK    1  A    between atoms: C_2  and  C_3 
REMARK    2  A    between atoms: C_9  and  N_10 
REMARK    3  A    between atoms: C_15  and  C_16 
REMARK    4  A    between atoms: C_16  and  C_17 
REMARK    5  A    between atoms: C_17  and  O_18 
ROOT
HETATM    1  C   UNL     1     -41.839 -50.049  12.155  1.00  0.00     0.052 A 
HETATM    2  N   UNL     1     -42.727 -49.313  12.850  1.00  0.00    -0.353 N 
ATOM      3  HN  UNL     1     -42.761 -48.296  12.786  1.00  0.00     0.166 HD
HETATM    4  C   UNL     1     -43.563 -50.007  13.632  1.00  0.00     0.182 A 
HETATM    5  N   UNL     1     -43.635 -51.349  13.737  1.00  0.00    -0.336 N 
ATOM      6  HN  UNL     1     -44.337 -51.793  14.330  1.00  0.00     0.168 HD
HETATM    7  C   UNL     1     -42.753 -52.084  13.036  1.00  0.00     0.146 A 
HETATM    8  C   UNL     1     -41.797 -51.431  12.253  1.00  0.00     0.182 A 
HETATM    9  F   UNL     1     -40.836 -52.100  11.591  1.00  0.00    -0.200 F 
ENDROOT
BRANCH   7  10
HETATM   10  N   UNL     1     -42.790 -53.476  13.127  1.00  0.00    -0.356 N 
HETATM   11  C   UNL     1     -44.041 -54.145  12.689  1.00  0.00     0.151 C 
HETATM   12  C   UNL     1     -44.865 -54.649  13.884  1.00  0.00     0.187 C 
HETATM   13  O   UNL     1     -44.095 -55.478  14.756  1.00  0.00    -0.388 OA
HETATM   14  C   UNL     1     -42.974 -54.742  15.271  1.00  0.00     0.193 C 
HETATM   15  C   UNL     1     -42.034 -54.294  14.129  1.00  0.00     0.111 C 
BRANCH  15  16
HETATM   16  C   UNL     1     -40.712 -53.709  14.647  1.00  0.00     0.053 C 
BRANCH  16  17
HETATM   17  C   UNL     1     -39.564 -54.719  14.568  1.00  0.00     0.166 C 
BRANCH  17  18
HETATM   18  O   UNL     1     -38.905 -54.626  13.312  1.00  0.00    -0.401 OA
HETATM   19  H   UNL     1     -39.502 -54.160  12.701  1.00  0.00     0.209 HD
ENDBRANCH  17  18
ENDBRANCH  16  17
ENDBRANCH  15  16
ENDBRANCH   7  10
BRANCH   1  20
HETATM   20  C   UNL     1     -40.945 -49.338  11.174  1.00  0.00     0.056 C 
HETATM   21  C   UNL     1     -41.701 -48.216  10.474  1.00  0.00     0.011 C 
ENDBRANCH   1  20
TORSDOF 5
ENDMDL
