MODEL 1
REMARK VINA RESULT:      -6.7      0.000      0.000
REMARK  4 active torsions:
REMARK  status: ('A' for Active; 'I' for Inactive)
REMARK    1  A    between atoms: C_5  and  C_6 
REMARK    2  A    between atoms: C_6  and  C_7 
REMARK    3  A    between atoms: C_7  and  N_8 
REMARK       I    between atoms: N_8  and  C_9 
REMARK       I    between atoms: C_9  and  N_11 
REMARK    4  A    between atoms: C_14  and  C_17 
REMARK       I    between atoms: C_17  and  N_19 
ROOT
HETATM    1  N   UNL     1     -41.540 -50.922  11.979  1.00  0.00    -0.343 N 
HETATM    2  C   UNL     1     -41.421 -52.223  12.398  1.00  0.00     0.318 C 
HETATM    3  O   UNL     1     -40.367 -52.840  12.269  1.00  0.00    -0.247 OA
HETATM    4  N   UNL     1     -42.551 -52.763  12.993  1.00  0.00    -0.334 N 
HETATM    5  C   UNL     1     -43.838 -52.093  13.168  1.00  0.00     0.128 C 
HETATM    6  C   UNL     1     -44.387 -52.304  14.577  1.00  0.00     0.034 C 
HETATM    7  C   UNL     1     -44.467 -53.791  14.939  1.00  0.00     0.081 C 
HETATM    8  C   UNL     1     -43.098 -54.450  14.725  1.00  0.00     0.034 C 
HETATM    9  C   UNL     1     -42.536 -54.188  13.326  1.00  0.00     0.128 C 
HETATM   10  H   UNL     1     -42.453 -50.634  11.670  1.00  0.00     0.164 HD
ENDROOT
BRANCH   1  11
HETATM   11  C   UNL     1     -40.422 -50.233  11.349  1.00  0.00     0.131 C 
BRANCH  11  12
HETATM   12  C   UNL     1     -40.550 -48.717  11.479  1.00  0.00     0.084 C 
BRANCH  12  13
HETATM   13  C   UNL     1     -41.747 -48.199  10.749  1.00  0.00     0.052 A 
HETATM   14  S   UNL     1     -42.959 -47.318  11.590  1.00  0.00    -0.087 SA
HETATM   15  C   UNL     1     -43.803 -47.100  10.117  1.00  0.00     0.076 A 
HETATM   16  C   UNL     1     -43.122 -47.709   9.082  1.00  0.00     0.012 A 
HETATM   17  C   UNL     1     -43.525 -47.732   7.652  1.00  0.00     0.068 C 
HETATM   18  N   UNL     1     -41.947 -48.346   9.455  1.00  0.00    -0.357 N 
ATOM     19  HN  UNL     1     -41.329 -48.853   8.820  1.00  0.00     0.166 HD
ENDBRANCH  12  13
ENDBRANCH  11  12
ENDBRANCH   1  11
BRANCH   7  20
HETATM   20  C   UNL     1     -45.569 -54.507  14.166  1.00  0.00     0.219 C 
HETATM   21  O   UNL     1     -45.529 -55.683  13.827  1.00  0.00    -0.273 OA
HETATM   22  N   UNL     1     -46.662 -53.747  13.869  1.00  0.00    -0.370 N 
HETATM   23  H   UNL     1     -46.861 -52.881  14.349  1.00  0.00     0.159 HD
HETATM   24  H   UNL     1     -47.438 -54.232  13.432  1.00  0.00     0.159 HD
ENDBRANCH   7  20
TORSDOF 4
ENDMDL
MODEL 2
REMARK VINA RESULT:      -6.2      2.463      2.904
REMARK  4 active torsions:
REMARK  status: ('A' for Active; 'I' for Inactive)
REMARK    1  A    between atoms: C_5  and  C_6 
REMARK    2  A    between atoms: C_6  and  C_7 
REMARK    3  A    between atoms: C_7  and  N_8 
REMARK       I    between atoms: N_8  and  C_9 
REMARK       I    between atoms: C_9  and  N_11 
REMARK    4  A    between atoms: C_14  and  C_17 
REMARK       I    between atoms: C_17  and  N_19 
ROOT
HETATM    1  N   UNL     1     -43.104 -49.866  12.577  1.00  0.00    -0.343 N 
HETATM    2  C   UNL     1     -43.563 -49.979  13.865  1.00  0.00     0.318 C 
HETATM    3  O   UNL     1     -43.240 -49.168  14.729  1.00  0.00    -0.247 OA
HETATM    4  N   UNL     1     -44.423 -51.039  14.101  1.00  0.00    -0.334 N 
HETATM    5  C   UNL     1     -44.838 -52.047  13.127  1.00  0.00     0.128 C 
HETATM    6  C   UNL     1     -46.344 -52.293  13.190  1.00  0.00     0.034 C 
HETATM    7  C   UNL     1     -46.802 -52.652  14.608  1.00  0.00     0.081 C 
HETATM    8  C   UNL     1     -46.330 -51.574  15.592  1.00  0.00     0.034 C 
HETATM    9  C   UNL     1     -44.829 -51.301  15.483  1.00  0.00     0.128 C 
HETATM   10  H   UNL     1     -42.988 -50.725  12.068  1.00  0.00     0.164 HD
ENDROOT
BRANCH   1  11
HETATM   11  C   UNL     1     -42.203 -48.787  12.195  1.00  0.00     0.131 C 
BRANCH  11  12
HETATM   12  C   UNL     1     -42.964 -47.493  11.913  1.00  0.00     0.084 C 
BRANCH  12  13
HETATM   13  C   UNL     1     -43.690 -47.553  10.608  1.00  0.00     0.052 A 
HETATM   14  S   UNL     1     -42.815 -47.515   9.129  1.00  0.00    -0.087 SA
HETATM   15  C   UNL     1     -44.287 -47.675   8.270  1.00  0.00     0.076 A 
HETATM   16  C   UNL     1     -45.348 -47.741   9.150  1.00  0.00     0.012 A 
HETATM   17  C   UNL     1     -46.783 -47.892   8.795  1.00  0.00     0.068 C 
HETATM   18  N   UNL     1     -44.998 -47.661  10.491  1.00  0.00    -0.357 N 
ATOM     19  HN  UNL     1     -45.656 -47.683  11.270  1.00  0.00     0.166 HD
ENDBRANCH  12  13
ENDBRANCH  11  12
ENDBRANCH   1  11
BRANCH   7  20
HETATM   20  C   UNL     1     -46.336 -54.043  15.021  1.00  0.00     0.219 C 
HETATM   21  O   UNL     1     -46.020 -54.361  16.162  1.00  0.00    -0.273 OA
HETATM   22  N   UNL     1     -46.298 -54.969  14.020  1.00  0.00    -0.370 N 
HETATM   23  H   UNL     1     -46.795 -54.840  13.151  1.00  0.00     0.159 HD
HETATM   24  H   UNL     1     -46.074 -55.918  14.298  1.00  0.00     0.159 HD
ENDBRANCH   7  20
TORSDOF 4
ENDMDL
MODEL 3
REMARK VINA RESULT:      -6.1      1.647      1.845
REMARK  4 active torsions:
REMARK  status: ('A' for Active; 'I' for Inactive)
REMARK    1  A    between atoms: C_5  and  C_6 
REMARK    2  A    between atoms: C_6  and  C_7 
REMARK    3  A    between atoms: C_7  and  N_8 
REMARK       I    between atoms: N_8  and  C_9 
REMARK       I    between atoms: C_9  and  N_11 
REMARK    4  A    between atoms: C_14  and  C_17 
REMARK       I    between atoms: C_17  and  N_19 
ROOT
HETATM    1  N   UNL     1     -41.786 -50.906  11.868  1.00  0.00    -0.343 N 
HETATM    2  C   UNL     1     -41.624 -52.209  12.265  1.00  0.00     0.318 C 
HETATM    3  O   UNL     1     -40.568 -52.806  12.075  1.00  0.00    -0.247 OA
HETATM    4  N   UNL     1     -42.713 -52.776  12.908  1.00  0.00    -0.334 N 
HETATM    5  C   UNL     1     -44.001 -52.131  13.155  1.00  0.00     0.128 C 
HETATM    6  C   UNL     1     -44.476 -52.368  14.587  1.00  0.00     0.034 C 
HETATM    7  C   UNL     1     -44.512 -53.860  14.935  1.00  0.00     0.081 C 
HETATM    8  C   UNL     1     -43.145 -54.492  14.644  1.00  0.00     0.034 C 
HETATM    9  C   UNL     1     -42.658 -54.205  13.222  1.00  0.00     0.128 C 
HETATM   10  H   UNL     1     -42.718 -50.630  11.608  1.00  0.00     0.164 HD
ENDROOT
BRANCH   1  11
HETATM   11  C   UNL     1     -40.712 -50.190  11.192  1.00  0.00     0.131 C 
BRANCH  11  12
HETATM   12  C   UNL     1     -40.116 -49.102  12.081  1.00  0.00     0.084 C 
BRANCH  12  13
HETATM   13  C   UNL     1     -40.452 -47.734  11.581  1.00  0.00     0.052 A 
HETATM   14  S   UNL     1     -41.991 -47.045  11.914  1.00  0.00    -0.087 SA
HETATM   15  C   UNL     1     -41.511 -45.615  11.106  1.00  0.00     0.076 A 
HETATM   16  C   UNL     1     -40.222 -45.746  10.629  1.00  0.00     0.012 A 
HETATM   17  C   UNL     1     -39.447 -44.720   9.885  1.00  0.00     0.068 C 
HETATM   18  N   UNL     1     -39.624 -46.969  10.899  1.00  0.00    -0.357 N 
ATOM     19  HN  UNL     1     -38.682 -47.236  10.610  1.00  0.00     0.166 HD
ENDBRANCH  12  13
ENDBRANCH  11  12
ENDBRANCH   1  11
BRANCH   7  20
HETATM   20  C   UNL     1     -45.639 -54.586  14.209  1.00  0.00     0.219 C 
HETATM   21  O   UNL     1     -45.601 -55.761  13.863  1.00  0.00    -0.273 OA
HETATM   22  N   UNL     1     -46.752 -53.838  13.961  1.00  0.00    -0.370 N 
HETATM   23  H   UNL     1     -46.940 -52.976  14.453  1.00  0.00     0.159 HD
HETATM   24  H   UNL     1     -47.541 -54.331  13.558  1.00  0.00     0.159 HD
ENDBRANCH   7  20
TORSDOF 4
ENDMDL
MODEL 4
REMARK VINA RESULT:      -6.0      2.400      2.975
REMARK  4 active torsions:
REMARK  status: ('A' for Active; 'I' for Inactive)
REMARK    1  A    between atoms: C_5  and  C_6 
REMARK    2  A    between atoms: C_6  and  C_7 
REMARK    3  A    between atoms: C_7  and  N_8 
REMARK       I    between atoms: N_8  and  C_9 
REMARK       I    between atoms: C_9  and  N_11 
REMARK    4  A    between atoms: C_14  and  C_17 
REMARK       I    between atoms: C_17  and  N_19 
ROOT
HETATM    1  N   UNL     1     -42.614 -50.381  12.259  1.00  0.00    -0.343 N 
HETATM    2  C   UNL     1     -43.233 -50.307  13.481  1.00  0.00     0.318 C 
HETATM    3  O   UNL     1     -42.995 -49.389  14.261  1.00  0.00    -0.247 OA
HETATM    4  N   UNL     1     -44.148 -51.313  13.747  1.00  0.00    -0.334 N 
HETATM    5  C   UNL     1     -44.470 -52.440  12.874  1.00  0.00     0.128 C 
HETATM    6  C   UNL     1     -45.979 -52.655  12.778  1.00  0.00     0.034 C 
HETATM    7  C   UNL     1     -46.621 -52.806  14.161  1.00  0.00     0.081 C 
HETATM    8  C   UNL     1     -46.241 -51.609  15.042  1.00  0.00     0.034 C 
HETATM    9  C   UNL     1     -44.730 -51.374  15.089  1.00  0.00     0.128 C 
HETATM   10  H   UNL     1     -42.463 -51.304  11.890  1.00  0.00     0.164 HD
ENDROOT
BRANCH   1  11
HETATM   11  C   UNL     1     -41.639 -49.378  11.852  1.00  0.00     0.131 C 
BRANCH  11  12
HETATM   12  C   UNL     1     -42.257 -48.340  10.917  1.00  0.00     0.084 C 
BRANCH  12  13
HETATM   13  C   UNL     1     -41.585 -47.012  11.044  1.00  0.00     0.052 A 
HETATM   14  S   UNL     1     -41.890 -46.015  12.411  1.00  0.00    -0.087 SA
HETATM   15  C   UNL     1     -40.776 -44.867  11.806  1.00  0.00     0.076 A 
HETATM   16  C   UNL     1     -40.245 -45.302  10.608  1.00  0.00     0.012 A 
HETATM   17  C   UNL     1     -39.237 -44.592   9.778  1.00  0.00     0.068 C 
HETATM   18  N   UNL     1     -40.722 -46.530  10.173  1.00  0.00    -0.357 N 
ATOM     19  HN  UNL     1     -40.445 -46.993   9.307  1.00  0.00     0.166 HD
ENDBRANCH  12  13
ENDBRANCH  11  12
ENDBRANCH   1  11
BRANCH   7  20
HETATM   20  C   UNL     1     -46.253 -54.133  14.817  1.00  0.00     0.219 C 
HETATM   21  O   UNL     1     -46.057 -54.286  16.016  1.00  0.00    -0.273 OA
HETATM   22  N   UNL     1     -46.164 -55.199  13.969  1.00  0.00    -0.370 N 
HETATM   23  H   UNL     1     -46.574 -55.186  13.046  1.00  0.00     0.159 HD
HETATM   24  H   UNL     1     -46.006 -56.101  14.403  1.00  0.00     0.159 HD
ENDBRANCH   7  20
TORSDOF 4
ENDMDL
MODEL 5
REMARK VINA RESULT:      -6.0      1.765      2.213
REMARK  4 active torsions:
REMARK  status: ('A' for Active; 'I' for Inactive)
REMARK    1  A    between atoms: C_5  and  C_6 
REMARK    2  A    between atoms: C_6  and  C_7 
REMARK    3  A    between atoms: C_7  and  N_8 
REMARK       I    between atoms: N_8  and  C_9 
REMARK       I    between atoms: C_9  and  N_11 
REMARK    4  A    between atoms: C_14  and  C_17 
REMARK       I    between atoms: C_17  and  N_19 
ROOT
HETATM    1  N   UNL     1     -41.560 -50.351  13.050  1.00  0.00    -0.343 N 
HETATM    2  C   UNL     1     -42.893 -50.207  13.342  1.00  0.00     0.318 C 
HETATM    3  O   UNL     1     -43.394 -49.096  13.501  1.00  0.00    -0.247 OA
HETATM    4  N   UNL     1     -43.619 -51.385  13.412  1.00  0.00    -0.334 N 
HETATM    5  C   UNL     1     -43.088 -52.737  13.248  1.00  0.00     0.128 C 
HETATM    6  C   UNL     1     -43.979 -53.576  12.335  1.00  0.00     0.034 C 
HETATM    7  C   UNL     1     -45.433 -53.593  12.818  1.00  0.00     0.081 C 
HETATM    8  C   UNL     1     -45.937 -52.154  12.990  1.00  0.00     0.034 C 
HETATM    9  C   UNL     1     -45.009 -51.309  13.865  1.00  0.00     0.128 C 
HETATM   10  H   UNL     1     -41.118 -51.190  13.385  1.00  0.00     0.164 HD
ENDROOT
BRANCH   1  11
HETATM   11  C   UNL     1     -40.689 -49.189  12.936  1.00  0.00     0.131 C 
BRANCH  11  12
HETATM   12  C   UNL     1     -40.302 -48.918  11.483  1.00  0.00     0.084 C 
BRANCH  12  13
HETATM   13  C   UNL     1     -41.277 -48.003  10.814  1.00  0.00     0.052 A 
HETATM   14  S   UNL     1     -41.086 -46.299  10.933  1.00  0.00    -0.087 SA
HETATM   15  C   UNL     1     -42.455 -46.088   9.929  1.00  0.00     0.076 A 
HETATM   16  C   UNL     1     -42.976 -47.315   9.569  1.00  0.00     0.012 A 
HETATM   17  C   UNL     1     -44.155 -47.553   8.697  1.00  0.00     0.068 C 
HETATM   18  N   UNL     1     -42.299 -48.409  10.089  1.00  0.00    -0.357 N 
ATOM     19  HN  UNL     1     -42.555 -49.385   9.933  1.00  0.00     0.166 HD
ENDBRANCH  12  13
ENDBRANCH  11  12
ENDBRANCH   1  11
BRANCH   7  20
HETATM   20  C   UNL     1     -45.599 -54.409  14.096  1.00  0.00     0.219 C 
HETATM   21  O   UNL     1     -44.703 -55.051  14.632  1.00  0.00    -0.273 OA
HETATM   22  N   UNL     1     -46.844 -54.379  14.650  1.00  0.00    -0.370 N 
HETATM   23  H   UNL     1     -47.521 -53.668  14.412  1.00  0.00     0.159 HD
HETATM   24  H   UNL     1     -46.946 -54.846  15.545  1.00  0.00     0.159 HD
ENDBRANCH   7  20
TORSDOF 4
ENDMDL
MODEL 6
REMARK VINA RESULT:      -5.6      3.361      6.515
REMARK  4 active torsions:
REMARK  status: ('A' for Active; 'I' for Inactive)
REMARK    1  A    between atoms: C_5  and  C_6 
REMARK    2  A    between atoms: C_6  and  C_7 
REMARK    3  A    between atoms: C_7  and  N_8 
REMARK       I    between atoms: N_8  and  C_9 
REMARK       I    between atoms: C_9  and  N_11 
REMARK    4  A    between atoms: C_14  and  C_17 
REMARK       I    between atoms: C_17  and  N_19 
ROOT
HETATM    1  N   UNL     1     -41.767 -52.752  13.076  1.00  0.00    -0.343 N 
HETATM    2  C   UNL     1     -40.403 -52.788  13.224  1.00  0.00     0.318 C 
HETATM    3  O   UNL     1     -39.801 -53.855  13.317  1.00  0.00    -0.247 OA
HETATM    4  N   UNL     1     -39.771 -51.555  13.231  1.00  0.00    -0.334 N 
HETATM    5  C   UNL     1     -40.424 -50.251  13.138  1.00  0.00     0.128 C 
HETATM    6  C   UNL     1     -39.706 -49.339  12.146  1.00  0.00     0.034 C 
HETATM    7  C   UNL     1     -38.214 -49.206  12.473  1.00  0.00     0.081 C 
HETATM    8  C   UNL     1     -37.581 -50.599  12.574  1.00  0.00     0.034 C 
HETATM    9  C   UNL     1     -38.339 -51.519  13.533  1.00  0.00     0.128 C 
HETATM   10  H   UNL     1     -42.237 -51.953  13.465  1.00  0.00     0.164 HD
ENDROOT
BRANCH   1  11
HETATM   11  C   UNL     1     -42.549 -53.981  13.041  1.00  0.00     0.131 C 
BRANCH  11  12
HETATM   12  C   UNL     1     -43.603 -54.006  14.146  1.00  0.00     0.084 C 
BRANCH  12  13
HETATM   13  C   UNL     1     -44.751 -53.100  13.835  1.00  0.00     0.052 A 
HETATM   14  S   UNL     1     -45.374 -52.048  15.043  1.00  0.00    -0.087 SA
HETATM   15  C   UNL     1     -46.490 -51.425  13.905  1.00  0.00     0.076 A 
HETATM   16  C   UNL     1     -46.328 -52.051  12.685  1.00  0.00     0.012 A 
HETATM   17  C   UNL     1     -47.098 -51.780  11.444  1.00  0.00     0.068 C 
HETATM   18  N   UNL     1     -45.333 -53.018  12.656  1.00  0.00    -0.357 N 
ATOM     19  HN  UNL     1     -45.089 -53.583  11.841  1.00  0.00     0.166 HD
ENDBRANCH  12  13
ENDBRANCH  11  12
ENDBRANCH   1  11
BRANCH   7  20
HETATM   20  C   UNL     1     -37.980 -48.382  13.735  1.00  0.00     0.219 C 
HETATM   21  O   UNL     1     -37.177 -48.670  14.614  1.00  0.00    -0.273 OA
HETATM   22  N   UNL     1     -38.730 -47.247  13.840  1.00  0.00    -0.370 N 
HETATM   23  H   UNL     1     -39.189 -46.832  13.042  1.00  0.00     0.159 HD
HETATM   24  H   UNL     1     -38.523 -46.647  14.629  1.00  0.00     0.159 HD
ENDBRANCH   7  20
TORSDOF 4
ENDMDL
MODEL 7
REMARK VINA RESULT:      -5.6      2.061      3.560
REMARK  4 active torsions:
REMARK  status: ('A' for Active; 'I' for Inactive)
REMARK    1  A    between atoms: C_5  and  C_6 
REMARK    2  A    between atoms: C_6  and  C_7 
REMARK    3  A    between atoms: C_7  and  N_8 
REMARK       I    between atoms: N_8  and  C_9 
REMARK       I    between atoms: C_9  and  N_11 
REMARK    4  A    between atoms: C_14  and  C_17 
REMARK       I    between atoms: C_17  and  N_19 
ROOT
HETATM    1  N   UNL     1     -41.731 -50.808  11.819  1.00  0.00    -0.343 N 
HETATM    2  C   UNL     1     -41.565 -52.100  12.249  1.00  0.00     0.318 C 
HETATM    3  O   UNL     1     -40.503 -52.695  12.084  1.00  0.00    -0.247 OA
HETATM    4  N   UNL     1     -42.657 -52.658  12.895  1.00  0.00    -0.334 N 
HETATM    5  C   UNL     1     -43.951 -52.015  13.113  1.00  0.00     0.128 C 
HETATM    6  C   UNL     1     -44.438 -52.221  14.546  1.00  0.00     0.034 C 
HETATM    7  C   UNL     1     -44.469 -53.704  14.929  1.00  0.00     0.081 C 
HETATM    8  C   UNL     1     -43.095 -54.334  14.667  1.00  0.00     0.034 C 
HETATM    9  C   UNL     1     -42.596 -54.078  13.244  1.00  0.00     0.128 C 
HETATM   10  H   UNL     1     -42.662 -50.544  11.544  1.00  0.00     0.164 HD
ENDROOT
BRANCH   1  11
HETATM   11  C   UNL     1     -40.655 -50.102  11.136  1.00  0.00     0.131 C 
BRANCH  11  12
HETATM   12  C   UNL     1     -40.562 -48.647  11.589  1.00  0.00     0.084 C 
BRANCH  12  13
HETATM   13  C   UNL     1     -39.561 -48.472  12.686  1.00  0.00     0.052 A 
HETATM   14  S   UNL     1     -39.358 -46.939  13.436  1.00  0.00    -0.087 SA
HETATM   15  C   UNL     1     -38.194 -47.623  14.487  1.00  0.00     0.076 A 
HETATM   16  C   UNL     1     -38.024 -48.964  14.205  1.00  0.00     0.012 A 
HETATM   17  C   UNL     1     -37.112 -49.905  14.903  1.00  0.00     0.068 C 
HETATM   18  N   UNL     1     -38.807 -49.441  13.163  1.00  0.00    -0.357 N 
ATOM     19  HN  UNL     1     -38.799 -50.402  12.818  1.00  0.00     0.166 HD
ENDBRANCH  12  13
ENDBRANCH  11  12
ENDBRANCH   1  11
BRANCH   7  20
HETATM   20  C   UNL     1     -45.585 -54.455  14.210  1.00  0.00     0.219 C 
HETATM   21  O   UNL     1     -45.522 -55.627  13.861  1.00  0.00    -0.273 OA
HETATM   22  N   UNL     1     -46.717 -53.732  13.974  1.00  0.00    -0.370 N 
HETATM   23  H   UNL     1     -46.921 -52.875  14.469  1.00  0.00     0.159 HD
HETATM   24  H   UNL     1     -47.497 -54.242  13.575  1.00  0.00     0.159 HD
ENDBRANCH   7  20
TORSDOF 4
ENDMDL
MODEL 8
REMARK VINA RESULT:      -5.6      2.328      2.499
REMARK  4 active torsions:
REMARK  status: ('A' for Active; 'I' for Inactive)
REMARK    1  A    between atoms: C_5  and  C_6 
REMARK    2  A    between atoms: C_6  and  C_7 
REMARK    3  A    between atoms: C_7  and  N_8 
REMARK       I    between atoms: N_8  and  C_9 
REMARK       I    between atoms: C_9  and  N_11 
REMARK    4  A    between atoms: C_14  and  C_17 
REMARK       I    between atoms: C_17  and  N_19 
ROOT
HETATM    1  N   UNL     1     -40.364 -51.042  13.436  1.00  0.00    -0.343 N 
HETATM    2  C   UNL     1     -40.456 -52.410  13.478  1.00  0.00     0.318 C 
HETATM    3  O   UNL     1     -39.458 -53.119  13.369  1.00  0.00    -0.247 OA
HETATM    4  N   UNL     1     -41.730 -52.916  13.678  1.00  0.00    -0.334 N 
HETATM    5  C   UNL     1     -42.959 -52.136  13.802  1.00  0.00     0.128 C 
HETATM    6  C   UNL     1     -43.814 -52.627  14.968  1.00  0.00     0.034 C 
HETATM    7  C   UNL     1     -44.103 -54.129  14.867  1.00  0.00     0.081 C 
HETATM    8  C   UNL     1     -42.786 -54.901  14.723  1.00  0.00     0.034 C 
HETATM    9  C   UNL     1     -41.916 -54.366  13.584  1.00  0.00     0.128 C 
HETATM   10  H   UNL     1     -41.160 -50.552  13.063  1.00  0.00     0.164 HD
ENDROOT
BRANCH   1  11
HETATM   11  C   UNL     1     -39.079 -50.383  13.243  1.00  0.00     0.131 C 
BRANCH  11  12
HETATM   12  C   UNL     1     -39.006 -49.681  11.889  1.00  0.00     0.084 C 
BRANCH  12  13
HETATM   13  C   UNL     1     -39.366 -48.234  11.996  1.00  0.00     0.052 A 
HETATM   14  S   UNL     1     -39.200 -47.411  13.496  1.00  0.00    -0.087 SA
HETATM   15  C   UNL     1     -39.718 -45.964  12.743  1.00  0.00     0.076 A 
HETATM   16  C   UNL     1     -39.990 -46.191  11.409  1.00  0.00     0.012 A 
HETATM   17  C   UNL     1     -40.452 -45.185  10.418  1.00  0.00     0.068 C 
HETATM   18  N   UNL     1     -39.793 -47.499  10.990  1.00  0.00    -0.357 N 
ATOM     19  HN  UNL     1     -39.956 -47.841  10.042  1.00  0.00     0.166 HD
ENDBRANCH  12  13
ENDBRANCH  11  12
ENDBRANCH   1  11
BRANCH   7  20
HETATM   20  C   UNL     1     -45.075 -54.446  13.735  1.00  0.00     0.219 C 
HETATM   21  O   UNL     1     -44.794 -54.397  12.543  1.00  0.00    -0.273 OA
HETATM   22  N   UNL     1     -46.326 -54.821  14.127  1.00  0.00    -0.370 N 
HETATM   23  H   UNL     1     -46.523 -55.136  15.066  1.00  0.00     0.159 HD
HETATM   24  H   UNL     1     -46.955 -55.118  13.389  1.00  0.00     0.159 HD
ENDBRANCH   7  20
TORSDOF 4
ENDMDL
MODEL 9
REMARK VINA RESULT:      -5.6      5.656      9.840
REMARK  4 active torsions:
REMARK  status: ('A' for Active; 'I' for Inactive)
REMARK    1  A    between atoms: C_5  and  C_6 
REMARK    2  A    between atoms: C_6  and  C_7 
REMARK    3  A    between atoms: C_7  and  N_8 
REMARK       I    between atoms: N_8  and  C_9 
REMARK       I    between atoms: C_9  and  N_11 
REMARK    4  A    between atoms: C_14  and  C_17 
REMARK       I    between atoms: C_17  and  N_19 
ROOT
HETATM    1  N   UNL     1     -46.187 -54.354  17.958  1.00  0.00    -0.343 N 
HETATM    2  C   UNL     1     -44.945 -54.080  17.443  1.00  0.00     0.318 C 
HETATM    3  O   UNL     1     -43.972 -53.923  18.175  1.00  0.00    -0.247 OA
HETATM    4  N   UNL     1     -44.873 -54.025  16.060  1.00  0.00    -0.334 N 
HETATM    5  C   UNL     1     -45.988 -54.188  15.130  1.00  0.00     0.128 C 
HETATM    6  C   UNL     1     -45.618 -55.117  13.976  1.00  0.00     0.034 C 
HETATM    7  C   UNL     1     -44.345 -54.653  13.259  1.00  0.00     0.081 C 
HETATM    8  C   UNL     1     -43.211 -54.483  14.278  1.00  0.00     0.034 C 
HETATM    9  C   UNL     1     -43.612 -53.591  15.455  1.00  0.00     0.128 C 
HETATM   10  H   UNL     1     -46.974 -54.017  17.430  1.00  0.00     0.164 HD
ENDROOT
BRANCH   1  11
HETATM   11  C   UNL     1     -46.396 -54.452  19.396  1.00  0.00     0.131 C 
BRANCH  11  12
HETATM   12  C   UNL     1     -46.347 -55.901  19.874  1.00  0.00     0.084 C 
BRANCH  12  13
HETATM   13  C   UNL     1     -47.716 -56.484  20.013  1.00  0.00     0.052 A 
HETATM   14  S   UNL     1     -47.946 -58.184  19.921  1.00  0.00    -0.087 SA
HETATM   15  C   UNL     1     -49.617 -57.961  20.217  1.00  0.00     0.076 A 
HETATM   16  C   UNL     1     -49.900 -56.618  20.362  1.00  0.00     0.012 A 
HETATM   17  C   UNL     1     -51.232 -56.021  20.640  1.00  0.00     0.068 C 
HETATM   18  N   UNL     1     -48.805 -55.775  20.234  1.00  0.00    -0.357 N 
ATOM     19  HN  UNL     1     -48.838 -54.758  20.301  1.00  0.00     0.166 HD
ENDBRANCH  12  13
ENDBRANCH  11  12
ENDBRANCH   1  11
BRANCH   7  20
HETATM   20  C   UNL     1     -44.578 -53.382  12.450  1.00  0.00     0.219 C 
HETATM   21  O   UNL     1     -45.681 -52.924  12.177  1.00  0.00    -0.273 OA
HETATM   22  N   UNL     1     -43.449 -52.737  12.036  1.00  0.00    -0.370 N 
HETATM   23  H   UNL     1     -42.547 -52.913  12.455  1.00  0.00     0.159 HD
HETATM   24  H   UNL     1     -43.589 -51.846  11.573  1.00  0.00     0.159 HD
ENDBRANCH   7  20
TORSDOF 4
ENDMDL
