MODEL 1
REMARK VINA RESULT:      -6.1      0.000      0.000
REMARK  4 active torsions:
REMARK  status: ('A' for Active; 'I' for Inactive)
REMARK    1  A    between atoms: C_2  and  S_3 
REMARK    2  A    between atoms: S_3  and  C_4 
REMARK    3  A    between atoms: C_8  and  N_10 
REMARK       I    between atoms: N_10  and  C_11 
REMARK       I    between atoms: C_11  and  N_13 
REMARK    4  A    between atoms: N_13  and  C_14 
ROOT
HETATM    1  N   UNL     1     -40.375 -51.092  11.762  1.00  0.00    -0.338 N 
HETATM    2  C   UNL     1     -41.103 -49.931  11.790  1.00  0.00     0.321 C 
HETATM    3  O   UNL     1     -41.768 -49.605  12.770  1.00  0.00    -0.247 OA
HETATM    4  N   UNL     1     -41.007 -49.182  10.647  1.00  0.00    -0.304 N 
HETATM    5  H   UNL     1     -40.052 -51.428  10.867  1.00  0.00     0.164 HD
HETATM    6  H   UNL     1     -40.743 -49.647   9.786  1.00  0.00     0.171 HD
ENDROOT
BRANCH   1   7
HETATM    7  C   UNL     1     -40.447 -52.055  12.864  1.00  0.00     0.087 C 
HETATM    8  C   UNL     1     -39.145 -52.069  13.680  1.00  0.00     0.025 C 
HETATM    9  C   UNL     1     -39.166 -53.100  14.804  1.00  0.00     0.003 C 
HETATM   10  C   UNL     1     -39.579 -54.488  14.306  1.00  0.00     0.015 C 
HETATM   11  C   UNL     1     -40.904 -54.488  13.524  1.00  0.00     0.049 C 
HETATM   12  C   UNL     1     -40.823 -53.471  12.383  1.00  0.00     0.040 C 
BRANCH  11  13
HETATM   13  S   UNL     1     -42.310 -54.182  14.674  1.00  0.00    -0.165 SA
BRANCH  13  14
HETATM   14  C   UNL     1     -43.694 -54.117  13.493  1.00  0.00     0.070 C 
HETATM   15  C   UNL     1     -44.868 -54.906  14.043  1.00  0.00     0.016 C 
ENDBRANCH  13  14
ENDBRANCH  11  13
ENDBRANCH   1   7
BRANCH   4  16
HETATM   16  C   UNL     1     -41.633 -47.958  10.480  1.00  0.00     0.105 A 
HETATM   17  C   UNL     1     -42.847 -47.790   9.931  1.00  0.00     0.037 A 
HETATM   18  C   UNL     1     -43.413 -46.493   9.708  1.00  0.00     0.020 A 
HETATM   19  C   UNL     1     -42.715 -45.399  10.039  1.00  0.00     0.094 A 
HETATM   20  N   UNL     1     -41.465 -45.499  10.623  1.00  0.00    -0.327 N 
HETATM   21  C   UNL     1     -40.726 -44.290  10.934  1.00  0.00     0.159 C 
HETATM   22  C   UNL     1     -40.871 -46.730  10.922  1.00  0.00     0.274 A 
HETATM   23  O   UNL     1     -39.779 -46.862  11.478  1.00  0.00    -0.266 OA
ENDBRANCH   4  16
TORSDOF 4
ENDMDL
MODEL 2
REMARK VINA RESULT:      -6.1      2.132      3.307
REMARK  4 active torsions:
REMARK  status: ('A' for Active; 'I' for Inactive)
REMARK    1  A    between atoms: C_2  and  S_3 
REMARK    2  A    between atoms: S_3  and  C_4 
REMARK    3  A    between atoms: C_8  and  N_10 
REMARK       I    between atoms: N_10  and  C_11 
REMARK       I    between atoms: C_11  and  N_13 
REMARK    4  A    between atoms: N_13  and  C_14 
ROOT
HETATM    1  N   UNL     1     -42.407 -51.848  12.080  1.00  0.00    -0.338 N 
HETATM    2  C   UNL     1     -42.105 -50.523  12.264  1.00  0.00     0.321 C 
HETATM    3  O   UNL     1     -42.320 -49.950  13.329  1.00  0.00    -0.247 OA
HETATM    4  N   UNL     1     -41.540 -49.921  11.171  1.00  0.00    -0.304 N 
HETATM    5  H   UNL     1     -42.439 -52.200  11.135  1.00  0.00     0.164 HD
HETATM    6  H   UNL     1     -41.704 -50.328  10.257  1.00  0.00     0.171 HD
ENDROOT
BRANCH   1   7
HETATM    7  C   UNL     1     -43.107 -52.613  13.115  1.00  0.00     0.087 C 
HETATM    8  C   UNL     1     -42.428 -53.969  13.362  1.00  0.00     0.025 C 
HETATM    9  C   UNL     1     -43.163 -54.815  14.398  1.00  0.00     0.003 C 
HETATM   10  C   UNL     1     -44.657 -54.938  14.086  1.00  0.00     0.015 C 
HETATM   11  C   UNL     1     -45.353 -53.581  13.880  1.00  0.00     0.049 C 
HETATM   12  C   UNL     1     -44.608 -52.784  12.806  1.00  0.00     0.040 C 
BRANCH  11  13
HETATM   13  S   UNL     1     -45.481 -52.692  15.488  1.00  0.00    -0.165 SA
BRANCH  13  14
HETATM   14  C   UNL     1     -46.890 -51.590  15.144  1.00  0.00     0.070 C 
HETATM   15  C   UNL     1     -47.625 -51.290  16.437  1.00  0.00     0.016 C 
ENDBRANCH  13  14
ENDBRANCH  11  13
ENDBRANCH   1   7
BRANCH   4  16
HETATM   16  C   UNL     1     -41.125 -48.599  11.155  1.00  0.00     0.105 A 
HETATM   17  C   UNL     1     -39.943 -48.165  11.623  1.00  0.00     0.037 A 
HETATM   18  C   UNL     1     -39.600 -46.774  11.656  1.00  0.00     0.020 A 
HETATM   19  C   UNL     1     -40.480 -45.862  11.224  1.00  0.00     0.094 A 
HETATM   20  N   UNL     1     -41.709 -46.242  10.715  1.00  0.00    -0.327 N 
HETATM   21  C   UNL     1     -42.648 -45.221  10.291  1.00  0.00     0.159 C 
HETATM   22  C   UNL     1     -42.093 -47.582  10.599  1.00  0.00     0.274 A 
HETATM   23  O   UNL     1     -43.161 -47.963  10.115  1.00  0.00    -0.266 OA
ENDBRANCH   4  16
TORSDOF 4
ENDMDL
MODEL 3
REMARK VINA RESULT:      -6.0      1.690      2.172
REMARK  4 active torsions:
REMARK  status: ('A' for Active; 'I' for Inactive)
REMARK    1  A    between atoms: C_2  and  S_3 
REMARK    2  A    between atoms: S_3  and  C_4 
REMARK    3  A    between atoms: C_8  and  N_10 
REMARK       I    between atoms: N_10  and  C_11 
REMARK       I    between atoms: C_11  and  N_13 
REMARK    4  A    between atoms: N_13  and  C_14 
ROOT
HETATM    1  N   UNL     1     -41.867 -51.659  12.478  1.00  0.00    -0.338 N 
HETATM    2  C   UNL     1     -42.213 -50.338  12.353  1.00  0.00     0.321 C 
HETATM    3  O   UNL     1     -42.931 -49.775  13.174  1.00  0.00    -0.247 OA
HETATM    4  N   UNL     1     -41.677 -49.720  11.254  1.00  0.00    -0.304 N 
HETATM    5  H   UNL     1     -41.487 -52.127  11.669  1.00  0.00     0.164 HD
HETATM    6  H   UNL     1     -41.397 -50.293  10.466  1.00  0.00     0.171 HD
ENDROOT
BRANCH   1   7
HETATM    7  C   UNL     1     -42.434 -52.490  13.541  1.00  0.00     0.087 C 
HETATM    8  C   UNL     1     -41.338 -53.258  14.296  1.00  0.00     0.025 C 
HETATM    9  C   UNL     1     -41.900 -54.176  15.377  1.00  0.00     0.003 C 
HETATM   10  C   UNL     1     -43.011 -55.084  14.843  1.00  0.00     0.015 C 
HETATM   11  C   UNL     1     -44.135 -54.317  14.124  1.00  0.00     0.049 C 
HETATM   12  C   UNL     1     -43.531 -53.442  13.022  1.00  0.00     0.040 C 
BRANCH  11  13
HETATM   13  S   UNL     1     -45.126 -53.364  15.348  1.00  0.00    -0.165 SA
BRANCH  13  14
HETATM   14  C   UNL     1     -46.582 -52.942  14.339  1.00  0.00     0.070 C 
HETATM   15  C   UNL     1     -46.640 -51.440  14.135  1.00  0.00     0.016 C 
ENDBRANCH  13  14
ENDBRANCH  11  13
ENDBRANCH   1   7
BRANCH   4  16
HETATM   16  C   UNL     1     -41.869 -48.380  10.960  1.00  0.00     0.105 A 
HETATM   17  C   UNL     1     -42.999 -47.867  10.444  1.00  0.00     0.037 A 
HETATM   18  C   UNL     1     -43.115 -46.485  10.083  1.00  0.00     0.020 A 
HETATM   19  C   UNL     1     -42.068 -45.667  10.245  1.00  0.00     0.094 A 
HETATM   20  N   UNL     1     -40.879 -46.126  10.785  1.00  0.00    -0.327 N 
HETATM   21  C   UNL     1     -39.757 -45.215  10.911  1.00  0.00     0.159 C 
HETATM   22  C   UNL     1     -40.709 -47.447  11.212  1.00  0.00     0.274 A 
HETATM   23  O   UNL     1     -39.681 -47.885  11.735  1.00  0.00    -0.266 OA
ENDBRANCH   4  16
TORSDOF 4
ENDMDL
MODEL 4
REMARK VINA RESULT:      -5.9      2.876      8.080
REMARK  4 active torsions:
REMARK  status: ('A' for Active; 'I' for Inactive)
REMARK    1  A    between atoms: C_2  and  S_3 
REMARK    2  A    between atoms: S_3  and  C_4 
REMARK    3  A    between atoms: C_8  and  N_10 
REMARK       I    between atoms: N_10  and  C_11 
REMARK       I    between atoms: C_11  and  N_13 
REMARK    4  A    between atoms: N_13  and  C_14 
ROOT
HETATM    1  N   UNL     1     -42.029 -49.807  11.356  1.00  0.00    -0.338 N 
HETATM    2  C   UNL     1     -42.269 -50.629  12.427  1.00  0.00     0.321 C 
HETATM    3  O   UNL     1     -42.360 -50.193  13.571  1.00  0.00    -0.247 OA
HETATM    4  N   UNL     1     -42.409 -51.951  12.098  1.00  0.00    -0.304 N 
HETATM    5  H   UNL     1     -41.726 -50.232  10.492  1.00  0.00     0.164 HD
HETATM    6  H   UNL     1     -41.995 -52.280  11.233  1.00  0.00     0.171 HD
ENDROOT
BRANCH   1   7
HETATM    7  C   UNL     1     -41.756 -48.381  11.545  1.00  0.00     0.087 C 
HETATM    8  C   UNL     1     -42.784 -47.512  10.803  1.00  0.00     0.025 C 
HETATM    9  C   UNL     1     -42.498 -46.019  10.935  1.00  0.00     0.003 C 
HETATM   10  C   UNL     1     -41.049 -45.675  10.578  1.00  0.00     0.015 C 
HETATM   11  C   UNL     1     -40.014 -46.512  11.349  1.00  0.00     0.049 C 
HETATM   12  C   UNL     1     -40.314 -48.000  11.155  1.00  0.00     0.040 C 
BRANCH  11  13
HETATM   13  S   UNL     1     -39.987 -45.999  13.118  1.00  0.00    -0.165 SA
BRANCH  13  14
HETATM   14  C   UNL     1     -38.977 -44.488  13.009  1.00  0.00     0.070 C 
HETATM   15  C   UNL     1     -39.860 -43.272  13.219  1.00  0.00     0.016 C 
ENDBRANCH  13  14
ENDBRANCH  11  13
ENDBRANCH   1   7
BRANCH   4  16
HETATM   16  C   UNL     1     -42.692 -52.943  13.022  1.00  0.00     0.105 A 
HETATM   17  C   UNL     1     -41.811 -53.431  13.912  1.00  0.00     0.037 A 
HETATM   18  C   UNL     1     -42.134 -54.515  14.791  1.00  0.00     0.020 A 
HETATM   19  C   UNL     1     -43.345 -55.083  14.727  1.00  0.00     0.094 A 
HETATM   20  N   UNL     1     -44.305 -54.620  13.845  1.00  0.00    -0.327 N 
HETATM   21  C   UNL     1     -45.592 -55.286  13.782  1.00  0.00     0.159 C 
HETATM   22  C   UNL     1     -44.082 -53.531  12.995  1.00  0.00     0.274 A 
HETATM   23  O   UNL     1     -44.924 -53.064  12.225  1.00  0.00    -0.266 OA
ENDBRANCH   4  16
TORSDOF 4
ENDMDL
MODEL 5
REMARK VINA RESULT:      -5.9      3.014      7.590
REMARK  4 active torsions:
REMARK  status: ('A' for Active; 'I' for Inactive)
REMARK    1  A    between atoms: C_2  and  S_3 
REMARK    2  A    between atoms: S_3  and  C_4 
REMARK    3  A    between atoms: C_8  and  N_10 
REMARK       I    between atoms: N_10  and  C_11 
REMARK       I    between atoms: C_11  and  N_13 
REMARK    4  A    between atoms: N_13  and  C_14 
ROOT
HETATM    1  N   UNL     1     -41.599 -50.313  11.359  1.00  0.00    -0.338 N 
HETATM    2  C   UNL     1     -42.299 -51.064  12.267  1.00  0.00     0.321 C 
HETATM    3  O   UNL     1     -42.812 -50.563  13.265  1.00  0.00    -0.247 OA
HETATM    4  N   UNL     1     -42.378 -52.394  11.951  1.00  0.00    -0.304 N 
HETATM    5  H   UNL     1     -41.003 -50.796  10.703  1.00  0.00     0.164 HD
HETATM    6  H   UNL     1     -41.675 -52.787  11.336  1.00  0.00     0.171 HD
ENDROOT
BRANCH   1   7
HETATM    7  C   UNL     1     -41.336 -48.892  11.597  1.00  0.00     0.087 C 
HETATM    8  C   UNL     1     -41.758 -48.035  10.393  1.00  0.00     0.025 C 
HETATM    9  C   UNL     1     -41.449 -46.554  10.587  1.00  0.00     0.003 C 
HETATM   10  C   UNL     1     -39.997 -46.319  11.012  1.00  0.00     0.015 C 
HETATM   11  C   UNL     1     -39.579 -47.142  12.244  1.00  0.00     0.049 C 
HETATM   12  C   UNL     1     -39.869 -48.623  11.990  1.00  0.00     0.040 C 
BRANCH  11  13
HETATM   13  S   UNL     1     -40.414 -46.484  13.748  1.00  0.00    -0.165 SA
BRANCH  13  14
HETATM   14  C   UNL     1     -38.967 -46.056  14.768  1.00  0.00     0.070 C 
HETATM   15  C   UNL     1     -37.857 -47.061  14.521  1.00  0.00     0.016 C 
ENDBRANCH  13  14
ENDBRANCH  11  13
ENDBRANCH   1   7
BRANCH   4  16
HETATM   16  C   UNL     1     -43.069 -53.322  12.714  1.00  0.00     0.105 A 
HETATM   17  C   UNL     1     -44.370 -53.621  12.557  1.00  0.00     0.037 A 
HETATM   18  C   UNL     1     -45.054 -54.530  13.429  1.00  0.00     0.020 A 
HETATM   19  C   UNL     1     -44.396 -55.096  14.447  1.00  0.00     0.094 A 
HETATM   20  N   UNL     1     -43.051 -54.844  14.657  1.00  0.00    -0.327 N 
HETATM   21  C   UNL     1     -42.383 -55.450  15.792  1.00  0.00     0.159 C 
HETATM   22  C   UNL     1     -42.303 -54.013  13.816  1.00  0.00     0.274 A 
HETATM   23  O   UNL     1     -41.096 -53.795  13.945  1.00  0.00    -0.266 OA
ENDBRANCH   4  16
TORSDOF 4
ENDMDL
MODEL 6
REMARK VINA RESULT:      -5.7      3.278      5.335
REMARK  4 active torsions:
REMARK  status: ('A' for Active; 'I' for Inactive)
REMARK    1  A    between atoms: C_2  and  S_3 
REMARK    2  A    between atoms: S_3  and  C_4 
REMARK    3  A    between atoms: C_8  and  N_10 
REMARK       I    between atoms: N_10  and  C_11 
REMARK       I    between atoms: C_11  and  N_13 
REMARK    4  A    between atoms: N_13  and  C_14 
ROOT
HETATM    1  N   UNL     1     -43.824 -52.113  12.705  1.00  0.00    -0.338 N 
HETATM    2  C   UNL     1     -42.689 -51.403  13.000  1.00  0.00     0.321 C 
HETATM    3  O   UNL     1     -42.310 -51.238  14.156  1.00  0.00    -0.247 OA
HETATM    4  N   UNL     1     -42.030 -50.918  11.901  1.00  0.00    -0.304 N 
HETATM    5  H   UNL     1     -44.218 -52.014  11.781  1.00  0.00     0.164 HD
HETATM    6  H   UNL     1     -42.552 -50.791  11.042  1.00  0.00     0.171 HD
ENDROOT
BRANCH   1   7
HETATM    7  C   UNL     1     -44.699 -52.615  13.767  1.00  0.00     0.087 C 
HETATM    8  C   UNL     1     -45.193 -54.037  13.460  1.00  0.00     0.025 C 
HETATM    9  C   UNL     1     -46.151 -54.570  14.522  1.00  0.00     0.003 C 
HETATM   10  C   UNL     1     -47.288 -53.588  14.818  1.00  0.00     0.015 C 
HETATM   11  C   UNL     1     -46.798 -52.172  15.169  1.00  0.00     0.049 C 
HETATM   12  C   UNL     1     -45.875 -51.662  14.059  1.00  0.00     0.040 C 
BRANCH  11  13
HETATM   13  S   UNL     1     -46.003 -52.178  16.830  1.00  0.00    -0.165 SA
BRANCH  13  14
HETATM   14  C   UNL     1     -47.453 -51.881  17.891  1.00  0.00     0.070 C 
HETATM   15  C   UNL     1     -48.208 -50.665  17.389  1.00  0.00     0.016 C 
ENDBRANCH  13  14
ENDBRANCH  11  13
ENDBRANCH   1   7
BRANCH   4  16
HETATM   16  C   UNL     1     -40.844 -50.206  11.974  1.00  0.00     0.105 A 
HETATM   17  C   UNL     1     -40.741 -48.876  11.807  1.00  0.00     0.037 A 
HETATM   18  C   UNL     1     -39.477 -48.202  11.811  1.00  0.00     0.020 A 
HETATM   19  C   UNL     1     -38.350 -48.906  11.971  1.00  0.00     0.094 A 
HETATM   20  N   UNL     1     -38.384 -50.275  12.163  1.00  0.00    -0.327 N 
HETATM   21  C   UNL     1     -37.138 -51.006  12.297  1.00  0.00     0.159 C 
HETATM   22  C   UNL     1     -39.582 -50.996  12.227  1.00  0.00     0.274 A 
HETATM   23  O   UNL     1     -39.657 -52.208  12.436  1.00  0.00    -0.266 OA
ENDBRANCH   4  16
TORSDOF 4
ENDMDL
MODEL 7
REMARK VINA RESULT:      -5.6      1.264      2.490
REMARK  4 active torsions:
REMARK  status: ('A' for Active; 'I' for Inactive)
REMARK    1  A    between atoms: C_2  and  S_3 
REMARK    2  A    between atoms: S_3  and  C_4 
REMARK    3  A    between atoms: C_8  and  N_10 
REMARK       I    between atoms: N_10  and  C_11 
REMARK       I    between atoms: C_11  and  N_13 
REMARK    4  A    between atoms: N_13  and  C_14 
ROOT
HETATM    1  N   UNL     1     -40.629 -51.283  11.390  1.00  0.00    -0.338 N 
HETATM    2  C   UNL     1     -41.278 -50.085  11.543  1.00  0.00     0.321 C 
HETATM    3  O   UNL     1     -41.933 -49.826  12.550  1.00  0.00    -0.247 OA
HETATM    4  N   UNL     1     -41.115 -49.221  10.492  1.00  0.00    -0.304 N 
HETATM    5  H   UNL     1     -40.317 -51.538  10.464  1.00  0.00     0.164 HD
HETATM    6  H   UNL     1     -40.871 -49.604   9.586  1.00  0.00     0.171 HD
ENDROOT
BRANCH   1   7
HETATM    7  C   UNL     1     -40.781 -52.356  12.375  1.00  0.00     0.087 C 
HETATM    8  C   UNL     1     -42.249 -52.791  12.506  1.00  0.00     0.025 C 
HETATM    9  C   UNL     1     -42.451 -53.872  13.564  1.00  0.00     0.003 C 
HETATM   10  C   UNL     1     -41.814 -53.492  14.904  1.00  0.00     0.015 C 
HETATM   11  C   UNL     1     -40.332 -53.096  14.787  1.00  0.00     0.049 C 
HETATM   12  C   UNL     1     -40.182 -51.984  13.747  1.00  0.00     0.040 C 
BRANCH  11  13
HETATM   13  S   UNL     1     -39.314 -54.585  14.413  1.00  0.00    -0.165 SA
BRANCH  13  14
HETATM   14  C   UNL     1     -39.410 -55.460  16.007  1.00  0.00     0.070 C 
HETATM   15  C   UNL     1     -38.010 -55.701  16.539  1.00  0.00     0.016 C 
ENDBRANCH  13  14
ENDBRANCH  11  13
ENDBRANCH   1   7
BRANCH   4  16
HETATM   16  C   UNL     1     -41.655 -47.946  10.460  1.00  0.00     0.105 A 
HETATM   17  C   UNL     1     -42.866 -47.642   9.963  1.00  0.00     0.037 A 
HETATM   18  C   UNL     1     -43.341 -46.293   9.881  1.00  0.00     0.020 A 
HETATM   19  C   UNL     1     -42.559 -45.288  10.295  1.00  0.00     0.094 A 
HETATM   20  N   UNL     1     -41.308 -45.531  10.832  1.00  0.00    -0.327 N 
HETATM   21  C   UNL     1     -40.478 -44.412  11.236  1.00  0.00     0.159 C 
HETATM   22  C   UNL     1     -40.798 -46.824  10.996  1.00  0.00     0.274 A 
HETATM   23  O   UNL     1     -39.706 -47.084  11.506  1.00  0.00    -0.266 OA
ENDBRANCH   4  16
TORSDOF 4
ENDMDL
MODEL 8
REMARK VINA RESULT:      -5.5      1.490      2.055
REMARK  4 active torsions:
REMARK  status: ('A' for Active; 'I' for Inactive)
REMARK    1  A    between atoms: C_2  and  S_3 
REMARK    2  A    between atoms: S_3  and  C_4 
REMARK    3  A    between atoms: C_8  and  N_10 
REMARK       I    between atoms: N_10  and  C_11 
REMARK       I    between atoms: C_11  and  N_13 
REMARK    4  A    between atoms: N_13  and  C_14 
ROOT
HETATM    1  N   UNL     1     -40.417 -50.737  11.619  1.00  0.00    -0.338 N 
HETATM    2  C   UNL     1     -40.958 -49.490  11.798  1.00  0.00     0.321 C 
HETATM    3  O   UNL     1     -41.453 -49.145  12.868  1.00  0.00    -0.247 OA
HETATM    4  N   UNL     1     -40.881 -48.682  10.694  1.00  0.00    -0.304 N 
HETATM    5  H   UNL     1     -40.249 -51.049  10.674  1.00  0.00     0.164 HD
HETATM    6  H   UNL     1     -40.787 -49.117   9.783  1.00  0.00     0.171 HD
ENDROOT
BRANCH   1   7
HETATM    7  C   UNL     1     -40.506 -51.756  12.667  1.00  0.00     0.087 C 
HETATM    8  C   UNL     1     -39.196 -51.856  13.463  1.00  0.00     0.025 C 
HETATM    9  C   UNL     1     -39.236 -52.947  14.530  1.00  0.00     0.003 C 
HETATM   10  C   UNL     1     -39.699 -54.291  13.962  1.00  0.00     0.015 C 
HETATM   11  C   UNL     1     -41.033 -54.207  13.199  1.00  0.00     0.049 C 
HETATM   12  C   UNL     1     -40.933 -53.131  12.115  1.00  0.00     0.040 C 
BRANCH  11  13
HETATM   13  S   UNL     1     -42.414 -53.921  14.383  1.00  0.00    -0.165 SA
BRANCH  13  14
HETATM   14  C   UNL     1     -42.012 -55.153  15.663  1.00  0.00     0.070 C 
HETATM   15  C   UNL     1     -41.841 -54.458  17.000  1.00  0.00     0.016 C 
ENDBRANCH  13  14
ENDBRANCH  11  13
ENDBRANCH   1   7
BRANCH   4  16
HETATM   16  C   UNL     1     -41.334 -47.373  10.672  1.00  0.00     0.105 A 
HETATM   17  C   UNL     1     -40.829 -46.378  11.420  1.00  0.00     0.037 A 
HETATM   18  C   UNL     1     -41.390 -45.060  11.416  1.00  0.00     0.020 A 
HETATM   19  C   UNL     1     -42.463 -44.797  10.660  1.00  0.00     0.094 A 
HETATM   20  N   UNL     1     -43.024 -45.772   9.854  1.00  0.00    -0.327 N 
HETATM   21  C   UNL     1     -44.208 -45.456   9.076  1.00  0.00     0.159 C 
HETATM   22  C   UNL     1     -42.499 -47.065   9.762  1.00  0.00     0.274 A 
HETATM   23  O   UNL     1     -42.944 -47.949   9.026  1.00  0.00    -0.266 OA
ENDBRANCH   4  16
TORSDOF 4
ENDMDL
MODEL 9
REMARK VINA RESULT:      -5.1      2.171      3.079
REMARK  4 active torsions:
REMARK  status: ('A' for Active; 'I' for Inactive)
REMARK    1  A    between atoms: C_2  and  S_3 
REMARK    2  A    between atoms: S_3  and  C_4 
REMARK    3  A    between atoms: C_8  and  N_10 
REMARK       I    between atoms: N_10  and  C_11 
REMARK       I    between atoms: C_11  and  N_13 
REMARK    4  A    between atoms: N_13  and  C_14 
ROOT
HETATM    1  N   UNL     1     -40.881 -51.998  13.595  1.00  0.00    -0.338 N 
HETATM    2  C   UNL     1     -40.972 -50.630  13.582  1.00  0.00     0.321 C 
HETATM    3  O   UNL     1     -41.795 -50.028  14.266  1.00  0.00    -0.247 OA
HETATM    4  N   UNL     1     -40.065 -50.016  12.759  1.00  0.00    -0.304 N 
HETATM    5  H   UNL     1     -40.368 -52.445  12.850  1.00  0.00     0.164 HD
HETATM    6  H   UNL     1     -39.669 -50.549  11.994  1.00  0.00     0.171 HD
ENDROOT
BRANCH   1   7
HETATM    7  C   UNL     1     -41.841 -52.811  14.345  1.00  0.00     0.087 C 
HETATM    8  C   UNL     1     -41.138 -53.948  15.103  1.00  0.00     0.025 C 
HETATM    9  C   UNL     1     -42.116 -54.848  15.853  1.00  0.00     0.003 C 
HETATM   10  C   UNL     1     -43.254 -55.338  14.954  1.00  0.00     0.015 C 
HETATM   11  C   UNL     1     -43.990 -54.201  14.224  1.00  0.00     0.049 C 
HETATM   12  C   UNL     1     -42.977 -53.350  13.453  1.00  0.00     0.040 C 
BRANCH  11  13
HETATM   13  S   UNL     1     -44.992 -53.230  15.426  1.00  0.00    -0.165 SA
BRANCH  13  14
HETATM   14  C   UNL     1     -46.491 -52.926  14.438  1.00  0.00     0.070 C 
HETATM   15  C   UNL     1     -46.638 -51.437  14.186  1.00  0.00     0.016 C 
ENDBRANCH  13  14
ENDBRANCH  11  13
ENDBRANCH   1   7
BRANCH   4  16
HETATM   16  C   UNL     1     -39.962 -48.641  12.626  1.00  0.00     0.105 A 
HETATM   17  C   UNL     1     -39.263 -47.844  13.453  1.00  0.00     0.037 A 
HETATM   18  C   UNL     1     -39.258 -46.418  13.316  1.00  0.00     0.020 A 
HETATM   19  C   UNL     1     -39.978 -45.842  12.345  1.00  0.00     0.094 A 
HETATM   20  N   UNL     1     -40.708 -46.603  11.449  1.00  0.00    -0.327 N 
HETATM   21  C   UNL     1     -41.503 -45.939  10.435  1.00  0.00     0.159 C 
HETATM   22  C   UNL     1     -40.718 -48.002  11.486  1.00  0.00     0.274 A 
HETATM   23  O   UNL     1     -41.321 -48.717  10.682  1.00  0.00    -0.266 OA
ENDBRANCH   4  16
TORSDOF 4
ENDMDL
