MODEL 1
REMARK VINA RESULT:      -5.0      0.000      0.000
REMARK  5 active torsions:
REMARK  status: ('A' for Active; 'I' for Inactive)
REMARK    1  A    between atoms: C_2  and  C_3 
REMARK    2  A    between atoms: C_3  and  C_4 
REMARK    3  A    between atoms: C_4  and  N_6 
REMARK       I    between atoms: N_6  and  C_7 
REMARK    4  A    between atoms: C_7  and  C_9 
REMARK    5  A    between atoms: C_9  and  N_10 
ROOT
HETATM    1  C   UNL     1     -45.757 -54.651  14.317  1.00  0.00     0.235 C 
ENDROOT
BRANCH   1   2
HETATM    2  C   UNL     1     -45.988 -53.984  15.671  1.00  0.00     0.236 C 
HETATM    3  N   UNL     1     -46.271 -52.635  15.627  1.00  0.00    -0.355 N 
HETATM    4  H   UNL     1     -46.456 -52.203  14.727  1.00  0.00     0.162 HD
HETATM    5  O   UNL     1     -45.847 -54.607  16.723  1.00  0.00    -0.272 OA
BRANCH   3   6
HETATM    6  C   UNL     1     -46.569 -51.886  16.845  1.00  0.00     0.080 C 
HETATM    7  C   UNL     1     -47.948 -51.234  16.731  1.00  0.00     0.032 C 
BRANCH   6   8
HETATM    8  C   UNL     1     -45.455 -50.864  17.131  1.00  0.00     0.024 C 
BRANCH   8   9
HETATM    9  C   UNL     1     -44.624 -50.525  15.890  1.00  0.00    -0.003 C 
HETATM   10  C   UNL     1     -43.192 -51.020  16.009  1.00  0.00     0.005 C 
ENDBRANCH   8   9
ENDBRANCH   6   8
ENDBRANCH   3   6
ENDBRANCH   1   2
BRANCH   1  11
HETATM   11  N   UNL     1     -44.526 -54.168  13.690  1.00  0.00    -0.301 N 
HETATM   12  C   UNL     1     -43.307 -54.477  14.263  1.00  0.00     0.102 C 
HETATM   13  C   UNL     1     -42.157 -54.022  13.761  1.00  0.00     0.092 C 
HETATM   14  C   UNL     1     -42.193 -53.193  12.547  1.00  0.00     0.250 C 
HETATM   15  O   UNL     1     -41.169 -52.709  12.079  1.00  0.00    -0.268 OA
HETATM   16  N   UNL     1     -43.427 -52.994  12.000  1.00  0.00    -0.275 N 
HETATM   17  C   UNL     1     -44.620 -53.368  12.563  1.00  0.00     0.329 C 
HETATM   18  H   UNL     1     -43.474 -52.412  11.179  1.00  0.00     0.173 HD
HETATM   19  O   UNL     1     -45.686 -52.993  12.074  1.00  0.00    -0.246 OA
ENDBRANCH   1  11
TORSDOF 5
ENDMDL
MODEL 2
REMARK VINA RESULT:      -4.9      7.972      9.889
REMARK  5 active torsions:
REMARK  status: ('A' for Active; 'I' for Inactive)
REMARK    1  A    between atoms: C_2  and  C_3 
REMARK    2  A    between atoms: C_3  and  C_4 
REMARK    3  A    between atoms: C_4  and  N_6 
REMARK       I    between atoms: N_6  and  C_7 
REMARK    4  A    between atoms: C_7  and  C_9 
REMARK    5  A    between atoms: C_9  and  N_10 
ROOT
HETATM    1  C   UNL     1     -40.430 -46.533  11.111  1.00  0.00     0.235 C 
ENDROOT
BRANCH   1   2
HETATM    2  C   UNL     1     -41.688 -47.318  10.748  1.00  0.00     0.236 C 
HETATM    3  N   UNL     1     -42.295 -46.952   9.565  1.00  0.00    -0.355 N 
HETATM    4  H   UNL     1     -41.811 -46.311   8.945  1.00  0.00     0.162 HD
HETATM    5  O   UNL     1     -42.158 -48.162  11.511  1.00  0.00    -0.272 OA
BRANCH   3   6
HETATM    6  C   UNL     1     -43.473 -47.659   9.071  1.00  0.00     0.080 C 
HETATM    7  C   UNL     1     -43.344 -47.896   7.565  1.00  0.00     0.032 C 
BRANCH   6   8
HETATM    8  C   UNL     1     -44.753 -46.889   9.439  1.00  0.00     0.024 C 
BRANCH   8   9
HETATM    9  C   UNL     1     -45.975 -47.345   8.635  1.00  0.00    -0.003 C 
HETATM   10  C   UNL     1     -46.600 -48.604   9.214  1.00  0.00     0.005 C 
ENDBRANCH   8   9
ENDBRANCH   6   8
ENDBRANCH   3   6
ENDBRANCH   1   2
BRANCH   1  11
HETATM   11  N   UNL     1     -40.743 -45.133  11.402  1.00  0.00    -0.301 N 
HETATM   12  C   UNL     1     -41.608 -44.833  12.437  1.00  0.00     0.102 C 
HETATM   13  C   UNL     1     -41.966 -43.578  12.714  1.00  0.00     0.092 C 
HETATM   14  C   UNL     1     -41.397 -42.485  11.911  1.00  0.00     0.250 C 
HETATM   15  O   UNL     1     -41.736 -41.322  12.093  1.00  0.00    -0.268 OA
HETATM   16  N   UNL     1     -40.495 -42.857  10.957  1.00  0.00    -0.275 N 
HETATM   17  C   UNL     1     -40.200 -44.146  10.595  1.00  0.00     0.329 C 
HETATM   18  H   UNL     1     -40.110 -42.124  10.383  1.00  0.00     0.173 HD
HETATM   19  O   UNL     1     -39.500 -44.374   9.609  1.00  0.00    -0.246 OA
ENDBRANCH   1  11
TORSDOF 5
ENDMDL
MODEL 3
REMARK VINA RESULT:      -4.9      2.737      4.255
REMARK  5 active torsions:
REMARK  status: ('A' for Active; 'I' for Inactive)
REMARK    1  A    between atoms: C_2  and  C_3 
REMARK    2  A    between atoms: C_3  and  C_4 
REMARK    3  A    between atoms: C_4  and  N_6 
REMARK       I    between atoms: N_6  and  C_7 
REMARK    4  A    between atoms: C_7  and  C_9 
REMARK    5  A    between atoms: C_9  and  N_10 
ROOT
HETATM    1  C   UNL     1     -41.101 -54.234  13.400  1.00  0.00     0.235 C 
ENDROOT
BRANCH   1   2
HETATM    2  C   UNL     1     -42.458 -53.911  14.021  1.00  0.00     0.236 C 
HETATM    3  N   UNL     1     -43.534 -53.971  13.160  1.00  0.00    -0.355 N 
HETATM    4  H   UNL     1     -43.397 -54.359  12.232  1.00  0.00     0.162 HD
HETATM    5  O   UNL     1     -42.554 -53.548  15.193  1.00  0.00    -0.272 OA
BRANCH   3   6
HETATM    6  C   UNL     1     -44.895 -53.741  13.636  1.00  0.00     0.080 C 
HETATM    7  C   UNL     1     -45.599 -55.080  13.864  1.00  0.00     0.032 C 
BRANCH   6   8
HETATM    8  C   UNL     1     -45.658 -52.832  12.658  1.00  0.00     0.024 C 
BRANCH   8   9
HETATM    9  C   UNL     1     -45.917 -51.432  13.224  1.00  0.00    -0.003 C 
HETATM   10  C   UNL     1     -46.705 -51.480  14.523  1.00  0.00     0.005 C 
ENDBRANCH   8   9
ENDBRANCH   6   8
ENDBRANCH   3   6
ENDBRANCH   1   2
BRANCH   1  11
HETATM   11  N   UNL     1     -40.294 -53.024  13.232  1.00  0.00    -0.301 N 
HETATM   12  C   UNL     1     -39.274 -52.761  14.126  1.00  0.00     0.102 C 
HETATM   13  C   UNL     1     -38.539 -51.649  14.049  1.00  0.00     0.092 C 
HETATM   14  C   UNL     1     -38.808 -50.697  12.962  1.00  0.00     0.250 C 
HETATM   15  O   UNL     1     -38.195 -49.639  12.880  1.00  0.00    -0.268 OA
HETATM   16  N   UNL     1     -39.780 -51.064  12.077  1.00  0.00    -0.275 N 
HETATM   17  C   UNL     1     -40.609 -52.148  12.206  1.00  0.00     0.329 C 
HETATM   18  H   UNL     1     -39.992 -50.415  11.337  1.00  0.00     0.173 HD
HETATM   19  O   UNL     1     -41.564 -52.298  11.444  1.00  0.00    -0.246 OA
ENDBRANCH   1  11
TORSDOF 5
ENDMDL
MODEL 4
REMARK VINA RESULT:      -4.9      3.911      5.551
REMARK  5 active torsions:
REMARK  status: ('A' for Active; 'I' for Inactive)
REMARK    1  A    between atoms: C_2  and  C_3 
REMARK    2  A    between atoms: C_3  and  C_4 
REMARK    3  A    between atoms: C_4  and  N_6 
REMARK       I    between atoms: N_6  and  C_7 
REMARK    4  A    between atoms: C_7  and  C_9 
REMARK    5  A    between atoms: C_9  and  N_10 
ROOT
HETATM    1  C   UNL     1     -41.587 -49.800  13.429  1.00  0.00     0.235 C 
ENDROOT
BRANCH   1   2
HETATM    2  C   UNL     1     -42.736 -50.669  13.936  1.00  0.00     0.236 C 
HETATM    3  N   UNL     1     -43.048 -51.758  13.150  1.00  0.00    -0.355 N 
HETATM    4  H   UNL     1     -42.426 -52.004  12.387  1.00  0.00     0.162 HD
HETATM    5  O   UNL     1     -43.379 -50.357  14.939  1.00  0.00    -0.272 OA
BRANCH   3   6
HETATM    6  C   UNL     1     -44.087 -52.703  13.549  1.00  0.00     0.080 C 
HETATM    7  C   UNL     1     -43.489 -54.103  13.696  1.00  0.00     0.032 C 
BRANCH   6   8
HETATM    8  C   UNL     1     -45.258 -52.663  12.552  1.00  0.00     0.024 C 
BRANCH   8   9
HETATM    9  C   UNL     1     -46.242 -51.523  12.833  1.00  0.00    -0.003 C 
HETATM   10  C   UNL     1     -46.658 -51.476  14.294  1.00  0.00     0.005 C 
ENDBRANCH   8   9
ENDBRANCH   6   8
ENDBRANCH   3   6
ENDBRANCH   1   2
BRANCH   1  11
HETATM   11  N   UNL     1     -41.961 -49.090  12.204  1.00  0.00    -0.301 N 
HETATM   12  C   UNL     1     -43.122 -48.342  12.181  1.00  0.00     0.102 C 
HETATM   13  C   UNL     1     -43.535 -47.715  11.078  1.00  0.00     0.092 C 
HETATM   14  C   UNL     1     -42.709 -47.801   9.864  1.00  0.00     0.250 C 
HETATM   15  O   UNL     1     -43.073 -47.286   8.813  1.00  0.00    -0.268 OA
HETATM   16  N   UNL     1     -41.541 -48.495   9.988  1.00  0.00    -0.275 N 
HETATM   17  C   UNL     1     -41.159 -49.228  11.082  1.00  0.00     0.329 C 
HETATM   18  H   UNL     1     -40.972 -48.582   9.162  1.00  0.00     0.173 HD
HETATM   19  O   UNL     1     -40.168 -49.955  11.031  1.00  0.00    -0.246 OA
ENDBRANCH   1  11
TORSDOF 5
ENDMDL
MODEL 5
REMARK VINA RESULT:      -4.9      4.120      6.376
REMARK  5 active torsions:
REMARK  status: ('A' for Active; 'I' for Inactive)
REMARK    1  A    between atoms: C_2  and  C_3 
REMARK    2  A    between atoms: C_3  and  C_4 
REMARK    3  A    between atoms: C_4  and  N_6 
REMARK       I    between atoms: N_6  and  C_7 
REMARK    4  A    between atoms: C_7  and  C_9 
REMARK    5  A    between atoms: C_9  and  N_10 
ROOT
HETATM    1  C   UNL     1     -41.287 -50.475  12.966  1.00  0.00     0.235 C 
ENDROOT
BRANCH   1   2
HETATM    2  C   UNL     1     -41.247 -49.634  11.692  1.00  0.00     0.236 C 
HETATM    3  N   UNL     1     -42.245 -48.689  11.573  1.00  0.00    -0.355 N 
HETATM    4  H   UNL     1     -42.840 -48.503  12.374  1.00  0.00     0.162 HD
HETATM    5  O   UNL     1     -40.421 -49.853  10.806  1.00  0.00    -0.272 OA
BRANCH   3   6
HETATM    6  C   UNL     1     -42.291 -47.780  10.432  1.00  0.00     0.080 C 
HETATM    7  C   UNL     1     -41.304 -46.630  10.643  1.00  0.00     0.032 C 
BRANCH   6   8
HETATM    8  C   UNL     1     -43.729 -47.287  10.197  1.00  0.00     0.024 C 
BRANCH   8   9
HETATM    9  C   UNL     1     -44.223 -47.546   8.770  1.00  0.00    -0.003 C 
HETATM   10  C   UNL     1     -45.708 -47.868   8.731  1.00  0.00     0.005 C 
ENDBRANCH   8   9
ENDBRANCH   6   8
ENDBRANCH   3   6
ENDBRANCH   1   2
BRANCH   1  11
HETATM   11  N   UNL     1     -42.280 -51.546  12.863  1.00  0.00    -0.301 N 
HETATM   12  C   UNL     1     -43.573 -51.315  13.290  1.00  0.00     0.102 C 
HETATM   13  C   UNL     1     -44.505 -52.270  13.266  1.00  0.00     0.092 C 
HETATM   14  C   UNL     1     -44.146 -53.595  12.739  1.00  0.00     0.250 C 
HETATM   15  O   UNL     1     -44.952 -54.518  12.744  1.00  0.00    -0.268 OA
HETATM   16  N   UNL     1     -42.872 -53.722  12.268  1.00  0.00    -0.275 N 
HETATM   17  C   UNL     1     -41.880 -52.783  12.384  1.00  0.00     0.329 C 
HETATM   18  H   UNL     1     -42.601 -54.629  11.922  1.00  0.00     0.173 HD
HETATM   19  O   UNL     1     -40.720 -53.059  12.080  1.00  0.00    -0.246 OA
ENDBRANCH   1  11
TORSDOF 5
ENDMDL
MODEL 6
REMARK VINA RESULT:      -4.9      2.506      3.927
REMARK  5 active torsions:
REMARK  status: ('A' for Active; 'I' for Inactive)
REMARK    1  A    between atoms: C_2  and  C_3 
REMARK    2  A    between atoms: C_3  and  C_4 
REMARK    3  A    between atoms: C_4  and  N_6 
REMARK       I    between atoms: N_6  and  C_7 
REMARK    4  A    between atoms: C_7  and  C_9 
REMARK    5  A    between atoms: C_9  and  N_10 
ROOT
HETATM    1  C   UNL     1     -42.469 -52.620  12.113  1.00  0.00     0.235 C 
ENDROOT
BRANCH   1   2
HETATM    2  C   UNL     1     -43.919 -52.991  12.415  1.00  0.00     0.236 C 
HETATM    3  N   UNL     1     -44.746 -51.935  12.737  1.00  0.00    -0.355 N 
HETATM    4  H   UNL     1     -44.402 -50.989  12.613  1.00  0.00     0.162 HD
HETATM    5  O   UNL     1     -44.287 -54.166  12.442  1.00  0.00    -0.272 OA
BRANCH   3   6
HETATM    6  C   UNL     1     -46.169 -52.143  12.992  1.00  0.00     0.080 C 
HETATM    7  C   UNL     1     -46.978 -51.802  11.739  1.00  0.00     0.032 C 
BRANCH   6   8
HETATM    8  C   UNL     1     -46.617 -51.332  14.221  1.00  0.00     0.024 C 
BRANCH   8   9
HETATM    9  C   UNL     1     -47.074 -52.217  15.385  1.00  0.00    -0.003 C 
HETATM   10  C   UNL     1     -47.703 -51.405  16.505  1.00  0.00     0.005 C 
ENDBRANCH   8   9
ENDBRANCH   6   8
ENDBRANCH   3   6
ENDBRANCH   1   2
BRANCH   1  11
HETATM   11  N   UNL     1     -41.603 -52.889  13.262  1.00  0.00    -0.301 N 
HETATM   12  C   UNL     1     -40.881 -54.065  13.307  1.00  0.00     0.102 C 
HETATM   13  C   UNL     1     -40.115 -54.383  14.352  1.00  0.00     0.092 C 
HETATM   14  C   UNL     1     -40.016 -53.435  15.472  1.00  0.00     0.250 C 
HETATM   15  O   UNL     1     -39.367 -53.705  16.475  1.00  0.00    -0.268 OA
HETATM   16  N   UNL     1     -40.699 -52.264  15.320  1.00  0.00    -0.275 N 
HETATM   17  C   UNL     1     -41.569 -51.972  14.302  1.00  0.00     0.329 C 
HETATM   18  H   UNL     1     -40.659 -51.610  16.085  1.00  0.00     0.173 HD
HETATM   19  O   UNL     1     -42.264 -50.957  14.345  1.00  0.00    -0.246 OA
ENDBRANCH   1  11
TORSDOF 5
ENDMDL
MODEL 7
REMARK VINA RESULT:      -4.8      3.628      5.209
REMARK  5 active torsions:
REMARK  status: ('A' for Active; 'I' for Inactive)
REMARK    1  A    between atoms: C_2  and  C_3 
REMARK    2  A    between atoms: C_3  and  C_4 
REMARK    3  A    between atoms: C_4  and  N_6 
REMARK       I    between atoms: N_6  and  C_7 
REMARK    4  A    between atoms: C_7  and  C_9 
REMARK    5  A    between atoms: C_9  and  N_10 
ROOT
HETATM    1  C   UNL     1     -42.575 -49.026  12.801  1.00  0.00     0.235 C 
ENDROOT
BRANCH   1   2
HETATM    2  C   UNL     1     -43.309 -50.173  13.492  1.00  0.00     0.236 C 
HETATM    3  N   UNL     1     -43.645 -51.236  12.681  1.00  0.00    -0.355 N 
HETATM    4  H   UNL     1     -43.268 -51.271  11.739  1.00  0.00     0.162 HD
HETATM    5  O   UNL     1     -43.641 -50.099  14.676  1.00  0.00    -0.272 OA
BRANCH   3   6
HETATM    6  C   UNL     1     -44.299 -52.423  13.226  1.00  0.00     0.080 C 
HETATM    7  C   UNL     1     -43.414 -53.652  13.005  1.00  0.00     0.032 C 
BRANCH   6   8
HETATM    8  C   UNL     1     -45.702 -52.589  12.616  1.00  0.00     0.024 C 
BRANCH   8   9
HETATM    9  C   UNL     1     -46.702 -51.550  13.132  1.00  0.00    -0.003 C 
HETATM   10  C   UNL     1     -46.803 -51.561  14.649  1.00  0.00     0.005 C 
ENDBRANCH   8   9
ENDBRANCH   6   8
ENDBRANCH   3   6
ENDBRANCH   1   2
BRANCH   1  11
HETATM   11  N   UNL     1     -41.217 -49.419  12.420  1.00  0.00    -0.301 N 
HETATM   12  C   UNL     1     -40.373 -49.955  13.373  1.00  0.00     0.102 C 
HETATM   13  C   UNL     1     -39.111 -50.284  13.092  1.00  0.00     0.092 C 
HETATM   14  C   UNL     1     -38.620 -50.097  11.719  1.00  0.00     0.250 C 
HETATM   15  O   UNL     1     -37.454 -50.336  11.425  1.00  0.00    -0.268 OA
HETATM   16  N   UNL     1     -39.535 -49.633  10.819  1.00  0.00    -0.275 N 
HETATM   17  C   UNL     1     -40.799 -49.195  11.118  1.00  0.00     0.329 C 
HETATM   18  H   UNL     1     -39.211 -49.480   9.877  1.00  0.00     0.173 HD
HETATM   19  O   UNL     1     -41.485 -48.638  10.262  1.00  0.00    -0.246 OA
ENDBRANCH   1  11
TORSDOF 5
ENDMDL
MODEL 8
REMARK VINA RESULT:      -4.8      2.200      3.186
REMARK  5 active torsions:
REMARK  status: ('A' for Active; 'I' for Inactive)
REMARK    1  A    between atoms: C_2  and  C_3 
REMARK    2  A    between atoms: C_3  and  C_4 
REMARK    3  A    between atoms: C_4  and  N_6 
REMARK       I    between atoms: N_6  and  C_7 
REMARK    4  A    between atoms: C_7  and  C_9 
REMARK    5  A    between atoms: C_9  and  N_10 
ROOT
HETATM    1  C   UNL     1     -43.381 -54.848  15.152  1.00  0.00     0.235 C 
ENDROOT
BRANCH   1   2
HETATM    2  C   UNL     1     -44.725 -54.506  14.512  1.00  0.00     0.236 C 
HETATM    3  N   UNL     1     -45.053 -53.166  14.504  1.00  0.00    -0.355 N 
HETATM    4  H   UNL     1     -44.349 -52.488  14.774  1.00  0.00     0.162 HD
HETATM    5  O   UNL     1     -45.484 -55.387  14.108  1.00  0.00    -0.272 OA
BRANCH   3   6
HETATM    6  C   UNL     1     -46.283 -52.695  13.872  1.00  0.00     0.080 C 
HETATM    7  C   UNL     1     -46.041 -52.451  12.381  1.00  0.00     0.032 C 
BRANCH   6   8
HETATM    8  C   UNL     1     -46.812 -51.445  14.597  1.00  0.00     0.024 C 
BRANCH   8   9
HETATM    9  C   UNL     1     -47.277 -51.737  16.027  1.00  0.00    -0.003 C 
HETATM   10  C   UNL     1     -46.587 -50.844  17.044  1.00  0.00     0.005 C 
ENDBRANCH   8   9
ENDBRANCH   6   8
ENDBRANCH   3   6
ENDBRANCH   1   2
BRANCH   1  11
HETATM   11  N   UNL     1     -42.295 -54.068  14.557  1.00  0.00    -0.301 N 
HETATM   12  C   UNL     1     -41.950 -54.283  13.237  1.00  0.00     0.102 C 
HETATM   13  C   UNL     1     -40.937 -53.635  12.659  1.00  0.00     0.092 C 
HETATM   14  C   UNL     1     -40.190 -52.642  13.446  1.00  0.00     0.250 C 
HETATM   15  O   UNL     1     -39.220 -52.060  12.975  1.00  0.00    -0.268 OA
HETATM   16  N   UNL     1     -40.639 -52.433  14.717  1.00  0.00    -0.275 N 
HETATM   17  C   UNL     1     -41.608 -53.165  15.353  1.00  0.00     0.329 C 
HETATM   18  H   UNL     1     -40.127 -51.771  15.279  1.00  0.00     0.173 HD
HETATM   19  O   UNL     1     -41.822 -53.008  16.555  1.00  0.00    -0.246 OA
ENDBRANCH   1  11
TORSDOF 5
ENDMDL
MODEL 9
REMARK VINA RESULT:      -4.7      4.617      6.718
REMARK  5 active torsions:
REMARK  status: ('A' for Active; 'I' for Inactive)
REMARK    1  A    between atoms: C_2  and  C_3 
REMARK    2  A    between atoms: C_3  and  C_4 
REMARK    3  A    between atoms: C_4  and  N_6 
REMARK       I    between atoms: N_6  and  C_7 
REMARK    4  A    between atoms: C_7  and  C_9 
REMARK    5  A    between atoms: C_9  and  N_10 
ROOT
HETATM    1  C   UNL     1     -41.649 -49.126  12.840  1.00  0.00     0.235 C 
ENDROOT
BRANCH   1   2
HETATM    2  C   UNL     1     -41.667 -50.578  12.368  1.00  0.00     0.236 C 
HETATM    3  N   UNL     1     -42.609 -51.385  12.969  1.00  0.00    -0.355 N 
HETATM    4  H   UNL     1     -43.315 -50.957  13.559  1.00  0.00     0.162 HD
HETATM    5  O   UNL     1     -40.836 -50.998  11.562  1.00  0.00    -0.272 OA
BRANCH   3   6
HETATM    6  C   UNL     1     -42.772 -52.780  12.569  1.00  0.00     0.080 C 
HETATM    7  C   UNL     1     -44.257 -53.098  12.383  1.00  0.00     0.032 C 
BRANCH   6   8
HETATM    8  C   UNL     1     -42.093 -53.712  13.588  1.00  0.00     0.024 C 
BRANCH   8   9
HETATM    9  C   UNL     1     -40.693 -54.153  13.150  1.00  0.00    -0.003 C 
HETATM   10  C   UNL     1     -39.603 -53.496  13.982  1.00  0.00     0.005 C 
ENDBRANCH   8   9
ENDBRANCH   6   8
ENDBRANCH   3   6
ENDBRANCH   1   2
BRANCH   1  11
HETATM   11  N   UNL     1     -42.026 -48.212  11.761  1.00  0.00    -0.301 N 
HETATM   12  C   UNL     1     -43.348 -48.135  11.368  1.00  0.00     0.102 C 
HETATM   13  C   UNL     1     -43.739 -47.356  10.358  1.00  0.00     0.092 C 
HETATM   14  C   UNL     1     -42.734 -46.535   9.667  1.00  0.00     0.250 C 
HETATM   15  O   UNL     1     -43.036 -45.843   8.701  1.00  0.00    -0.268 OA
HETATM   16  N   UNL     1     -41.465 -46.609  10.162  1.00  0.00    -0.275 N 
HETATM   17  C   UNL     1     -41.033 -47.481  11.127  1.00  0.00     0.329 C 
HETATM   18  H   UNL     1     -40.758 -46.068   9.689  1.00  0.00     0.173 HD
HETATM   19  O   UNL     1     -39.834 -47.587  11.383  1.00  0.00    -0.246 OA
ENDBRANCH   1  11
TORSDOF 5
ENDMDL
