MODEL 1
REMARK VINA RESULT:      -6.8      0.000      0.000
REMARK  5 active torsions:
REMARK  status: ('A' for Active; 'I' for Inactive)
REMARK    1  A    between atoms: C_8  and  N_9 
REMARK       I    between atoms: N_9  and  C_10 
REMARK       I    between atoms: C_10  and  N_12 
REMARK    2  A    between atoms: N_12  and  C_13 
REMARK    3  A    between atoms: C_13  and  C_18 
REMARK       I    between atoms: C_18  and  N_20 
REMARK    4  A    between atoms: N_20  and  C_21 
REMARK    5  A    between atoms: C_21  and  C_22 
ROOT
HETATM    1  N   UNL     1     -40.233 -49.732  10.675  1.00  0.00    -0.307 N 
HETATM    2  C   UNL     1     -41.173 -48.755  10.869  1.00  0.00     0.321 C 
HETATM    3  O   UNL     1     -41.479 -48.275  11.953  1.00  0.00    -0.247 OA
HETATM    4  N   UNL     1     -41.792 -48.324   9.717  1.00  0.00    -0.325 N 
HETATM    5  H   UNL     1     -39.966 -49.950   9.727  1.00  0.00     0.170 HD
HETATM    6  H   UNL     1     -41.240 -48.333   8.871  1.00  0.00     0.165 HD
ENDROOT
BRANCH   4   7
HETATM    7  C   UNL     1     -42.864 -47.294   9.778  1.00  0.00     0.115 C 
HETATM    8  C   UNL     1     -44.109 -47.780  10.563  1.00  0.00     0.041 C 
HETATM    9  C   UNL     1     -45.349 -47.284   9.822  1.00  0.00     0.003 C 
HETATM   10  C   UNL     1     -44.844 -46.508   8.620  1.00  0.00     0.003 C 
HETATM   11  C   UNL     1     -43.442 -47.049   8.369  1.00  0.00     0.041 C 
BRANCH   7  12
HETATM   12  C   UNL     1     -42.283 -45.955  10.363  1.00  0.00     0.246 C 
HETATM   13  O   UNL     1     -41.478 -45.254   9.750  1.00  0.00    -0.271 OA
HETATM   14  N   UNL     1     -42.737 -45.616  11.616  1.00  0.00    -0.359 N 
HETATM   15  H   UNL     1     -43.276 -46.315  12.130  1.00  0.00     0.162 HD
BRANCH  14  16
HETATM   16  C   UNL     1     -42.319 -44.430  12.316  1.00  0.00     0.127 C 
BRANCH  16  17
HETATM   17  C   UNL     1     -41.196 -44.776  13.244  1.00  0.00     0.003 A 
HETATM   18  C   UNL     1     -40.335 -43.691  13.849  1.00  0.00     0.007 A 
HETATM   19  C   UNL     1     -39.762 -44.604  12.803  1.00  0.00     0.007 A 
ENDBRANCH  16  17
ENDBRANCH  14  16
ENDBRANCH   7  12
ENDBRANCH   4   7
BRANCH   1  20
HETATM   20  C   UNL     1     -39.555 -50.415  11.729  1.00  0.00     0.058 A 
HETATM   21  C   UNL     1     -40.147 -51.484  12.423  1.00  0.00     0.032 A 
HETATM   22  C   UNL     1     -41.496 -52.040  12.075  1.00  0.00     0.070 C 
HETATM   23  N   UNL     1     -39.536 -52.124  13.462  1.00  0.00    -0.368 N 
HETATM   24  C   UNL     1     -38.294 -51.731  13.807  1.00  0.00     0.088 A 
ATOM     25  HN  UNL     1     -40.006 -52.878  13.963  1.00  0.00     0.165 HD
HETATM   26  C   UNL     1     -37.619 -50.713  13.172  1.00  0.00     0.019 A 
HETATM   27  C   UNL     1     -38.266 -50.047  12.138  1.00  0.00     0.033 A 
ENDBRANCH   1  20
TORSDOF 5
ENDMDL
MODEL 2
REMARK VINA RESULT:      -6.5      3.668      6.972
REMARK  5 active torsions:
REMARK  status: ('A' for Active; 'I' for Inactive)
REMARK    1  A    between atoms: C_8  and  N_9 
REMARK       I    between atoms: N_9  and  C_10 
REMARK       I    between atoms: C_10  and  N_12 
REMARK    2  A    between atoms: N_12  and  C_13 
REMARK    3  A    between atoms: C_13  and  C_18 
REMARK       I    between atoms: C_18  and  N_20 
REMARK    4  A    between atoms: N_20  and  C_21 
REMARK    5  A    between atoms: C_21  and  C_22 
ROOT
HETATM    1  N   UNL     1     -41.534 -49.645  11.017  1.00  0.00    -0.307 N 
HETATM    2  C   UNL     1     -42.134 -50.252  12.089  1.00  0.00     0.321 C 
HETATM    3  O   UNL     1     -42.582 -49.672  13.069  1.00  0.00    -0.247 OA
HETATM    4  N   UNL     1     -42.202 -51.625  12.001  1.00  0.00    -0.325 N 
HETATM    5  H   UNL     1     -41.330 -50.210  10.208  1.00  0.00     0.170 HD
HETATM    6  H   UNL     1     -42.302 -52.019  11.076  1.00  0.00     0.165 HD
ENDROOT
BRANCH   4   7
HETATM    7  C   UNL     1     -42.790 -52.423  13.110  1.00  0.00     0.115 C 
HETATM    8  C   UNL     1     -42.309 -51.945  14.504  1.00  0.00     0.041 C 
HETATM    9  C   UNL     1     -42.064 -53.186  15.361  1.00  0.00     0.003 C 
HETATM   10  C   UNL     1     -42.403 -54.380  14.488  1.00  0.00     0.003 C 
HETATM   11  C   UNL     1     -42.260 -53.870  13.059  1.00  0.00     0.041 C 
BRANCH   7  12
HETATM   12  C   UNL     1     -44.359 -52.419  12.994  1.00  0.00     0.246 C 
HETATM   13  O   UNL     1     -44.972 -53.166  12.231  1.00  0.00    -0.271 OA
HETATM   14  N   UNL     1     -45.006 -51.517  13.807  1.00  0.00    -0.359 N 
HETATM   15  H   UNL     1     -44.435 -50.824  14.294  1.00  0.00     0.162 HD
BRANCH  14  16
HETATM   16  C   UNL     1     -46.437 -51.366  13.840  1.00  0.00     0.127 C 
BRANCH  16  17
HETATM   17  C   UNL     1     -46.983 -52.120  15.013  1.00  0.00     0.003 A 
HETATM   18  C   UNL     1     -47.464 -51.386  16.244  1.00  0.00     0.007 A 
HETATM   19  C   UNL     1     -46.201 -52.196  16.302  1.00  0.00     0.007 A 
ENDBRANCH  16  17
ENDBRANCH  14  16
ENDBRANCH   7  12
ENDBRANCH   4   7
BRANCH   1  20
HETATM   20  C   UNL     1     -41.242 -48.249  10.945  1.00  0.00     0.058 A 
HETATM   21  C   UNL     1     -42.013 -47.369  10.168  1.00  0.00     0.032 A 
HETATM   22  C   UNL     1     -43.237 -47.798   9.413  1.00  0.00     0.070 C 
HETATM   23  N   UNL     1     -41.728 -46.040  10.049  1.00  0.00    -0.368 N 
HETATM   24  C   UNL     1     -40.680 -45.551  10.741  1.00  0.00     0.088 A 
ATOM     25  HN  UNL     1     -42.292 -45.433   9.453  1.00  0.00     0.165 HD
HETATM   26  C   UNL     1     -39.880 -46.327  11.549  1.00  0.00     0.019 A 
HETATM   27  C   UNL     1     -40.161 -47.685  11.635  1.00  0.00     0.033 A 
ENDBRANCH   1  20
TORSDOF 5
ENDMDL
MODEL 3
REMARK VINA RESULT:      -6.3      3.362      5.789
REMARK  5 active torsions:
REMARK  status: ('A' for Active; 'I' for Inactive)
REMARK    1  A    between atoms: C_8  and  N_9 
REMARK       I    between atoms: N_9  and  C_10 
REMARK       I    between atoms: C_10  and  N_12 
REMARK    2  A    between atoms: N_12  and  C_13 
REMARK    3  A    between atoms: C_13  and  C_18 
REMARK       I    between atoms: C_18  and  N_20 
REMARK    4  A    between atoms: N_20  and  C_21 
REMARK    5  A    between atoms: C_21  and  C_22 
ROOT
HETATM    1  N   UNL     1     -43.463 -52.237  12.394  1.00  0.00    -0.307 N 
HETATM    2  C   UNL     1     -43.043 -50.975  12.722  1.00  0.00     0.321 C 
HETATM    3  O   UNL     1     -43.338 -50.378  13.749  1.00  0.00    -0.247 OA
HETATM    4  N   UNL     1     -42.235 -50.382  11.779  1.00  0.00    -0.325 N 
HETATM    5  H   UNL     1     -43.046 -52.681  11.591  1.00  0.00     0.170 HD
HETATM    6  H   UNL     1     -41.632 -50.992  11.245  1.00  0.00     0.165 HD
ENDROOT
BRANCH   4   7
HETATM    7  C   UNL     1     -41.735 -48.995  11.979  1.00  0.00     0.115 C 
HETATM    8  C   UNL     1     -40.333 -48.774  11.355  1.00  0.00     0.041 C 
HETATM    9  C   UNL     1     -39.526 -47.909  12.321  1.00  0.00     0.003 C 
HETATM   10  C   UNL     1     -40.440 -47.616  13.496  1.00  0.00     0.003 C 
HETATM   11  C   UNL     1     -41.469 -48.739  13.476  1.00  0.00     0.041 C 
BRANCH   7  12
HETATM   12  C   UNL     1     -42.792 -47.965  11.435  1.00  0.00     0.246 C 
HETATM   13  O   UNL     1     -43.308 -47.102  12.145  1.00  0.00    -0.271 OA
HETATM   14  N   UNL     1     -43.107 -48.095  10.102  1.00  0.00    -0.359 N 
HETATM   15  H   UNL     1     -42.766 -48.925   9.614  1.00  0.00     0.162 HD
BRANCH  14  16
HETATM   16  C   UNL     1     -44.053 -47.247   9.426  1.00  0.00     0.127 C 
BRANCH  16  17
HETATM   17  C   UNL     1     -45.433 -47.792   9.626  1.00  0.00     0.003 A 
HETATM   18  C   UNL     1     -46.219 -48.345   8.460  1.00  0.00     0.007 A 
HETATM   19  C   UNL     1     -46.632 -47.046   9.092  1.00  0.00     0.007 A 
ENDBRANCH  16  17
ENDBRANCH  14  16
ENDBRANCH   7  12
ENDBRANCH   4   7
BRANCH   1  20
HETATM   20  C   UNL     1     -44.404 -52.994  13.157  1.00  0.00     0.058 A 
HETATM   21  C   UNL     1     -45.783 -52.738  13.100  1.00  0.00     0.032 A 
HETATM   22  C   UNL     1     -46.390 -51.710  12.191  1.00  0.00     0.070 C 
HETATM   23  N   UNL     1     -46.697 -53.419  13.851  1.00  0.00    -0.368 N 
HETATM   24  C   UNL     1     -46.249 -54.405  14.654  1.00  0.00     0.088 A 
ATOM     25  HN  UNL     1     -47.690 -53.189  13.807  1.00  0.00     0.165 HD
HETATM   26  C   UNL     1     -44.921 -54.749  14.761  1.00  0.00     0.019 A 
HETATM   27  C   UNL     1     -43.997 -54.025  14.016  1.00  0.00     0.033 A 
ENDBRANCH   1  20
TORSDOF 5
ENDMDL
MODEL 4
REMARK VINA RESULT:      -6.3      1.839      7.157
REMARK  5 active torsions:
REMARK  status: ('A' for Active; 'I' for Inactive)
REMARK    1  A    between atoms: C_8  and  N_9 
REMARK       I    between atoms: N_9  and  C_10 
REMARK       I    between atoms: C_10  and  N_12 
REMARK    2  A    between atoms: N_12  and  C_13 
REMARK    3  A    between atoms: C_13  and  C_18 
REMARK       I    between atoms: C_18  and  N_20 
REMARK    4  A    between atoms: N_20  and  C_21 
REMARK    5  A    between atoms: C_21  and  C_22 
ROOT
HETATM    1  N   UNL     1     -41.794 -48.314   9.663  1.00  0.00    -0.307 N 
HETATM    2  C   UNL     1     -41.413 -48.808  10.883  1.00  0.00     0.321 C 
HETATM    3  O   UNL     1     -41.989 -48.595  11.942  1.00  0.00    -0.247 OA
HETATM    4  N   UNL     1     -40.282 -49.592  10.851  1.00  0.00    -0.325 N 
HETATM    5  H   UNL     1     -41.327 -48.668   8.843  1.00  0.00     0.170 HD
HETATM    6  H   UNL     1     -40.128 -50.137  10.014  1.00  0.00     0.165 HD
ENDROOT
BRANCH   4   7
HETATM    7  C   UNL     1     -39.726 -50.165  12.106  1.00  0.00     0.115 C 
HETATM    8  C   UNL     1     -39.623 -49.115  13.242  1.00  0.00     0.041 C 
HETATM    9  C   UNL     1     -38.308 -49.355  13.980  1.00  0.00     0.003 C 
HETATM   10  C   UNL     1     -37.646 -50.536  13.295  1.00  0.00     0.003 C 
HETATM   11  C   UNL     1     -38.251 -50.564  11.897  1.00  0.00     0.041 C 
BRANCH   7  12
HETATM   12  C   UNL     1     -40.569 -51.420  12.538  1.00  0.00     0.246 C 
HETATM   13  O   UNL     1     -40.377 -52.544  12.072  1.00  0.00    -0.271 OA
HETATM   14  N   UNL     1     -41.544 -51.178  13.477  1.00  0.00    -0.359 N 
HETATM   15  H   UNL     1     -41.754 -50.204  13.702  1.00  0.00     0.162 HD
BRANCH  14  16
HETATM   16  C   UNL     1     -42.417 -52.200  13.994  1.00  0.00     0.127 C 
BRANCH  16  17
HETATM   17  C   UNL     1     -43.697 -52.193  13.217  1.00  0.00     0.003 A 
HETATM   18  C   UNL     1     -44.873 -53.030  13.663  1.00  0.00     0.007 A 
HETATM   19  C   UNL     1     -44.113 -53.407  12.423  1.00  0.00     0.007 A 
ENDBRANCH  16  17
ENDBRANCH  14  16
ENDBRANCH   7  12
ENDBRANCH   4   7
BRANCH   1  20
HETATM   20  C   UNL     1     -42.859 -47.382   9.471  1.00  0.00     0.058 A 
HETATM   21  C   UNL     1     -42.730 -46.026   9.818  1.00  0.00     0.032 A 
HETATM   22  C   UNL     1     -41.458 -45.432  10.346  1.00  0.00     0.070 C 
HETATM   23  N   UNL     1     -43.746 -45.126   9.684  1.00  0.00    -0.368 N 
HETATM   24  C   UNL     1     -44.911 -45.557   9.160  1.00  0.00     0.088 A 
ATOM     25  HN  UNL     1     -43.629 -44.154   9.972  1.00  0.00     0.165 HD
HETATM   26  C   UNL     1     -45.127 -46.858   8.766  1.00  0.00     0.019 A 
HETATM   27  C   UNL     1     -44.095 -47.773   8.939  1.00  0.00     0.033 A 
ENDBRANCH   1  20
TORSDOF 5
ENDMDL
MODEL 5
REMARK VINA RESULT:      -6.2      3.703      6.867
REMARK  5 active torsions:
REMARK  status: ('A' for Active; 'I' for Inactive)
REMARK    1  A    between atoms: C_8  and  N_9 
REMARK       I    between atoms: N_9  and  C_10 
REMARK       I    between atoms: C_10  and  N_12 
REMARK    2  A    between atoms: N_12  and  C_13 
REMARK    3  A    between atoms: C_13  and  C_18 
REMARK       I    between atoms: C_18  and  N_20 
REMARK    4  A    between atoms: N_20  and  C_21 
REMARK    5  A    between atoms: C_21  and  C_22 
ROOT
HETATM    1  N   UNL     1     -43.750 -52.515  12.215  1.00  0.00    -0.307 N 
HETATM    2  C   UNL     1     -42.747 -51.788  12.800  1.00  0.00     0.321 C 
HETATM    3  O   UNL     1     -42.479 -51.790  13.994  1.00  0.00    -0.247 OA
HETATM    4  N   UNL     1     -42.024 -51.010  11.925  1.00  0.00    -0.325 N 
HETATM    5  H   UNL     1     -43.789 -52.543  11.208  1.00  0.00     0.170 HD
HETATM    6  H   UNL     1     -41.910 -51.364  10.986  1.00  0.00     0.165 HD
ENDROOT
BRANCH   4   7
HETATM    7  C   UNL     1     -40.929 -50.134  12.423  1.00  0.00     0.115 C 
HETATM    8  C   UNL     1     -41.431 -49.078  13.442  1.00  0.00     0.041 C 
HETATM    9  C   UNL     1     -40.705 -47.767  13.147  1.00  0.00     0.003 C 
HETATM   10  C   UNL     1     -39.781 -48.046  11.976  1.00  0.00     0.003 C 
HETATM   11  C   UNL     1     -40.394 -49.253  11.277  1.00  0.00     0.041 C 
BRANCH   7  12
HETATM   12  C   UNL     1     -39.768 -51.017  13.011  1.00  0.00     0.246 C 
HETATM   13  O   UNL     1     -38.910 -51.547  12.306  1.00  0.00    -0.271 OA
HETATM   14  N   UNL     1     -39.776 -51.161  14.380  1.00  0.00    -0.359 N 
HETATM   15  H   UNL     1     -40.599 -50.831  14.886  1.00  0.00     0.162 HD
BRANCH  14  16
HETATM   16  C   UNL     1     -38.797 -51.932  15.100  1.00  0.00     0.127 C 
BRANCH  16  17
HETATM   17  C   UNL     1     -39.454 -53.151  15.671  1.00  0.00     0.003 A 
HETATM   18  C   UNL     1     -38.820 -54.513  15.510  1.00  0.00     0.007 A 
HETATM   19  C   UNL     1     -40.077 -54.179  14.759  1.00  0.00     0.007 A 
ENDBRANCH  16  17
ENDBRANCH  14  16
ENDBRANCH   7  12
ENDBRANCH   4   7
BRANCH   1  20
HETATM   20  C   UNL     1     -44.704 -53.294  12.937  1.00  0.00     0.058 A 
HETATM   21  C   UNL     1     -45.971 -52.790  13.276  1.00  0.00     0.032 A 
HETATM   22  C   UNL     1     -46.454 -51.434  12.853  1.00  0.00     0.070 C 
HETATM   23  N   UNL     1     -46.883 -53.500  14.002  1.00  0.00    -0.368 N 
HETATM   24  C   UNL     1     -46.559 -54.754  14.375  1.00  0.00     0.088 A 
ATOM     25  HN  UNL     1     -47.783 -53.092  14.256  1.00  0.00     0.165 HD
HETATM   26  C   UNL     1     -45.355 -55.346  14.070  1.00  0.00     0.019 A 
HETATM   27  C   UNL     1     -44.422 -54.601  13.360  1.00  0.00     0.033 A 
ENDBRANCH   1  20
TORSDOF 5
ENDMDL
MODEL 6
REMARK VINA RESULT:      -6.1      3.585      6.111
REMARK  5 active torsions:
REMARK  status: ('A' for Active; 'I' for Inactive)
REMARK    1  A    between atoms: C_8  and  N_9 
REMARK       I    between atoms: N_9  and  C_10 
REMARK       I    between atoms: C_10  and  N_12 
REMARK    2  A    between atoms: N_12  and  C_13 
REMARK    3  A    between atoms: C_13  and  C_18 
REMARK       I    between atoms: C_18  and  N_20 
REMARK    4  A    between atoms: N_20  and  C_21 
REMARK    5  A    between atoms: C_21  and  C_22 
ROOT
HETATM    1  N   UNL     1     -43.654 -52.384  12.205  1.00  0.00    -0.307 N 
HETATM    2  C   UNL     1     -42.695 -51.585  12.769  1.00  0.00     0.321 C 
HETATM    3  O   UNL     1     -42.426 -51.541  13.963  1.00  0.00    -0.247 OA
HETATM    4  N   UNL     1     -42.020 -50.786  11.874  1.00  0.00    -0.325 N 
HETATM    5  H   UNL     1     -43.692 -52.438  11.199  1.00  0.00     0.170 HD
HETATM    6  H   UNL     1     -41.886 -51.156  10.943  1.00  0.00     0.165 HD
ENDROOT
BRANCH   4   7
HETATM    7  C   UNL     1     -40.978 -49.835  12.347  1.00  0.00     0.115 C 
HETATM    8  C   UNL     1     -41.549 -48.763  13.311  1.00  0.00     0.041 C 
HETATM    9  C   UNL     1     -40.885 -47.431  12.968  1.00  0.00     0.003 C 
HETATM   10  C   UNL     1     -39.929 -47.713  11.823  1.00  0.00     0.003 C 
HETATM   11  C   UNL     1     -40.469 -48.979  11.170  1.00  0.00     0.041 C 
BRANCH   7  12
HETATM   12  C   UNL     1     -39.785 -50.632  12.991  1.00  0.00     0.246 C 
HETATM   13  O   UNL     1     -39.119 -51.456  12.364  1.00  0.00    -0.271 OA
HETATM   14  N   UNL     1     -39.532 -50.345  14.312  1.00  0.00    -0.359 N 
HETATM   15  H   UNL     1     -40.216 -49.773  14.812  1.00  0.00     0.162 HD
BRANCH  14  16
HETATM   16  C   UNL     1     -38.483 -50.972  15.072  1.00  0.00     0.127 C 
BRANCH  16  17
HETATM   17  C   UNL     1     -37.205 -50.221  14.859  1.00  0.00     0.003 A 
HETATM   18  C   UNL     1     -36.429 -49.672  16.034  1.00  0.00     0.007 A 
HETATM   19  C   UNL     1     -37.145 -48.733  15.106  1.00  0.00     0.007 A 
ENDBRANCH  16  17
ENDBRANCH  14  16
ENDBRANCH   7  12
ENDBRANCH   4   7
BRANCH   1  20
HETATM   20  C   UNL     1     -44.559 -53.200  12.949  1.00  0.00     0.058 A 
HETATM   21  C   UNL     1     -45.880 -52.799  13.206  1.00  0.00     0.032 A 
HETATM   22  C   UNL     1     -46.471 -51.529  12.669  1.00  0.00     0.070 C 
HETATM   23  N   UNL     1     -46.750 -53.542  13.950  1.00  0.00    -0.368 N 
HETATM   24  C   UNL     1     -46.326 -54.730  14.424  1.00  0.00     0.088 A 
ATOM     25  HN  UNL     1     -47.695 -53.207  14.143  1.00  0.00     0.165 HD
HETATM   26  C   UNL     1     -45.059 -55.222  14.204  1.00  0.00     0.019 A 
HETATM   27  C   UNL     1     -44.172 -54.440  13.474  1.00  0.00     0.033 A 
ENDBRANCH   1  20
TORSDOF 5
ENDMDL
MODEL 7
REMARK VINA RESULT:      -6.1      1.881      7.253
REMARK  5 active torsions:
REMARK  status: ('A' for Active; 'I' for Inactive)
REMARK    1  A    between atoms: C_8  and  N_9 
REMARK       I    between atoms: N_9  and  C_10 
REMARK       I    between atoms: C_10  and  N_12 
REMARK    2  A    between atoms: N_12  and  C_13 
REMARK    3  A    between atoms: C_13  and  C_18 
REMARK       I    between atoms: C_18  and  N_20 
REMARK    4  A    between atoms: N_20  and  C_21 
REMARK    5  A    between atoms: C_21  and  C_22 
ROOT
HETATM    1  N   UNL     1     -40.355 -46.587  10.610  1.00  0.00    -0.307 N 
HETATM    2  C   UNL     1     -40.127 -47.467  11.634  1.00  0.00     0.321 C 
HETATM    3  O   UNL     1     -40.566 -47.355  12.772  1.00  0.00    -0.247 OA
HETATM    4  N   UNL     1     -39.331 -48.538  11.298  1.00  0.00    -0.325 N 
HETATM    5  H   UNL     1     -40.060 -46.853   9.684  1.00  0.00     0.170 HD
HETATM    6  H   UNL     1     -39.395 -48.875  10.347  1.00  0.00     0.165 HD
ENDROOT
BRANCH   4   7
HETATM    7  C   UNL     1     -38.964 -49.556  12.320  1.00  0.00     0.115 C 
HETATM    8  C   UNL     1     -38.346 -48.922  13.593  1.00  0.00     0.041 C 
HETATM    9  C   UNL     1     -37.194 -49.817  14.045  1.00  0.00     0.003 C 
HETATM   10  C   UNL     1     -37.138 -50.969  13.059  1.00  0.00     0.003 C 
HETATM   11  C   UNL     1     -37.809 -50.435  11.800  1.00  0.00     0.041 C 
BRANCH   7  12
HETATM   12  C   UNL     1     -40.214 -50.449  12.653  1.00  0.00     0.246 C 
HETATM   13  O   UNL     1     -40.946 -50.238  13.620  1.00  0.00    -0.271 OA
HETATM   14  N   UNL     1     -40.437 -51.494  11.786  1.00  0.00    -0.359 N 
HETATM   15  H   UNL     1     -39.708 -51.707  11.103  1.00  0.00     0.162 HD
BRANCH  14  16
HETATM   16  C   UNL     1     -41.530 -52.421  11.927  1.00  0.00     0.127 C 
BRANCH  16  17
HETATM   17  C   UNL     1     -41.016 -53.701  12.509  1.00  0.00     0.003 A 
HETATM   18  C   UNL     1     -41.638 -54.284  13.756  1.00  0.00     0.007 A 
HETATM   19  C   UNL     1     -40.258 -53.696  13.814  1.00  0.00     0.007 A 
ENDBRANCH  16  17
ENDBRANCH  14  16
ENDBRANCH   7  12
ENDBRANCH   4   7
BRANCH   1  20
HETATM   20  C   UNL     1     -41.045 -45.345  10.756  1.00  0.00     0.058 A 
HETATM   21  C   UNL     1     -42.434 -45.242  10.569  1.00  0.00     0.032 A 
HETATM   22  C   UNL     1     -43.312 -46.422  10.274  1.00  0.00     0.070 C 
HETATM   23  N   UNL     1     -43.109 -44.060  10.661  1.00  0.00    -0.368 N 
HETATM   24  C   UNL     1     -42.410 -42.953  10.983  1.00  0.00     0.088 A 
ATOM     25  HN  UNL     1     -44.114 -44.014  10.491  1.00  0.00     0.165 HD
HETATM   26  C   UNL     1     -41.053 -42.956  11.211  1.00  0.00     0.019 A 
HETATM   27  C   UNL     1     -40.372 -44.160  11.081  1.00  0.00     0.033 A 
ENDBRANCH   1  20
TORSDOF 5
ENDMDL
MODEL 8
REMARK VINA RESULT:      -5.9      3.009      7.149
REMARK  5 active torsions:
REMARK  status: ('A' for Active; 'I' for Inactive)
REMARK    1  A    between atoms: C_8  and  N_9 
REMARK       I    between atoms: N_9  and  C_10 
REMARK       I    between atoms: C_10  and  N_12 
REMARK    2  A    between atoms: N_12  and  C_13 
REMARK    3  A    between atoms: C_13  and  C_18 
REMARK       I    between atoms: C_18  and  N_20 
REMARK    4  A    between atoms: N_20  and  C_21 
REMARK    5  A    between atoms: C_21  and  C_22 
ROOT
HETATM    1  N   UNL     1     -41.552 -49.694  10.957  1.00  0.00    -0.307 N 
HETATM    2  C   UNL     1     -41.629 -50.375  12.143  1.00  0.00     0.321 C 
HETATM    3  O   UNL     1     -41.992 -49.896  13.210  1.00  0.00    -0.247 OA
HETATM    4  N   UNL     1     -41.250 -51.696  12.067  1.00  0.00    -0.325 N 
HETATM    5  H   UNL     1     -41.375 -50.224  10.118  1.00  0.00     0.170 HD
HETATM    6  H   UNL     1     -41.434 -52.174  11.196  1.00  0.00     0.165 HD
ENDROOT
BRANCH   4   7
HETATM    7  C   UNL     1     -41.243 -52.551  13.284  1.00  0.00     0.115 C 
HETATM    8  C   UNL     1     -40.418 -51.929  14.440  1.00  0.00     0.041 C 
HETATM    9  C   UNL     1     -39.644 -53.058  15.118  1.00  0.00     0.003 C 
HETATM   10  C   UNL     1     -40.014 -54.331  14.379  1.00  0.00     0.003 C 
HETATM   11  C   UNL     1     -40.480 -53.861  13.006  1.00  0.00     0.041 C 
BRANCH   7  12
HETATM   12  C   UNL     1     -42.721 -52.869  13.719  1.00  0.00     0.246 C 
HETATM   13  O   UNL     1     -43.417 -53.709  13.149  1.00  0.00    -0.271 OA
HETATM   14  N   UNL     1     -43.189 -52.138  14.787  1.00  0.00    -0.359 N 
HETATM   15  H   UNL     1     -42.621 -51.353  15.109  1.00  0.00     0.162 HD
BRANCH  14  16
HETATM   16  C   UNL     1     -44.514 -52.287  15.328  1.00  0.00     0.127 C 
BRANCH  16  17
HETATM   17  C   UNL     1     -45.390 -51.197  14.791  1.00  0.00     0.003 A 
HETATM   18  C   UNL     1     -46.861 -51.440  14.548  1.00  0.00     0.007 A 
HETATM   19  C   UNL     1     -45.928 -51.275  13.383  1.00  0.00     0.007 A 
ENDBRANCH  16  17
ENDBRANCH  14  16
ENDBRANCH   7  12
ENDBRANCH   4   7
BRANCH   1  20
HETATM   20  C   UNL     1     -41.776 -48.290  10.821  1.00  0.00     0.058 A 
HETATM   21  C   UNL     1     -40.848 -47.342  11.283  1.00  0.00     0.032 A 
HETATM   22  C   UNL     1     -39.526 -47.715  11.887  1.00  0.00     0.070 C 
HETATM   23  N   UNL     1     -41.058 -45.996  11.203  1.00  0.00    -0.368 N 
HETATM   24  C   UNL     1     -42.194 -45.565  10.619  1.00  0.00     0.088 A 
ATOM     25  HN  UNL     1     -40.376 -45.335  11.575  1.00  0.00     0.165 HD
HETATM   26  C   UNL     1     -43.152 -46.414  10.112  1.00  0.00     0.019 A 
HETATM   27  C   UNL     1     -42.941 -47.782  10.231  1.00  0.00     0.033 A 
ENDBRANCH   1  20
TORSDOF 5
ENDMDL
MODEL 9
REMARK VINA RESULT:      -5.9      3.265      5.521
REMARK  5 active torsions:
REMARK  status: ('A' for Active; 'I' for Inactive)
REMARK    1  A    between atoms: C_8  and  N_9 
REMARK       I    between atoms: N_9  and  C_10 
REMARK       I    between atoms: C_10  and  N_12 
REMARK    2  A    between atoms: N_12  and  C_13 
REMARK    3  A    between atoms: C_13  and  C_18 
REMARK       I    between atoms: C_18  and  N_20 
REMARK    4  A    between atoms: N_20  and  C_21 
REMARK    5  A    between atoms: C_21  and  C_22 
ROOT
HETATM    1  N   UNL     1     -43.353 -52.602  12.030  1.00  0.00    -0.307 N 
HETATM    2  C   UNL     1     -42.442 -51.735  12.572  1.00  0.00     0.321 C 
HETATM    3  O   UNL     1     -42.285 -51.533  13.770  1.00  0.00    -0.247 OA
HETATM    4  N   UNL     1     -41.676 -51.061  11.648  1.00  0.00    -0.325 N 
HETATM    5  H   UNL     1     -43.296 -52.789  11.041  1.00  0.00     0.170 HD
HETATM    6  H   UNL     1     -41.459 -51.551  10.791  1.00  0.00     0.165 HD
ENDROOT
BRANCH   4   7
HETATM    7  C   UNL     1     -40.672 -50.056  12.088  1.00  0.00     0.115 C 
HETATM    8  C   UNL     1     -39.333 -50.177  11.316  1.00  0.00     0.041 C 
HETATM    9  C   UNL     1     -38.199 -49.962  12.317  1.00  0.00     0.003 C 
HETATM   10  C   UNL     1     -38.859 -49.708  13.660  1.00  0.00     0.003 C 
HETATM   11  C   UNL     1     -40.239 -50.341  13.540  1.00  0.00     0.041 C 
BRANCH   7  12
HETATM   12  C   UNL     1     -41.285 -48.611  11.983  1.00  0.00     0.246 C 
HETATM   13  O   UNL     1     -42.151 -48.197  12.752  1.00  0.00    -0.271 OA
HETATM   14  N   UNL     1     -40.785 -47.834  10.963  1.00  0.00    -0.359 N 
HETATM   15  H   UNL     1     -40.189 -48.289  10.269  1.00  0.00     0.162 HD
BRANCH  14  16
HETATM   16  C   UNL     1     -41.222 -46.487  10.707  1.00  0.00     0.127 C 
BRANCH  16  17
HETATM   17  C   UNL     1     -40.107 -45.540  11.022  1.00  0.00     0.003 A 
HETATM   18  C   UNL     1     -40.267 -44.055  10.787  1.00  0.00     0.007 A 
HETATM   19  C   UNL     1     -39.349 -44.856   9.909  1.00  0.00     0.007 A 
ENDBRANCH  16  17
ENDBRANCH  14  16
ENDBRANCH   7  12
ENDBRANCH   4   7
BRANCH   1  20
HETATM   20  C   UNL     1     -44.334 -53.313  12.786  1.00  0.00     0.058 A 
HETATM   21  C   UNL     1     -45.621 -52.795  13.004  1.00  0.00     0.032 A 
HETATM   22  C   UNL     1     -46.096 -51.501  12.412  1.00  0.00     0.070 C 
HETATM   23  N   UNL     1     -46.561 -53.436  13.758  1.00  0.00    -0.368 N 
HETATM   24  C   UNL     1     -46.243 -54.636  14.282  1.00  0.00     0.088 A 
ATOM     25  HN  UNL     1     -47.477 -53.018  13.921  1.00  0.00     0.165 HD
HETATM   26  C   UNL     1     -45.019 -55.239  14.103  1.00  0.00     0.019 A 
HETATM   27  C   UNL     1     -44.059 -54.561  13.362  1.00  0.00     0.033 A 
ENDBRANCH   1  20
TORSDOF 5
ENDMDL
