MODEL 1
REMARK VINA RESULT:      -5.9      0.000      0.000
REMARK  5 active torsions:
REMARK  status: ('A' for Active; 'I' for Inactive)
REMARK       I    between atoms: N_1  and  C_2 
REMARK    1  A    between atoms: C_2  and  C_4 
REMARK    2  A    between atoms: C_4  and  C_5 
REMARK    3  A    between atoms: C_5  and  N_6 
REMARK    4  A    between atoms: C_5  and  C_17 
REMARK       I    between atoms: N_6  and  C_7 
REMARK       I    between atoms: C_7  and  N_9 
REMARK    5  A    between atoms: N_9  and  C_10 
ROOT
HETATM    1  N   UNL     1     -41.710 -47.522   9.957  1.00  0.00    -0.337 N 
HETATM    2  C   UNL     1     -41.712 -48.533  10.900  1.00  0.00     0.322 C 
HETATM    3  O   UNL     1     -42.557 -48.597  11.781  1.00  0.00    -0.247 OA
HETATM    4  N   UNL     1     -40.724 -49.452  10.651  1.00  0.00    -0.288 N 
HETATM    5  H   UNL     1     -40.820 -47.264   9.555  1.00  0.00     0.164 HD
HETATM    6  H   UNL     1     -40.334 -49.503   9.725  1.00  0.00     0.172 HD
ENDROOT
BRANCH   1   7
HETATM    7  C   UNL     1     -42.760 -46.514   9.973  1.00  0.00     0.099 C 
BRANCH   7   8
HETATM    8  C   UNL     1     -43.407 -46.355   8.596  1.00  0.00     0.128 C 
BRANCH   8   9
HETATM    9  C   UNL     1     -43.825 -47.670   7.983  1.00  0.00     0.217 C 
HETATM   10  N   UNL     1     -45.099 -48.086   8.223  1.00  0.00    -0.370 N 
HETATM   11  H   UNL     1     -45.352 -48.994   7.850  1.00  0.00     0.159 HD
HETATM   12  H   UNL     1     -45.639 -47.758   9.014  1.00  0.00     0.159 HD
HETATM   13  O   UNL     1     -43.085 -48.324   7.253  1.00  0.00    -0.274 OA
ENDBRANCH   8   9
ENDBRANCH   7   8
BRANCH   7  14
HETATM   14  C   UNL     1     -42.272 -45.177  10.486  1.00  0.00     0.009 A 
HETATM   15  C   UNL     1     -40.975 -45.037  11.249  1.00  0.00     0.007 A 
HETATM   16  C   UNL     1     -42.278 -44.767  11.943  1.00  0.00     0.007 A 
ENDBRANCH   7  14
ENDBRANCH   1   7
BRANCH   4  17
HETATM   17  C   UNL     1     -40.593 -50.555  11.451  1.00  0.00     0.168 A 
HETATM   18  N   UNL     1     -41.183 -51.725  11.384  1.00  0.00    -0.279 N 
HETATM   19  N   UNL     1     -40.716 -52.595  12.351  1.00  0.00    -0.303 N 
ATOM     20  HN  UNL     1     -41.901 -51.964  10.700  1.00  0.00     0.189 HD
HETATM   21  C   UNL     1     -39.795 -52.033  13.103  1.00  0.00     0.160 A 
ATOM     22  HN  UNL     1     -41.044 -53.554  12.467  1.00  0.00     0.186 HD
HETATM   23  S   UNL     1     -39.473 -50.387  12.732  1.00  0.00    -0.046 SA
ENDBRANCH   4  17
TORSDOF 5
ENDMDL
MODEL 2
REMARK VINA RESULT:      -5.8      2.852      6.463
REMARK  5 active torsions:
REMARK  status: ('A' for Active; 'I' for Inactive)
REMARK       I    between atoms: N_1  and  C_2 
REMARK    1  A    between atoms: C_2  and  C_4 
REMARK    2  A    between atoms: C_4  and  C_5 
REMARK    3  A    between atoms: C_5  and  N_6 
REMARK    4  A    between atoms: C_5  and  C_17 
REMARK       I    between atoms: N_6  and  C_7 
REMARK       I    between atoms: C_7  and  N_9 
REMARK    5  A    between atoms: N_9  and  C_10 
ROOT
HETATM    1  N   UNL     1     -40.499 -49.728  11.026  1.00  0.00    -0.337 N 
HETATM    2  C   UNL     1     -41.418 -48.696  11.072  1.00  0.00     0.322 C 
HETATM    3  O   UNL     1     -41.767 -48.184  12.126  1.00  0.00    -0.247 OA
HETATM    4  N   UNL     1     -41.787 -48.298   9.812  1.00  0.00    -0.288 N 
HETATM    5  H   UNL     1     -40.564 -50.374  10.252  1.00  0.00     0.164 HD
HETATM    6  H   UNL     1     -41.186 -48.525   9.038  1.00  0.00     0.172 HD
ENDROOT
BRANCH   1   7
HETATM    7  C   UNL     1     -39.888 -50.211  12.256  1.00  0.00     0.099 C 
BRANCH   7   8
HETATM    8  C   UNL     1     -38.434 -49.752  12.380  1.00  0.00     0.128 C 
BRANCH   8   9
HETATM    9  C   UNL     1     -37.477 -50.595  11.573  1.00  0.00     0.217 C 
HETATM   10  N   UNL     1     -37.274 -50.229  10.276  1.00  0.00    -0.370 N 
HETATM   11  H   UNL     1     -36.670 -50.831   9.730  1.00  0.00     0.159 HD
HETATM   12  H   UNL     1     -37.939 -49.669   9.759  1.00  0.00     0.159 HD
HETATM   13  O   UNL     1     -36.855 -51.537  12.056  1.00  0.00    -0.274 OA
ENDBRANCH   8   9
ENDBRANCH   7   8
BRANCH   7  14
HETATM   14  C   UNL     1     -39.984 -51.713  12.399  1.00  0.00     0.009 A 
HETATM   15  C   UNL     1     -41.205 -52.484  11.952  1.00  0.00     0.007 A 
HETATM   16  C   UNL     1     -40.860 -52.422  13.411  1.00  0.00     0.007 A 
ENDBRANCH   7  14
ENDBRANCH   1   7
BRANCH   4  17
HETATM   17  C   UNL     1     -42.657 -47.253   9.648  1.00  0.00     0.168 A 
HETATM   18  N   UNL     1     -42.697 -46.083  10.239  1.00  0.00    -0.279 N 
HETATM   19  N   UNL     1     -43.703 -45.282   9.731  1.00  0.00    -0.303 N 
ATOM     20  HN  UNL     1     -42.060 -45.797  10.983  1.00  0.00     0.189 HD
HETATM   21  C   UNL     1     -44.375 -45.894   8.782  1.00  0.00     0.160 A 
ATOM     22  HN  UNL     1     -43.899 -44.335  10.054  1.00  0.00     0.186 HD
HETATM   23  S   UNL     1     -43.876 -47.510   8.477  1.00  0.00    -0.046 SA
ENDBRANCH   4  17
TORSDOF 5
ENDMDL
MODEL 3
REMARK VINA RESULT:      -5.7      2.898      7.070
REMARK  5 active torsions:
REMARK  status: ('A' for Active; 'I' for Inactive)
REMARK       I    between atoms: N_1  and  C_2 
REMARK    1  A    between atoms: C_2  and  C_4 
REMARK    2  A    between atoms: C_4  and  C_5 
REMARK    3  A    between atoms: C_5  and  N_6 
REMARK    4  A    between atoms: C_5  and  C_17 
REMARK       I    between atoms: N_6  and  C_7 
REMARK       I    between atoms: C_7  and  N_9 
REMARK    5  A    between atoms: N_9  and  C_10 
ROOT
HETATM    1  N   UNL     1     -41.182 -52.396  12.537  1.00  0.00    -0.337 N 
HETATM    2  C   UNL     1     -41.427 -51.051  12.339  1.00  0.00     0.322 C 
HETATM    3  O   UNL     1     -42.162 -50.409  13.076  1.00  0.00    -0.247 OA
HETATM    4  N   UNL     1     -40.687 -50.555  11.295  1.00  0.00    -0.288 N 
HETATM    5  H   UNL     1     -40.953 -52.951  11.725  1.00  0.00     0.164 HD
HETATM    6  H   UNL     1     -39.868 -51.060  11.002  1.00  0.00     0.172 HD
ENDROOT
BRANCH   1   7
HETATM    7  C   UNL     1     -41.776 -53.082  13.675  1.00  0.00     0.099 C 
BRANCH   7   8
HETATM    8  C   UNL     1     -40.708 -53.674  14.596  1.00  0.00     0.128 C 
BRANCH   8   9
HETATM    9  C   UNL     1     -39.354 -53.782  13.938  1.00  0.00     0.217 C 
HETATM   10  N   UNL     1     -38.943 -55.028  13.572  1.00  0.00    -0.370 N 
HETATM   11  H   UNL     1     -38.012 -55.095  13.179  1.00  0.00     0.159 HD
HETATM   12  H   UNL     1     -39.316 -55.869  13.992  1.00  0.00     0.159 HD
HETATM   13  O   UNL     1     -38.661 -52.801  13.684  1.00  0.00    -0.274 OA
ENDBRANCH   8   9
ENDBRANCH   7   8
BRANCH   7  14
HETATM   14  C   UNL     1     -42.766 -54.147  13.257  1.00  0.00     0.009 A 
HETATM   15  C   UNL     1     -44.062 -53.806  12.560  1.00  0.00     0.007 A 
HETATM   16  C   UNL     1     -44.094 -54.395  13.940  1.00  0.00     0.007 A 
ENDBRANCH   7  14
ENDBRANCH   1   7
BRANCH   4  17
HETATM   17  C   UNL     1     -40.758 -49.226  10.972  1.00  0.00     0.168 A 
HETATM   18  N   UNL     1     -41.492 -48.610  10.076  1.00  0.00    -0.279 N 
HETATM   19  N   UNL     1     -41.314 -47.239  10.117  1.00  0.00    -0.303 N 
ATOM     20  HN  UNL     1     -42.120 -49.085   9.427  1.00  0.00     0.189 HD
HETATM   21  C   UNL     1     -40.449 -46.892  11.044  1.00  0.00     0.160 A 
ATOM     22  HN  UNL     1     -41.794 -46.581   9.504  1.00  0.00     0.186 HD
HETATM   23  S   UNL     1     -39.740 -48.207  11.892  1.00  0.00    -0.046 SA
ENDBRANCH   4  17
TORSDOF 5
ENDMDL
MODEL 4
REMARK VINA RESULT:      -5.7      4.639      6.225
REMARK  5 active torsions:
REMARK  status: ('A' for Active; 'I' for Inactive)
REMARK       I    between atoms: N_1  and  C_2 
REMARK    1  A    between atoms: C_2  and  C_4 
REMARK    2  A    between atoms: C_4  and  C_5 
REMARK    3  A    between atoms: C_5  and  N_6 
REMARK    4  A    between atoms: C_5  and  C_17 
REMARK       I    between atoms: N_6  and  C_7 
REMARK       I    between atoms: C_7  and  N_9 
REMARK    5  A    between atoms: N_9  and  C_10 
ROOT
HETATM    1  N   UNL     1     -44.499 -50.727  12.986  1.00  0.00    -0.337 N 
HETATM    2  C   UNL     1     -43.122 -50.779  12.875  1.00  0.00     0.322 C 
HETATM    3  O   UNL     1     -42.464 -51.679  13.376  1.00  0.00    -0.247 OA
HETATM    4  N   UNL     1     -42.645 -49.767  12.081  1.00  0.00    -0.288 N 
HETATM    5  H   UNL     1     -44.933 -49.816  12.952  1.00  0.00     0.164 HD
HETATM    6  H   UNL     1     -43.276 -49.317  11.441  1.00  0.00     0.172 HD
ENDROOT
BRANCH   1   7
HETATM    7  C   UNL     1     -45.211 -51.787  13.685  1.00  0.00     0.099 C 
BRANCH   7   8
HETATM    8  C   UNL     1     -45.729 -52.850  12.716  1.00  0.00     0.128 C 
BRANCH   8   9
HETATM    9  C   UNL     1     -44.994 -54.164  12.830  1.00  0.00     0.217 C 
HETATM   10  N   UNL     1     -43.720 -54.202  12.349  1.00  0.00    -0.370 N 
HETATM   11  H   UNL     1     -43.255 -55.101  12.384  1.00  0.00     0.159 HD
HETATM   12  H   UNL     1     -43.380 -53.545  11.659  1.00  0.00     0.159 HD
HETATM   13  O   UNL     1     -45.481 -55.150  13.378  1.00  0.00    -0.274 OA
ENDBRANCH   8   9
ENDBRANCH   7   8
BRANCH   7  14
HETATM   14  C   UNL     1     -46.337 -51.258  14.545  1.00  0.00     0.009 A 
HETATM   15  C   UNL     1     -46.169 -51.020  16.028  1.00  0.00     0.007 A 
HETATM   16  C   UNL     1     -47.108 -52.088  15.549  1.00  0.00     0.007 A 
ENDBRANCH   7  14
ENDBRANCH   1   7
BRANCH   4  17
HETATM   17  C   UNL     1     -41.305 -49.677  11.812  1.00  0.00     0.168 A 
HETATM   18  N   UNL     1     -40.557 -50.374  10.990  1.00  0.00    -0.279 N 
HETATM   19  N   UNL     1     -39.253 -49.915  10.964  1.00  0.00    -0.303 N 
ATOM     20  HN  UNL     1     -40.897 -51.160  10.437  1.00  0.00     0.189 HD
HETATM   21  C   UNL     1     -39.084 -48.892  11.773  1.00  0.00     0.160 A 
ATOM     22  HN  UNL     1     -38.515 -50.319  10.388  1.00  0.00     0.186 HD
HETATM   23  S   UNL     1     -40.479 -48.452  12.673  1.00  0.00    -0.046 SA
ENDBRANCH   4  17
TORSDOF 5
ENDMDL
MODEL 5
REMARK VINA RESULT:      -5.5      2.090      3.435
REMARK  5 active torsions:
REMARK  status: ('A' for Active; 'I' for Inactive)
REMARK       I    between atoms: N_1  and  C_2 
REMARK    1  A    between atoms: C_2  and  C_4 
REMARK    2  A    between atoms: C_4  and  C_5 
REMARK    3  A    between atoms: C_5  and  N_6 
REMARK    4  A    between atoms: C_5  and  C_17 
REMARK       I    between atoms: N_6  and  C_7 
REMARK       I    between atoms: C_7  and  N_9 
REMARK    5  A    between atoms: N_9  and  C_10 
ROOT
HETATM    1  N   UNL     1     -42.765 -48.338  11.358  1.00  0.00    -0.337 N 
HETATM    2  C   UNL     1     -41.931 -49.440  11.345  1.00  0.00     0.322 C 
HETATM    3  O   UNL     1     -40.825 -49.412  10.823  1.00  0.00    -0.247 OA
HETATM    4  N   UNL     1     -42.471 -50.486  12.051  1.00  0.00    -0.288 N 
HETATM    5  H   UNL     1     -43.760 -48.509  11.395  1.00  0.00     0.164 HD
HETATM    6  H   UNL     1     -43.189 -50.292  12.727  1.00  0.00     0.172 HD
ENDROOT
BRANCH   1   7
HETATM    7  C   UNL     1     -42.319 -47.084  10.770  1.00  0.00     0.099 C 
BRANCH   7   8
HETATM    8  C   UNL     1     -41.713 -46.154  11.822  1.00  0.00     0.128 C 
BRANCH   8   9
HETATM    9  C   UNL     1     -40.219 -45.993  11.680  1.00  0.00     0.217 C 
HETATM   10  N   UNL     1     -39.658 -46.432  10.519  1.00  0.00    -0.370 N 
HETATM   11  H   UNL     1     -38.649 -46.366  10.455  1.00  0.00     0.159 HD
HETATM   12  H   UNL     1     -40.103 -47.122   9.927  1.00  0.00     0.159 HD
HETATM   13  O   UNL     1     -39.527 -45.444  12.534  1.00  0.00    -0.274 OA
ENDBRANCH   8   9
ENDBRANCH   7   8
BRANCH   7  14
HETATM   14  C   UNL     1     -43.418 -46.378  10.009  1.00  0.00     0.009 A 
HETATM   15  C   UNL     1     -44.503 -47.137   9.281  1.00  0.00     0.007 A 
HETATM   16  C   UNL     1     -43.514 -46.323   8.499  1.00  0.00     0.007 A 
ENDBRANCH   7  14
ENDBRANCH   1   7
BRANCH   4  17
HETATM   17  C   UNL     1     -41.771 -51.654  12.192  1.00  0.00     0.168 A 
HETATM   18  N   UNL     1     -41.322 -52.488  11.284  1.00  0.00    -0.279 N 
HETATM   19  N   UNL     1     -40.597 -53.522  11.847  1.00  0.00    -0.303 N 
ATOM     20  HN  UNL     1     -41.488 -52.386  10.283  1.00  0.00     0.189 HD
HETATM   21  C   UNL     1     -40.538 -53.415  13.156  1.00  0.00     0.160 A 
ATOM     22  HN  UNL     1     -40.161 -54.274  11.313  1.00  0.00     0.186 HD
HETATM   23  S   UNL     1     -41.411 -52.087  13.806  1.00  0.00    -0.046 SA
ENDBRANCH   4  17
TORSDOF 5
ENDMDL
MODEL 6
REMARK VINA RESULT:      -5.5      3.511      7.062
REMARK  5 active torsions:
REMARK  status: ('A' for Active; 'I' for Inactive)
REMARK       I    between atoms: N_1  and  C_2 
REMARK    1  A    between atoms: C_2  and  C_4 
REMARK    2  A    between atoms: C_4  and  C_5 
REMARK    3  A    between atoms: C_5  and  N_6 
REMARK    4  A    between atoms: C_5  and  C_17 
REMARK       I    between atoms: N_6  and  C_7 
REMARK       I    between atoms: C_7  and  N_9 
REMARK    5  A    between atoms: N_9  and  C_10 
ROOT
HETATM    1  N   UNL     1     -42.367 -52.481  13.881  1.00  0.00    -0.337 N 
HETATM    2  C   UNL     1     -42.016 -51.771  12.748  1.00  0.00     0.322 C 
HETATM    3  O   UNL     1     -41.593 -52.322  11.742  1.00  0.00    -0.247 OA
HETATM    4  N   UNL     1     -42.287 -50.434  12.890  1.00  0.00    -0.288 N 
HETATM    5  H   UNL     1     -42.291 -52.005  14.769  1.00  0.00     0.164 HD
HETATM    6  H   UNL     1     -42.952 -50.148  13.589  1.00  0.00     0.172 HD
ENDROOT
BRANCH   1   7
HETATM    7  C   UNL     1     -42.273 -53.933  13.885  1.00  0.00     0.099 C 
BRANCH   7   8
HETATM    8  C   UNL     1     -43.554 -54.578  14.417  1.00  0.00     0.128 C 
BRANCH   8   9
HETATM    9  C   UNL     1     -44.691 -54.543  13.424  1.00  0.00     0.217 C 
HETATM   10  N   UNL     1     -45.911 -54.955  13.868  1.00  0.00    -0.370 N 
HETATM   11  H   UNL     1     -46.654 -54.976  13.179  1.00  0.00     0.159 HD
HETATM   12  H   UNL     1     -46.021 -55.564  14.668  1.00  0.00     0.159 HD
HETATM   13  O   UNL     1     -44.558 -54.113  12.281  1.00  0.00    -0.274 OA
ENDBRANCH   8   9
ENDBRANCH   7   8
BRANCH   7  14
HETATM   14  C   UNL     1     -41.070 -54.434  14.653  1.00  0.00     0.009 A 
HETATM   15  C   UNL     1     -39.965 -53.507  15.104  1.00  0.00     0.007 A 
HETATM   16  C   UNL     1     -39.677 -54.559  14.073  1.00  0.00     0.007 A 
ENDBRANCH   7  14
ENDBRANCH   1   7
BRANCH   4  17
HETATM   17  C   UNL     1     -42.051 -49.570  11.854  1.00  0.00     0.168 A 
HETATM   18  N   UNL     1     -41.170 -49.631  10.884  1.00  0.00    -0.279 N 
HETATM   19  N   UNL     1     -41.309 -48.583   9.994  1.00  0.00    -0.303 N 
ATOM     20  HN  UNL     1     -40.466 -50.365  10.797  1.00  0.00     0.189 HD
HETATM   21  C   UNL     1     -42.290 -47.780  10.341  1.00  0.00     0.160 A 
ATOM     22  HN  UNL     1     -40.723 -48.449   9.169  1.00  0.00     0.186 HD
HETATM   23  S   UNL     1     -43.077 -48.203  11.809  1.00  0.00    -0.046 SA
ENDBRANCH   4  17
TORSDOF 5
ENDMDL
MODEL 7
REMARK VINA RESULT:      -5.4      3.172      6.266
REMARK  5 active torsions:
REMARK  status: ('A' for Active; 'I' for Inactive)
REMARK       I    between atoms: N_1  and  C_2 
REMARK    1  A    between atoms: C_2  and  C_4 
REMARK    2  A    between atoms: C_4  and  C_5 
REMARK    3  A    between atoms: C_5  and  N_6 
REMARK    4  A    between atoms: C_5  and  C_17 
REMARK       I    between atoms: N_6  and  C_7 
REMARK       I    between atoms: C_7  and  N_9 
REMARK    5  A    between atoms: N_9  and  C_10 
ROOT
HETATM    1  N   UNL     1     -42.548 -51.246  12.474  1.00  0.00    -0.337 N 
HETATM    2  C   UNL     1     -42.164 -49.919  12.420  1.00  0.00     0.322 C 
HETATM    3  O   UNL     1     -42.033 -49.239  13.428  1.00  0.00    -0.247 OA
HETATM    4  N   UNL     1     -41.881 -49.532  11.134  1.00  0.00    -0.288 N 
HETATM    5  H   UNL     1     -43.041 -51.620  11.676  1.00  0.00     0.164 HD
HETATM    6  H   UNL     1     -41.671 -50.240  10.452  1.00  0.00     0.172 HD
ENDROOT
BRANCH   1   7
HETATM    7  C   UNL     1     -42.772 -51.884  13.763  1.00  0.00     0.099 C 
BRANCH   7   8
HETATM    8  C   UNL     1     -42.011 -53.206  13.876  1.00  0.00     0.128 C 
BRANCH   8   9
HETATM    9  C   UNL     1     -40.850 -53.304  12.917  1.00  0.00     0.217 C 
HETATM   10  N   UNL     1     -40.854 -54.352  12.047  1.00  0.00    -0.370 N 
HETATM   11  H   UNL     1     -40.044 -54.437  11.444  1.00  0.00     0.159 HD
HETATM   12  H   UNL     1     -41.378 -55.200  12.221  1.00  0.00     0.159 HD
HETATM   13  O   UNL     1     -39.959 -52.460  12.867  1.00  0.00    -0.274 OA
ENDBRANCH   8   9
ENDBRANCH   7   8
BRANCH   7  14
HETATM   14  C   UNL     1     -44.241 -52.090  14.060  1.00  0.00     0.009 A 
HETATM   15  C   UNL     1     -45.313 -51.230  13.432  1.00  0.00     0.007 A 
HETATM   16  C   UNL     1     -45.079 -51.163  14.914  1.00  0.00     0.007 A 
ENDBRANCH   7  14
ENDBRANCH   1   7
BRANCH   4  17
HETATM   17  C   UNL     1     -41.438 -48.261  10.881  1.00  0.00     0.168 A 
HETATM   18  N   UNL     1     -40.228 -47.759  10.939  1.00  0.00    -0.279 N 
HETATM   19  N   UNL     1     -40.197 -46.437  10.534  1.00  0.00    -0.303 N 
ATOM     20  HN  UNL     1     -39.406 -48.281  11.246  1.00  0.00     0.189 HD
HETATM   21  C   UNL     1     -41.392 -46.009  10.192  1.00  0.00     0.160 A 
ATOM     22  HN  UNL     1     -39.353 -45.866  10.504  1.00  0.00     0.186 HD
HETATM   23  S   UNL     1     -42.652 -47.159  10.397  1.00  0.00    -0.046 SA
ENDBRANCH   4  17
TORSDOF 5
ENDMDL
MODEL 8
REMARK VINA RESULT:      -5.4      2.710      6.095
REMARK  5 active torsions:
REMARK  status: ('A' for Active; 'I' for Inactive)
REMARK       I    between atoms: N_1  and  C_2 
REMARK    1  A    between atoms: C_2  and  C_4 
REMARK    2  A    between atoms: C_4  and  C_5 
REMARK    3  A    between atoms: C_5  and  N_6 
REMARK    4  A    between atoms: C_5  and  C_17 
REMARK       I    between atoms: N_6  and  C_7 
REMARK       I    between atoms: C_7  and  N_9 
REMARK    5  A    between atoms: N_9  and  C_10 
ROOT
HETATM    1  N   UNL     1     -40.889 -49.701  12.670  1.00  0.00    -0.337 N 
HETATM    2  C   UNL     1     -41.126 -49.232  11.391  1.00  0.00     0.322 C 
HETATM    3  O   UNL     1     -40.593 -49.726  10.409  1.00  0.00    -0.247 OA
HETATM    4  N   UNL     1     -42.073 -48.238  11.390  1.00  0.00    -0.288 N 
HETATM    5  H   UNL     1     -40.984 -49.044  13.431  1.00  0.00     0.164 HD
HETATM    6  H   UNL     1     -42.696 -48.164  12.176  1.00  0.00     0.172 HD
ENDROOT
BRANCH   1   7
HETATM    7  C   UNL     1     -40.008 -50.842  12.872  1.00  0.00     0.099 C 
BRANCH   7   8
HETATM    8  C   UNL     1     -40.751 -52.022  13.500  1.00  0.00     0.128 C 
BRANCH   8   9
HETATM    9  C   UNL     1     -41.045 -53.128  12.516  1.00  0.00     0.217 C 
HETATM   10  N   UNL     1     -41.135 -52.778  11.202  1.00  0.00    -0.370 N 
HETATM   11  H   UNL     1     -41.383 -53.519  10.558  1.00  0.00     0.159 HD
HETATM   12  H   UNL     1     -41.341 -51.834  10.904  1.00  0.00     0.159 HD
HETATM   13  O   UNL     1     -41.146 -54.305  12.853  1.00  0.00    -0.274 OA
ENDBRANCH   8   9
ENDBRANCH   7   8
BRANCH   7  14
HETATM   14  C   UNL     1     -38.784 -50.492  13.688  1.00  0.00     0.009 A 
HETATM   15  C   UNL     1     -37.888 -49.328  13.329  1.00  0.00     0.007 A 
HETATM   16  C   UNL     1     -37.358 -50.730  13.237  1.00  0.00     0.007 A 
ENDBRANCH   7  14
ENDBRANCH   1   7
BRANCH   4  17
HETATM   17  C   UNL     1     -42.479 -47.677  10.209  1.00  0.00     0.168 A 
HETATM   18  N   UNL     1     -42.604 -48.209   9.017  1.00  0.00    -0.279 N 
HETATM   19  N   UNL     1     -43.115 -47.309   8.100  1.00  0.00    -0.303 N 
ATOM     20  HN  UNL     1     -42.353 -49.172   8.792  1.00  0.00     0.189 HD
HETATM   21  C   UNL     1     -43.348 -46.138   8.652  1.00  0.00     0.160 A 
ATOM     22  HN  UNL     1     -43.290 -47.526   7.120  1.00  0.00     0.186 HD
HETATM   23  S   UNL     1     -42.905 -46.024  10.307  1.00  0.00    -0.046 SA
ENDBRANCH   4  17
TORSDOF 5
ENDMDL
MODEL 9
REMARK VINA RESULT:      -5.0      5.024      6.912
REMARK  5 active torsions:
REMARK  status: ('A' for Active; 'I' for Inactive)
REMARK       I    between atoms: N_1  and  C_2 
REMARK    1  A    between atoms: C_2  and  C_4 
REMARK    2  A    between atoms: C_4  and  C_5 
REMARK    3  A    between atoms: C_5  and  N_6 
REMARK    4  A    between atoms: C_5  and  C_17 
REMARK       I    between atoms: N_6  and  C_7 
REMARK       I    between atoms: C_7  and  N_9 
REMARK    5  A    between atoms: N_9  and  C_10 
ROOT
HETATM    1  N   UNL     1     -41.765 -52.373  14.524  1.00  0.00    -0.337 N 
HETATM    2  C   UNL     1     -40.938 -52.203  13.430  1.00  0.00     0.322 C 
HETATM    3  O   UNL     1     -40.979 -52.950  12.463  1.00  0.00    -0.247 OA
HETATM    4  N   UNL     1     -40.168 -51.074  13.554  1.00  0.00    -0.288 N 
HETATM    5  H   UNL     1     -41.428 -52.044  15.417  1.00  0.00     0.164 HD
HETATM    6  H   UNL     1     -40.464 -50.356  14.193  1.00  0.00     0.172 HD
ENDROOT
BRANCH   1   7
HETATM    7  C   UNL     1     -42.750 -53.445  14.530  1.00  0.00     0.099 C 
BRANCH   7   8
HETATM    8  C   UNL     1     -44.153 -52.921  14.220  1.00  0.00     0.128 C 
BRANCH   8   9
HETATM    9  C   UNL     1     -44.640 -53.310  12.845  1.00  0.00     0.217 C 
HETATM   10  N   UNL     1     -43.763 -53.982  12.047  1.00  0.00    -0.370 N 
HETATM   11  H   UNL     1     -44.083 -54.192  11.109  1.00  0.00     0.159 HD
HETATM   12  H   UNL     1     -42.762 -53.940  12.183  1.00  0.00     0.159 HD
HETATM   13  O   UNL     1     -45.786 -53.091  12.461  1.00  0.00    -0.274 OA
ENDBRANCH   8   9
ENDBRANCH   7   8
BRANCH   7  14
HETATM   14  C   UNL     1     -42.749 -54.225  15.825  1.00  0.00     0.009 A 
HETATM   15  C   UNL     1     -41.469 -54.687  16.481  1.00  0.00     0.007 A 
HETATM   16  C   UNL     1     -42.430 -55.701  15.934  1.00  0.00     0.007 A 
ENDBRANCH   7  14
ENDBRANCH   1   7
BRANCH   4  17
HETATM   17  C   UNL     1     -39.314 -50.709  12.547  1.00  0.00     0.168 A 
HETATM   18  N   UNL     1     -39.568 -50.316  11.322  1.00  0.00    -0.279 N 
HETATM   19  N   UNL     1     -38.415 -49.971  10.641  1.00  0.00    -0.303 N 
ATOM     20  HN  UNL     1     -40.505 -50.270  10.920  1.00  0.00     0.189 HD
HETATM   21  C   UNL     1     -37.347 -50.125  11.391  1.00  0.00     0.160 A 
ATOM     22  HN  UNL     1     -38.397 -49.638   9.678  1.00  0.00     0.186 HD
HETATM   23  S   UNL     1     -37.655 -50.760  12.957  1.00  0.00    -0.046 SA
ENDBRANCH   4  17
TORSDOF 5
ENDMDL
