MODEL 1
REMARK VINA RESULT:      -5.9      0.000      0.000
REMARK  8 active torsions:
REMARK  status: ('A' for Active; 'I' for Inactive)
REMARK    1  A    between atoms: C_8  and  O_9 
REMARK    2  A    between atoms: O_9  and  C_10 
REMARK    3  A    between atoms: C_10  and  C_11 
REMARK    4  A    between atoms: C_11  and  O_12 
REMARK    5  A    between atoms: C_11  and  C_13 
REMARK    6  A    between atoms: C_13  and  N_14 
REMARK    7  A    between atoms: C_21  and  C_22 
REMARK    8  A    between atoms: C_22  and  N_23 
ROOT
HETATM    1  N   UNL     1     -42.509 -52.624  16.283  1.00  0.00    -0.254 N 
HETATM    2  N   UNL     1     -43.132 -51.436  16.598  1.00  0.00    -0.300 N 
ATOM      3  HN  UNL     1     -43.444 -51.249  17.551  1.00  0.00     0.187 HD
HETATM    4  C   UNL     1     -43.314 -50.560  15.660  1.00  0.00     0.029 C 
HETATM    5  C   UNL     1     -43.926 -49.236  16.064  1.00  0.00     0.070 C 
HETATM    6  C   UNL     1     -42.968 -50.775  14.231  1.00  0.00    -0.013 C 
HETATM    7  C   UNL     1     -43.253 -49.750  13.175  1.00  0.00     0.052 C 
HETATM    8  C   UNL     1     -42.365 -51.947  13.976  1.00  0.00     0.103 C 
HETATM    9  C   UNL     1     -41.988 -52.904  15.031  1.00  0.00     0.282 C 
HETATM   10  O   UNL     1     -41.273 -53.868  14.776  1.00  0.00    -0.265 OA
ENDROOT
BRANCH   1  11
HETATM   11  C   UNL     1     -42.351 -53.599  17.357  1.00  0.00     0.186 C 
BRANCH  11  12
HETATM   12  C   UNL     1     -43.492 -54.621  17.405  1.00  0.00     0.162 C 
BRANCH  12  13
HETATM   13  C   UNL     1     -44.893 -53.987  17.333  1.00  0.00     0.209 C 
BRANCH  13  14
HETATM   14  O   UNL     1     -45.534 -54.333  16.108  1.00  0.00    -0.347 OA
BRANCH  14  15
HETATM   15  C   UNL     1     -45.920 -53.363  15.212  1.00  0.00     0.080 A 
HETATM   16  C   UNL     1     -46.605 -52.152  15.460  1.00  0.00    -0.028 A 
HETATM   17  C   UNL     1     -47.112 -51.672  16.792  1.00  0.00     0.051 C 
HETATM   18  C   UNL     1     -46.857 -51.280  14.377  1.00  0.00     0.009 A 
HETATM   19  C   UNL     1     -46.474 -51.589  13.078  1.00  0.00     0.001 A 
HETATM   20  C   UNL     1     -45.830 -52.789  12.827  1.00  0.00     0.009 A 
HETATM   21  C   UNL     1     -45.553 -53.680  13.876  1.00  0.00    -0.028 A 
HETATM   22  C   UNL     1     -44.870 -54.982  13.540  1.00  0.00     0.051 C 
ENDBRANCH  14  15
ENDBRANCH  13  14
ENDBRANCH  12  13
BRANCH  12  23
HETATM   23  O   UNL     1     -43.337 -55.562  16.332  1.00  0.00    -0.392 OA
HETATM   24  H   UNL     1     -43.555 -56.437  16.705  1.00  0.00     0.210 HD
ENDBRANCH  12  23
ENDBRANCH  11  12
ENDBRANCH   1  11
BRANCH   8  25
HETATM   25  C   UNL     1     -41.941 -52.296  12.558  1.00  0.00    -0.031 C 
BRANCH  25  26
HETATM   26  N   UNL     1     -41.589 -52.585  11.382  1.00  0.00    -0.365 N 
ATOM     27  HN2 UNL     1     -41.876 -52.388  12.341  1.00  0.00     0.165 HD
ATOM     28  HN1 UNL     1     -41.305 -52.819  10.431  1.00  0.00     0.165 HD
ENDBRANCH  25  26
ENDBRANCH   8  25
TORSDOF 8
ENDMDL
MODEL 2
REMARK VINA RESULT:      -5.6      1.535      2.377
REMARK  8 active torsions:
REMARK  status: ('A' for Active; 'I' for Inactive)
REMARK    1  A    between atoms: C_8  and  O_9 
REMARK    2  A    between atoms: O_9  and  C_10 
REMARK    3  A    between atoms: C_10  and  C_11 
REMARK    4  A    between atoms: C_11  and  O_12 
REMARK    5  A    between atoms: C_11  and  C_13 
REMARK    6  A    between atoms: C_13  and  N_14 
REMARK    7  A    between atoms: C_21  and  C_22 
REMARK    8  A    between atoms: C_22  and  N_23 
ROOT
HETATM    1  N   UNL     1     -41.436 -52.369  14.756  1.00  0.00    -0.254 N 
HETATM    2  N   UNL     1     -42.345 -51.600  15.450  1.00  0.00    -0.300 N 
ATOM      3  HN  UNL     1     -42.713 -51.913  16.348  1.00  0.00     0.187 HD
HETATM    4  C   UNL     1     -42.724 -50.470  14.939  1.00  0.00     0.029 C 
HETATM    5  C   UNL     1     -43.660 -49.618  15.769  1.00  0.00     0.070 C 
HETATM    6  C   UNL     1     -42.307 -49.971  13.603  1.00  0.00    -0.013 C 
HETATM    7  C   UNL     1     -42.821 -48.683  13.033  1.00  0.00     0.052 C 
HETATM    8  C   UNL     1     -41.422 -50.756  12.968  1.00  0.00     0.103 C 
HETATM    9  C   UNL     1     -40.836 -51.963  13.576  1.00  0.00     0.282 C 
HETATM   10  O   UNL     1     -39.895 -52.541  13.040  1.00  0.00    -0.265 OA
ENDROOT
BRANCH   1  11
HETATM   11  C   UNL     1     -41.057 -53.648  15.347  1.00  0.00     0.186 C 
BRANCH  11  12
HETATM   12  C   UNL     1     -42.251 -54.409  15.933  1.00  0.00     0.162 C 
BRANCH  12  13
HETATM   13  C   UNL     1     -43.111 -55.120  14.874  1.00  0.00     0.209 C 
BRANCH  13  14
HETATM   14  O   UNL     1     -44.497 -54.909  15.133  1.00  0.00    -0.347 OA
BRANCH  14  15
HETATM   15  C   UNL     1     -45.112 -53.730  14.781  1.00  0.00     0.080 A 
HETATM   16  C   UNL     1     -45.043 -53.028  13.557  1.00  0.00    -0.028 A 
HETATM   17  C   UNL     1     -44.222 -53.409  12.355  1.00  0.00     0.051 C 
HETATM   18  C   UNL     1     -45.806 -51.847  13.407  1.00  0.00     0.009 A 
HETATM   19  C   UNL     1     -46.598 -51.347  14.433  1.00  0.00     0.001 A 
HETATM   20  C   UNL     1     -46.643 -52.017  15.644  1.00  0.00     0.009 A 
HETATM   21  C   UNL     1     -45.907 -53.198  15.832  1.00  0.00    -0.028 A 
HETATM   22  C   UNL     1     -45.977 -53.871  17.180  1.00  0.00     0.051 C 
ENDBRANCH  14  15
ENDBRANCH  13  14
ENDBRANCH  12  13
BRANCH  12  23
HETATM   23  O   UNL     1     -41.782 -55.369  16.892  1.00  0.00    -0.392 OA
HETATM   24  H   UNL     1     -41.735 -56.222  16.419  1.00  0.00     0.210 HD
ENDBRANCH  12  23
ENDBRANCH  11  12
ENDBRANCH   1  11
BRANCH   8  25
HETATM   25  C   UNL     1     -40.896 -50.360  11.597  1.00  0.00    -0.031 C 
BRANCH  25  26
HETATM   26  N   UNL     1     -40.460 -50.033  10.460  1.00  0.00    -0.365 N 
ATOM     27  HN2 UNL     1     -40.847 -50.287  11.369  1.00  0.00     0.165 HD
ATOM     28  HN1 UNL     1     -40.105 -49.769   9.541  1.00  0.00     0.165 HD
ENDBRANCH  25  26
ENDBRANCH   8  25
TORSDOF 8
ENDMDL
MODEL 3
REMARK VINA RESULT:      -5.6      2.101      5.264
REMARK  8 active torsions:
REMARK  status: ('A' for Active; 'I' for Inactive)
REMARK    1  A    between atoms: C_8  and  O_9 
REMARK    2  A    between atoms: O_9  and  C_10 
REMARK    3  A    between atoms: C_10  and  C_11 
REMARK    4  A    between atoms: C_11  and  O_12 
REMARK    5  A    between atoms: C_11  and  C_13 
REMARK    6  A    between atoms: C_13  and  N_14 
REMARK    7  A    between atoms: C_21  and  C_22 
REMARK    8  A    between atoms: C_22  and  N_23 
ROOT
HETATM    1  N   UNL     1     -43.298 -50.972  13.380  1.00  0.00    -0.254 N 
HETATM    2  N   UNL     1     -44.437 -51.156  12.625  1.00  0.00    -0.300 N 
ATOM      3  HN  UNL     1     -44.393 -51.137  11.606  1.00  0.00     0.187 HD
HETATM    4  C   UNL     1     -45.564 -51.354  13.233  1.00  0.00     0.029 C 
HETATM    5  C   UNL     1     -46.774 -51.633  12.369  1.00  0.00     0.070 C 
HETATM    6  C   UNL     1     -45.739 -51.318  14.709  1.00  0.00    -0.013 C 
HETATM    7  C   UNL     1     -47.077 -51.496  15.361  1.00  0.00     0.052 C 
HETATM    8  C   UNL     1     -44.602 -51.135  15.399  1.00  0.00     0.103 C 
HETATM    9  C   UNL     1     -43.275 -51.071  14.761  1.00  0.00     0.282 C 
HETATM   10  O   UNL     1     -42.253 -51.095  15.439  1.00  0.00    -0.265 OA
ENDROOT
BRANCH   1  11
HETATM   11  C   UNL     1     -42.055 -50.721  12.661  1.00  0.00     0.186 C 
BRANCH  11  12
HETATM   12  C   UNL     1     -41.485 -51.982  11.999  1.00  0.00     0.162 C 
BRANCH  12  13
HETATM   13  C   UNL     1     -40.647 -52.853  12.951  1.00  0.00     0.209 C 
BRANCH  13  14
HETATM   14  O   UNL     1     -41.344 -54.055  13.269  1.00  0.00    -0.347 OA
BRANCH  14  15
HETATM   15  C   UNL     1     -41.431 -54.501  14.568  1.00  0.00     0.080 A 
HETATM   16  C   UNL     1     -40.389 -54.744  15.490  1.00  0.00    -0.028 A 
HETATM   17  C   UNL     1     -38.915 -54.606  15.228  1.00  0.00     0.051 C 
HETATM   18  C   UNL     1     -40.724 -55.161  16.799  1.00  0.00     0.009 A 
HETATM   19  C   UNL     1     -42.042 -55.359  17.194  1.00  0.00     0.001 A 
HETATM   20  C   UNL     1     -43.063 -55.151  16.282  1.00  0.00     0.009 A 
HETATM   21  C   UNL     1     -42.773 -54.730  14.974  1.00  0.00    -0.028 A 
HETATM   22  C   UNL     1     -43.924 -54.541  14.018  1.00  0.00     0.051 C 
ENDBRANCH  14  15
ENDBRANCH  13  14
ENDBRANCH  12  13
BRANCH  12  23
HETATM   23  O   UNL     1     -42.560 -52.763  11.456  1.00  0.00    -0.392 OA
HETATM   24  H   UNL     1     -42.701 -52.434  10.547  1.00  0.00     0.210 HD
ENDBRANCH  12  23
ENDBRANCH  11  12
ENDBRANCH   1  11
BRANCH   8  25
HETATM   25  C   UNL     1     -44.629 -51.092  16.919  1.00  0.00    -0.031 C 
BRANCH  25  26
HETATM   26  N   UNL     1     -44.653 -51.056  18.179  1.00  0.00    -0.365 N 
ATOM     27  HN2 UNL     1     -44.649 -51.120  17.161  1.00  0.00     0.165 HD
ATOM     28  HN1 UNL     1     -44.671 -51.026  19.198  1.00  0.00     0.165 HD
ENDBRANCH  25  26
ENDBRANCH   8  25
TORSDOF 8
ENDMDL
MODEL 4
REMARK VINA RESULT:      -5.5      3.239      4.218
REMARK  8 active torsions:
REMARK  status: ('A' for Active; 'I' for Inactive)
REMARK    1  A    between atoms: C_8  and  O_9 
REMARK    2  A    between atoms: O_9  and  C_10 
REMARK    3  A    between atoms: C_10  and  C_11 
REMARK    4  A    between atoms: C_11  and  O_12 
REMARK    5  A    between atoms: C_11  and  C_13 
REMARK    6  A    between atoms: C_13  and  N_14 
REMARK    7  A    between atoms: C_21  and  C_22 
REMARK    8  A    between atoms: C_22  and  N_23 
ROOT
HETATM    1  N   UNL     1     -38.884 -51.475  14.159  1.00  0.00    -0.254 N 
HETATM    2  N   UNL     1     -39.739 -50.495  14.613  1.00  0.00    -0.300 N 
ATOM      3  HN  UNL     1     -40.275 -50.630  15.471  1.00  0.00     0.187 HD
HETATM    4  C   UNL     1     -39.851 -49.398  13.930  1.00  0.00     0.029 C 
HETATM    5  C   UNL     1     -40.737 -48.316  14.506  1.00  0.00     0.070 C 
HETATM    6  C   UNL     1     -39.175 -49.146  12.631  1.00  0.00    -0.013 C 
HETATM    7  C   UNL     1     -39.384 -47.882  11.853  1.00  0.00     0.052 C 
HETATM    8  C   UNL     1     -38.354 -50.130  12.231  1.00  0.00     0.103 C 
HETATM    9  C   UNL     1     -38.067 -51.321  13.051  1.00  0.00     0.282 C 
HETATM   10  O   UNL     1     -37.171 -52.097  12.735  1.00  0.00    -0.265 OA
ENDROOT
BRANCH   1  11
HETATM   11  C   UNL     1     -38.808 -52.707  14.935  1.00  0.00     0.186 C 
BRANCH  11  12
HETATM   12  C   UNL     1     -39.588 -53.862  14.296  1.00  0.00     0.162 C 
BRANCH  12  13
HETATM   13  C   UNL     1     -40.838 -53.408  13.521  1.00  0.00     0.209 C 
BRANCH  13  14
HETATM   14  O   UNL     1     -41.854 -52.977  14.422  1.00  0.00    -0.347 OA
BRANCH  14  15
HETATM   15  C   UNL     1     -43.173 -52.935  14.036  1.00  0.00     0.080 A 
HETATM   16  C   UNL     1     -43.882 -51.878  13.424  1.00  0.00    -0.028 A 
HETATM   17  C   UNL     1     -43.340 -50.513  13.096  1.00  0.00     0.051 C 
HETATM   18  C   UNL     1     -45.236 -52.081  13.072  1.00  0.00     0.009 A 
HETATM   19  C   UNL     1     -45.892 -53.279  13.330  1.00  0.00     0.001 A 
HETATM   20  C   UNL     1     -45.208 -54.306  13.958  1.00  0.00     0.009 A 
HETATM   21  C   UNL     1     -43.860 -54.147  14.317  1.00  0.00    -0.028 A 
HETATM   22  C   UNL     1     -43.173 -55.293  15.018  1.00  0.00     0.051 C 
ENDBRANCH  14  15
ENDBRANCH  13  14
ENDBRANCH  12  13
BRANCH  12  23
HETATM   23  O   UNL     1     -38.721 -54.595  13.418  1.00  0.00    -0.392 OA
HETATM   24  H   UNL     1     -39.144 -55.465  13.285  1.00  0.00     0.210 HD
ENDBRANCH  12  23
ENDBRANCH  11  12
ENDBRANCH   1  11
BRANCH   8  25
HETATM   25  C   UNL     1     -37.584 -50.000  10.926  1.00  0.00    -0.031 C 
BRANCH  25  26
HETATM   26  N   UNL     1     -36.946 -49.892   9.845  1.00  0.00    -0.365 N 
ATOM     27  HN2 UNL     1     -37.469 -49.943  10.719  1.00  0.00     0.165 HD
ATOM     28  HN1 UNL     1     -36.430 -49.805   8.969  1.00  0.00     0.165 HD
ENDBRANCH  25  26
ENDBRANCH   8  25
TORSDOF 8
ENDMDL
MODEL 5
REMARK VINA RESULT:      -5.5      1.886      4.520
REMARK  8 active torsions:
REMARK  status: ('A' for Active; 'I' for Inactive)
REMARK    1  A    between atoms: C_8  and  O_9 
REMARK    2  A    between atoms: O_9  and  C_10 
REMARK    3  A    between atoms: C_10  and  C_11 
REMARK    4  A    between atoms: C_11  and  O_12 
REMARK    5  A    between atoms: C_11  and  C_13 
REMARK    6  A    between atoms: C_13  and  N_14 
REMARK    7  A    between atoms: C_21  and  C_22 
REMARK    8  A    between atoms: C_22  and  N_23 
ROOT
HETATM    1  N   UNL     1     -42.423 -53.583  14.008  1.00  0.00    -0.254 N 
HETATM    2  N   UNL     1     -43.621 -54.157  13.639  1.00  0.00    -0.300 N 
ATOM      3  HN  UNL     1     -43.827 -54.344  12.658  1.00  0.00     0.187 HD
HETATM    4  C   UNL     1     -44.480 -54.455  14.563  1.00  0.00     0.029 C 
HETATM    5  C   UNL     1     -45.746 -55.159  14.124  1.00  0.00     0.070 C 
HETATM    6  C   UNL     1     -44.302 -54.148  16.006  1.00  0.00    -0.013 C 
HETATM    7  C   UNL     1     -45.355 -54.463  17.027  1.00  0.00     0.052 C 
HETATM    8  C   UNL     1     -43.122 -53.588  16.314  1.00  0.00     0.103 C 
HETATM    9  C   UNL     1     -42.048 -53.381  15.326  1.00  0.00     0.282 C 
HETATM   10  O   UNL     1     -40.923 -53.045  15.685  1.00  0.00    -0.265 OA
ENDROOT
BRANCH   1  11
HETATM   11  C   UNL     1     -41.495 -53.231  12.940  1.00  0.00     0.186 C 
BRANCH  11  12
HETATM   12  C   UNL     1     -41.972 -52.037  12.106  1.00  0.00     0.162 C 
BRANCH  12  13
HETATM   13  C   UNL     1     -42.380 -50.817  12.952  1.00  0.00     0.209 C 
BRANCH  13  14
HETATM   14  O   UNL     1     -43.795 -50.645  12.929  1.00  0.00    -0.347 OA
BRANCH  14  15
HETATM   15  C   UNL     1     -44.538 -50.735  14.083  1.00  0.00     0.080 A 
HETATM   16  C   UNL     1     -44.188 -50.342  15.393  1.00  0.00    -0.028 A 
HETATM   17  C   UNL     1     -42.869 -49.764  15.828  1.00  0.00     0.051 C 
HETATM   18  C   UNL     1     -45.141 -50.491  16.426  1.00  0.00     0.009 A 
HETATM   19  C   UNL     1     -46.400 -51.033  16.193  1.00  0.00     0.001 A 
HETATM   20  C   UNL     1     -46.735 -51.448  14.915  1.00  0.00     0.009 A 
HETATM   21  C   UNL     1     -45.819 -51.310  13.860  1.00  0.00    -0.028 A 
HETATM   22  C   UNL     1     -46.230 -51.800  12.494  1.00  0.00     0.051 C 
ENDBRANCH  14  15
ENDBRANCH  13  14
ENDBRANCH  12  13
BRANCH  12  23
HETATM   23  O   UNL     1     -40.941 -51.656  11.183  1.00  0.00    -0.392 OA
HETATM   24  H   UNL     1     -40.797 -50.699  11.318  1.00  0.00     0.210 HD
ENDBRANCH  12  23
ENDBRANCH  11  12
ENDBRANCH   1  11
BRANCH   8  25
HETATM   25  C   UNL     1     -42.797 -53.233  17.756  1.00  0.00    -0.031 C 
BRANCH  25  26
HETATM   26  N   UNL     1     -42.528 -52.939  18.952  1.00  0.00    -0.365 N 
ATOM     27  HN2 UNL     1     -42.781 -53.164  17.990  1.00  0.00     0.165 HD
ATOM     28  HN1 UNL     1     -42.308 -52.701  19.920  1.00  0.00     0.165 HD
ENDBRANCH  25  26
ENDBRANCH   8  25
TORSDOF 8
ENDMDL
MODEL 6
REMARK VINA RESULT:      -5.5      2.251      4.116
REMARK  8 active torsions:
REMARK  status: ('A' for Active; 'I' for Inactive)
REMARK    1  A    between atoms: C_8  and  O_9 
REMARK    2  A    between atoms: O_9  and  C_10 
REMARK    3  A    between atoms: C_10  and  C_11 
REMARK    4  A    between atoms: C_11  and  O_12 
REMARK    5  A    between atoms: C_11  and  C_13 
REMARK    6  A    between atoms: C_13  and  N_14 
REMARK    7  A    between atoms: C_21  and  C_22 
REMARK    8  A    between atoms: C_22  and  N_23 
ROOT
HETATM    1  N   UNL     1     -44.321 -54.769  14.152  1.00  0.00    -0.254 N 
HETATM    2  N   UNL     1     -43.601 -55.243  15.228  1.00  0.00    -0.300 N 
ATOM      3  HN  UNL     1     -44.065 -55.756  15.978  1.00  0.00     0.187 HD
HETATM    4  C   UNL     1     -42.324 -55.026  15.267  1.00  0.00     0.029 C 
HETATM    5  C   UNL     1     -41.558 -55.634  16.422  1.00  0.00     0.070 C 
HETATM    6  C   UNL     1     -41.577 -54.223  14.265  1.00  0.00    -0.013 C 
HETATM    7  C   UNL     1     -40.108 -53.953  14.389  1.00  0.00     0.052 C 
HETATM    8  C   UNL     1     -42.323 -53.783  13.238  1.00  0.00     0.103 C 
HETATM    9  C   UNL     1     -43.741 -54.142  13.062  1.00  0.00     0.282 C 
HETATM   10  O   UNL     1     -44.329 -53.877  12.019  1.00  0.00    -0.265 OA
ENDROOT
BRANCH   1  11
HETATM   11  C   UNL     1     -45.761 -55.005  14.157  1.00  0.00     0.186 C 
BRANCH  11  12
HETATM   12  C   UNL     1     -46.559 -53.794  14.655  1.00  0.00     0.162 C 
BRANCH  12  13
HETATM   13  C   UNL     1     -45.918 -53.085  15.861  1.00  0.00     0.209 C 
BRANCH  13  14
HETATM   14  O   UNL     1     -45.357 -51.836  15.465  1.00  0.00    -0.347 OA
BRANCH  14  15
HETATM   15  C   UNL     1     -44.044 -51.531  15.739  1.00  0.00     0.080 A 
HETATM   16  C   UNL     1     -43.287 -51.838  16.891  1.00  0.00    -0.028 A 
HETATM   17  C   UNL     1     -43.782 -52.547  18.121  1.00  0.00     0.051 C 
HETATM   18  C   UNL     1     -41.926 -51.458  16.930  1.00  0.00     0.009 A 
HETATM   19  C   UNL     1     -41.322 -50.773  15.883  1.00  0.00     0.001 A 
HETATM   20  C   UNL     1     -42.071 -50.444  14.765  1.00  0.00     0.009 A 
HETATM   21  C   UNL     1     -43.424 -50.810  14.683  1.00  0.00    -0.028 A 
HETATM   22  C   UNL     1     -44.195 -50.405  13.451  1.00  0.00     0.051 C 
ENDBRANCH  14  15
ENDBRANCH  13  14
ENDBRANCH  12  13
BRANCH  12  23
HETATM   23  O   UNL     1     -46.724 -52.857  13.581  1.00  0.00    -0.392 OA
HETATM   24  H   UNL     1     -47.495 -53.167  13.067  1.00  0.00     0.210 HD
ENDBRANCH  12  23
ENDBRANCH  11  12
ENDBRANCH   1  11
BRANCH   8  25
HETATM   25  C   UNL     1     -41.686 -52.960  12.130  1.00  0.00    -0.031 C 
BRANCH  25  26
HETATM   26  N   UNL     1     -41.158 -52.277  11.211  1.00  0.00    -0.365 N 
ATOM     27  HN2 UNL     1     -41.597 -52.854  11.928  1.00  0.00     0.165 HD
ATOM     28  HN1 UNL     1     -40.730 -51.724  10.468  1.00  0.00     0.165 HD
ENDBRANCH  25  26
ENDBRANCH   8  25
TORSDOF 8
ENDMDL
MODEL 7
REMARK VINA RESULT:      -5.5      2.517      5.469
REMARK  8 active torsions:
REMARK  status: ('A' for Active; 'I' for Inactive)
REMARK    1  A    between atoms: C_8  and  O_9 
REMARK    2  A    between atoms: O_9  and  C_10 
REMARK    3  A    between atoms: C_10  and  C_11 
REMARK    4  A    between atoms: C_11  and  O_12 
REMARK    5  A    between atoms: C_11  and  C_13 
REMARK    6  A    between atoms: C_13  and  N_14 
REMARK    7  A    between atoms: C_21  and  C_22 
REMARK    8  A    between atoms: C_22  and  N_23 
ROOT
HETATM    1  N   UNL     1     -42.019 -52.982  12.390  1.00  0.00    -0.254 N 
HETATM    2  N   UNL     1     -43.310 -52.597  12.099  1.00  0.00    -0.300 N 
ATOM      3  HN  UNL     1     -43.499 -51.942  11.341  1.00  0.00     0.187 HD
HETATM    4  C   UNL     1     -44.280 -53.084  12.808  1.00  0.00     0.029 C 
HETATM    5  C   UNL     1     -45.688 -52.700  12.405  1.00  0.00     0.070 C 
HETATM    6  C   UNL     1     -44.097 -53.978  13.981  1.00  0.00    -0.013 C 
HETATM    7  C   UNL     1     -45.252 -54.467  14.803  1.00  0.00     0.052 C 
HETATM    8  C   UNL     1     -42.822 -54.323  14.223  1.00  0.00     0.103 C 
HETATM    9  C   UNL     1     -41.703 -53.930  13.349  1.00  0.00     0.282 C 
HETATM   10  O   UNL     1     -40.589 -54.422  13.499  1.00  0.00    -0.265 OA
ENDROOT
BRANCH   1  11
HETATM   11  C   UNL     1     -40.951 -52.390  11.592  1.00  0.00     0.186 C 
BRANCH  11  12
HETATM   12  C   UNL     1     -40.849 -50.870  11.771  1.00  0.00     0.162 C 
BRANCH  12  13
HETATM   13  C   UNL     1     -39.926 -50.446  12.927  1.00  0.00     0.209 C 
BRANCH  13  14
HETATM   14  O   UNL     1     -40.679 -49.820  13.962  1.00  0.00    -0.347 OA
BRANCH  14  15
HETATM   15  C   UNL     1     -41.259 -50.562  14.964  1.00  0.00     0.080 A 
HETATM   16  C   UNL     1     -40.641 -51.428  15.894  1.00  0.00    -0.028 A 
HETATM   17  C   UNL     1     -39.177 -51.766  15.961  1.00  0.00     0.051 C 
HETATM   18  C   UNL     1     -41.443 -52.057  16.874  1.00  0.00     0.009 A 
HETATM   19  C   UNL     1     -42.818 -51.868  16.933  1.00  0.00     0.001 A 
HETATM   20  C   UNL     1     -43.430 -51.044  16.003  1.00  0.00     0.009 A 
HETATM   21  C   UNL     1     -42.669 -50.394  15.018  1.00  0.00    -0.028 A 
HETATM   22  C   UNL     1     -43.393 -49.527  14.018  1.00  0.00     0.051 C 
ENDBRANCH  14  15
ENDBRANCH  13  14
ENDBRANCH  12  13
BRANCH  12  23
HETATM   23  O   UNL     1     -40.389 -50.275  10.548  1.00  0.00    -0.392 OA
HETATM   24  H   UNL     1     -40.748 -49.367  10.538  1.00  0.00     0.210 HD
ENDBRANCH  12  23
ENDBRANCH  11  12
ENDBRANCH   1  11
BRANCH   8  25
HETATM   25  C   UNL     1     -42.488 -55.246  15.383  1.00  0.00    -0.031 C 
BRANCH  25  26
HETATM   26  N   UNL     1     -42.209 -56.012  16.345  1.00  0.00    -0.365 N 
ATOM     27  HN2 UNL     1     -42.451 -55.369  15.592  1.00  0.00     0.165 HD
ATOM     28  HN1 UNL     1     -41.984 -56.633  17.123  1.00  0.00     0.165 HD
ENDBRANCH  25  26
ENDBRANCH   8  25
TORSDOF 8
ENDMDL
MODEL 8
REMARK VINA RESULT:      -5.4      3.348      4.675
REMARK  8 active torsions:
REMARK  status: ('A' for Active; 'I' for Inactive)
REMARK    1  A    between atoms: C_8  and  O_9 
REMARK    2  A    between atoms: O_9  and  C_10 
REMARK    3  A    between atoms: C_10  and  C_11 
REMARK    4  A    between atoms: C_11  and  O_12 
REMARK    5  A    between atoms: C_11  and  C_13 
REMARK    6  A    between atoms: C_13  and  N_14 
REMARK    7  A    between atoms: C_21  and  C_22 
REMARK    8  A    between atoms: C_22  and  N_23 
ROOT
HETATM    1  N   UNL     1     -40.144 -50.973  12.518  1.00  0.00    -0.254 N 
HETATM    2  N   UNL     1     -39.304 -51.143  13.598  1.00  0.00    -0.300 N 
ATOM      3  HN  UNL     1     -39.225 -52.050  14.057  1.00  0.00     0.187 HD
HETATM    4  C   UNL     1     -38.617 -50.127  14.019  1.00  0.00     0.029 C 
HETATM    5  C   UNL     1     -37.647 -50.375  15.153  1.00  0.00     0.070 C 
HETATM    6  C   UNL     1     -38.728 -48.752  13.467  1.00  0.00    -0.013 C 
HETATM    7  C   UNL     1     -37.952 -47.599  14.031  1.00  0.00     0.052 C 
HETATM    8  C   UNL     1     -39.559 -48.639  12.419  1.00  0.00     0.103 C 
HETATM    9  C   UNL     1     -40.234 -49.792  11.799  1.00  0.00     0.282 C 
HETATM   10  O   UNL     1     -40.829 -49.672  10.733  1.00  0.00    -0.265 OA
ENDROOT
BRANCH   1  11
HETATM   11  C   UNL     1     -40.924 -52.130  12.092  1.00  0.00     0.186 C 
BRANCH  11  12
HETATM   12  C   UNL     1     -40.980 -53.233  13.155  1.00  0.00     0.162 C 
BRANCH  12  13
HETATM   13  C   UNL     1     -42.358 -53.908  13.273  1.00  0.00     0.209 C 
BRANCH  13  14
HETATM   14  O   UNL     1     -43.381 -53.040  12.792  1.00  0.00    -0.347 OA
BRANCH  14  15
HETATM   15  C   UNL     1     -44.544 -52.854  13.503  1.00  0.00     0.080 A 
HETATM   16  C   UNL     1     -45.476 -53.820  13.943  1.00  0.00    -0.028 A 
HETATM   17  C   UNL     1     -45.416 -55.300  13.682  1.00  0.00     0.051 C 
HETATM   18  C   UNL     1     -46.587 -53.395  14.706  1.00  0.00     0.009 A 
HETATM   19  C   UNL     1     -46.801 -52.056  15.013  1.00  0.00     0.001 A 
HETATM   20  C   UNL     1     -45.905 -51.103  14.556  1.00  0.00     0.009 A 
HETATM   21  C   UNL     1     -44.784 -51.485  13.802  1.00  0.00    -0.028 A 
HETATM   22  C   UNL     1     -43.856 -50.401  13.312  1.00  0.00     0.051 C 
ENDBRANCH  14  15
ENDBRANCH  13  14
ENDBRANCH  12  13
BRANCH  12  23
HETATM   23  O   UNL     1     -39.984 -54.225  12.867  1.00  0.00    -0.392 OA
HETATM   24  H   UNL     1     -40.018 -54.865  13.604  1.00  0.00     0.210 HD
ENDBRANCH  12  23
ENDBRANCH  11  12
ENDBRANCH   1  11
BRANCH   8  25
HETATM   25  C   UNL     1     -39.758 -47.291  11.744  1.00  0.00    -0.031 C 
BRANCH  25  26
HETATM   26  N   UNL     1     -39.923 -46.173  11.183  1.00  0.00    -0.365 N 
ATOM     27  HN2 UNL     1     -39.827 -47.080  11.641  1.00  0.00     0.165 HD
ATOM     28  HN1 UNL     1     -40.055 -45.269  10.730  1.00  0.00     0.165 HD
ENDBRANCH  25  26
ENDBRANCH   8  25
TORSDOF 8
ENDMDL
MODEL 9
REMARK VINA RESULT:      -5.4      2.284      3.565
REMARK  8 active torsions:
REMARK  status: ('A' for Active; 'I' for Inactive)
REMARK    1  A    between atoms: C_8  and  O_9 
REMARK    2  A    between atoms: O_9  and  C_10 
REMARK    3  A    between atoms: C_10  and  C_11 
REMARK    4  A    between atoms: C_11  and  O_12 
REMARK    5  A    between atoms: C_11  and  C_13 
REMARK    6  A    between atoms: C_13  and  N_14 
REMARK    7  A    between atoms: C_21  and  C_22 
REMARK    8  A    between atoms: C_22  and  N_23 
ROOT
HETATM    1  N   UNL     1     -42.967 -53.360  17.301  1.00  0.00    -0.254 N 
HETATM    2  N   UNL     1     -41.746 -53.030  16.752  1.00  0.00    -0.300 N 
ATOM      3  HN  UNL     1     -41.030 -52.572  17.315  1.00  0.00     0.187 HD
HETATM    4  C   UNL     1     -41.525 -53.315  15.507  1.00  0.00     0.029 C 
HETATM    5  C   UNL     1     -40.145 -53.011  14.966  1.00  0.00     0.070 C 
HETATM    6  C   UNL     1     -42.533 -53.906  14.589  1.00  0.00    -0.013 C 
HETATM    7  C   UNL     1     -42.244 -54.162  13.140  1.00  0.00     0.052 C 
HETATM    8  C   UNL     1     -43.705 -54.208  15.170  1.00  0.00     0.103 C 
HETATM    9  C   UNL     1     -43.948 -54.057  16.616  1.00  0.00     0.282 C 
HETATM   10  O   UNL     1     -44.960 -54.520  17.132  1.00  0.00    -0.265 OA
ENDROOT
BRANCH   1  11
HETATM   11  C   UNL     1     -43.191 -52.996  18.695  1.00  0.00     0.186 C 
BRANCH  11  12
HETATM   12  C   UNL     1     -43.478 -51.501  18.881  1.00  0.00     0.162 C 
BRANCH  12  13
HETATM   13  C   UNL     1     -44.903 -51.090  18.470  1.00  0.00     0.209 C 
BRANCH  13  14
HETATM   14  O   UNL     1     -44.865 -50.213  17.348  1.00  0.00    -0.347 OA
BRANCH  14  15
HETATM   15  C   UNL     1     -45.225 -50.651  16.094  1.00  0.00     0.080 A 
HETATM   16  C   UNL     1     -46.443 -51.233  15.678  1.00  0.00    -0.028 A 
HETATM   17  C   UNL     1     -47.625 -51.550  16.553  1.00  0.00     0.051 C 
HETATM   18  C   UNL     1     -46.606 -51.567  14.314  1.00  0.00     0.009 A 
HETATM   19  C   UNL     1     -45.597 -51.361  13.380  1.00  0.00     0.001 A 
HETATM   20  C   UNL     1     -44.391 -50.819  13.792  1.00  0.00     0.009 A 
HETATM   21  C   UNL     1     -44.192 -50.466  15.137  1.00  0.00    -0.028 A 
HETATM   22  C   UNL     1     -42.850 -49.901  15.531  1.00  0.00     0.051 C 
ENDBRANCH  14  15
ENDBRANCH  13  14
ENDBRANCH  12  13
BRANCH  12  23
HETATM   23  O   UNL     1     -43.251 -51.138  20.251  1.00  0.00    -0.392 OA
HETATM   24  H   UNL     1     -42.840 -51.917  20.673  1.00  0.00     0.210 HD
ENDBRANCH  12  23
ENDBRANCH  11  12
ENDBRANCH   1  11
BRANCH   8  25
HETATM   25  C   UNL     1     -44.824 -54.834  14.354  1.00  0.00    -0.031 C 
BRANCH  25  26
HETATM   26  N   UNL     1     -45.753 -55.352  13.677  1.00  0.00    -0.365 N 
ATOM     27  HN2 UNL     1     -45.022 -54.900  14.226  1.00  0.00     0.165 HD
ATOM     28  HN1 UNL     1     -46.504 -55.773  13.129  1.00  0.00     0.165 HD
ENDBRANCH  25  26
ENDBRANCH   8  25
TORSDOF 8
ENDMDL
