MODEL 1
REMARK VINA RESULT:      -5.9      0.000      0.000
REMARK  4 active torsions:
REMARK  status: ('A' for Active; 'I' for Inactive)
REMARK    1  A    between atoms: O_2  and  C_3 
REMARK    2  A    between atoms: C_9  and  N_10 
REMARK       I    between atoms: N_10  and  C_11 
REMARK       I    between atoms: C_11  and  N_13 
REMARK    3  A    between atoms: N_13  and  C_14 
REMARK    4  A    between atoms: C_14  and  C_15 
ROOT
HETATM    1  N   UNL     1     -40.646 -49.694  10.522  1.00  0.00    -0.305 N 
HETATM    2  C   UNL     1     -41.385 -48.538  10.676  1.00  0.00     0.320 C 
HETATM    3  O   UNL     1     -41.405 -47.841  11.686  1.00  0.00    -0.247 OA
HETATM    4  N   UNL     1     -42.121 -48.173   9.562  1.00  0.00    -0.342 N 
HETATM    5  H   UNL     1     -40.878 -50.327   9.767  1.00  0.00     0.171 HD
HETATM    6  H   UNL     1     -42.396 -48.898   8.915  1.00  0.00     0.164 HD
ENDROOT
BRANCH   1   7
HETATM    7  C   UNL     1     -39.719 -50.186  11.487  1.00  0.00     0.087 A 
HETATM    8  C   UNL     1     -40.073 -51.197  12.390  1.00  0.00     0.169 A 
HETATM    9  N   UNL     1     -39.247 -51.674  13.357  1.00  0.00    -0.345 N 
HETATM   10  C   UNL     1     -38.017 -51.133  13.442  1.00  0.00     0.090 A 
ATOM     11  HN  UNL     1     -39.547 -52.413  13.993  1.00  0.00     0.167 HD
HETATM   12  C   UNL     1     -37.559 -50.151  12.591  1.00  0.00     0.019 A 
HETATM   13  C   UNL     1     -38.418 -49.685  11.597  1.00  0.00     0.035 A 
BRANCH   8  14
HETATM   14  O   UNL     1     -41.348 -51.736  12.303  1.00  0.00    -0.339 OA
HETATM   15  C   UNL     1     -41.356 -53.129  12.635  1.00  0.00     0.211 C 
ENDBRANCH   8  14
ENDBRANCH   1   7
BRANCH   4  16
HETATM   16  C   UNL     1     -42.932 -46.973   9.684  1.00  0.00     0.129 C 
BRANCH  16  17
HETATM   17  C   UNL     1     -44.234 -47.137   8.932  1.00  0.00     0.003 C 
HETATM   18  C   UNL     1     -45.126 -45.857   8.944  1.00  0.00     0.006 C 
HETATM   19  C   UNL     1     -46.344 -46.803   8.943  1.00  0.00     0.001 C 
HETATM   20  C   UNL     1     -45.430 -47.838   9.638  1.00  0.00     0.006 C 
ENDBRANCH  16  17
ENDBRANCH   4  16
TORSDOF 4
ENDMDL
MODEL 2
REMARK VINA RESULT:      -5.7      1.613      7.011
REMARK  4 active torsions:
REMARK  status: ('A' for Active; 'I' for Inactive)
REMARK    1  A    between atoms: O_2  and  C_3 
REMARK    2  A    between atoms: C_9  and  N_10 
REMARK       I    between atoms: N_10  and  C_11 
REMARK       I    between atoms: C_11  and  N_13 
REMARK    3  A    between atoms: N_13  and  C_14 
REMARK    4  A    between atoms: C_14  and  C_15 
ROOT
HETATM    1  N   UNL     1     -41.934 -48.163   9.405  1.00  0.00    -0.305 N 
HETATM    2  C   UNL     1     -41.558 -48.751  10.596  1.00  0.00     0.320 C 
HETATM    3  O   UNL     1     -42.118 -48.584  11.675  1.00  0.00    -0.247 OA
HETATM    4  N   UNL     1     -40.472 -49.606  10.499  1.00  0.00    -0.342 N 
HETATM    5  H   UNL     1     -41.280 -48.159   8.633  1.00  0.00     0.171 HD
HETATM    6  H   UNL     1     -39.813 -49.453   9.749  1.00  0.00     0.164 HD
ENDROOT
BRANCH   1   7
HETATM    7  C   UNL     1     -43.097 -47.354   9.243  1.00  0.00     0.087 A 
HETATM    8  C   UNL     1     -43.054 -45.968   9.439  1.00  0.00     0.169 A 
HETATM    9  N   UNL     1     -44.137 -45.153   9.341  1.00  0.00    -0.345 N 
HETATM   10  C   UNL     1     -45.317 -45.727   9.039  1.00  0.00     0.090 A 
ATOM     11  HN  UNL     1     -44.058 -44.147   9.491  1.00  0.00     0.167 HD
HETATM   12  C   UNL     1     -45.467 -47.077   8.804  1.00  0.00     0.019 A 
HETATM   13  C   UNL     1     -44.340 -47.893   8.896  1.00  0.00     0.035 A 
BRANCH   8  14
HETATM   14  O   UNL     1     -41.836 -45.389   9.765  1.00  0.00    -0.339 OA
HETATM   15  C   UNL     1     -41.850 -44.838  11.086  1.00  0.00     0.211 C 
ENDBRANCH   8  14
ENDBRANCH   1   7
BRANCH   4  16
HETATM   16  C   UNL     1     -40.026 -50.232  11.732  1.00  0.00     0.129 C 
BRANCH  16  17
HETATM   17  C   UNL     1     -38.733 -49.607  12.204  1.00  0.00     0.003 C 
HETATM   18  C   UNL     1     -38.159 -50.263  13.497  1.00  0.00     0.006 C 
HETATM   19  C   UNL     1     -37.624 -48.866  13.873  1.00  0.00     0.001 C 
HETATM   20  C   UNL     1     -38.788 -48.291  13.033  1.00  0.00     0.006 C 
ENDBRANCH  16  17
ENDBRANCH   4  16
TORSDOF 4
ENDMDL
MODEL 3
REMARK VINA RESULT:      -5.6      2.912      4.796
REMARK  4 active torsions:
REMARK  status: ('A' for Active; 'I' for Inactive)
REMARK    1  A    between atoms: O_2  and  C_3 
REMARK    2  A    between atoms: C_9  and  N_10 
REMARK       I    between atoms: N_10  and  C_11 
REMARK       I    between atoms: C_11  and  N_13 
REMARK    3  A    between atoms: N_13  and  C_14 
REMARK    4  A    between atoms: C_14  and  C_15 
ROOT
HETATM    1  N   UNL     1     -41.285 -51.607  11.494  1.00  0.00    -0.305 N 
HETATM    2  C   UNL     1     -42.123 -52.186  12.425  1.00  0.00     0.320 C 
HETATM    3  O   UNL     1     -41.985 -52.116  13.642  1.00  0.00    -0.247 OA
HETATM    4  N   UNL     1     -43.201 -52.868  11.884  1.00  0.00    -0.342 N 
HETATM    5  H   UNL     1     -41.329 -51.919  10.532  1.00  0.00     0.171 HD
HETATM    6  H   UNL     1     -43.109 -53.235  10.948  1.00  0.00     0.164 HD
ENDROOT
BRANCH   1   7
HETATM    7  C   UNL     1     -40.191 -50.754  11.823  1.00  0.00     0.087 A 
HETATM    8  C   UNL     1     -40.154 -49.419  11.399  1.00  0.00     0.169 A 
HETATM    9  N   UNL     1     -39.120 -48.573  11.645  1.00  0.00    -0.345 N 
HETATM   10  C   UNL     1     -38.073 -49.060  12.338  1.00  0.00     0.090 A 
ATOM     11  HN  UNL     1     -39.136 -47.606  11.317  1.00  0.00     0.167 HD
HETATM   12  C   UNL     1     -38.017 -50.350  12.821  1.00  0.00     0.019 A 
HETATM   13  C   UNL     1     -39.095 -51.197  12.569  1.00  0.00     0.035 A 
BRANCH   8  14
HETATM   14  O   UNL     1     -41.230 -48.931  10.672  1.00  0.00    -0.339 OA
HETATM   15  C   UNL     1     -41.338 -47.508  10.777  1.00  0.00     0.211 C 
ENDBRANCH   8  14
ENDBRANCH   1   7
BRANCH   4  16
HETATM   16  C   UNL     1     -44.101 -53.513  12.825  1.00  0.00     0.129 C 
BRANCH  16  17
HETATM   17  C   UNL     1     -45.443 -52.816  12.836  1.00  0.00     0.003 C 
HETATM   18  C   UNL     1     -45.364 -51.318  13.265  1.00  0.00     0.006 C 
HETATM   19  C   UNL     1     -46.757 -51.510  13.899  1.00  0.00     0.001 C 
HETATM   20  C   UNL     1     -46.380 -53.000  14.064  1.00  0.00     0.006 C 
ENDBRANCH  16  17
ENDBRANCH   4  16
TORSDOF 4
ENDMDL
MODEL 4
REMARK VINA RESULT:      -5.6      3.259      5.516
REMARK  4 active torsions:
REMARK  status: ('A' for Active; 'I' for Inactive)
REMARK    1  A    between atoms: O_2  and  C_3 
REMARK    2  A    between atoms: C_9  and  N_10 
REMARK       I    between atoms: N_10  and  C_11 
REMARK       I    between atoms: C_11  and  N_13 
REMARK    3  A    between atoms: N_13  and  C_14 
REMARK    4  A    between atoms: C_14  and  C_15 
ROOT
HETATM    1  N   UNL     1     -41.987 -49.440  11.283  1.00  0.00    -0.305 N 
HETATM    2  C   UNL     1     -42.531 -49.828  12.491  1.00  0.00     0.320 C 
HETATM    3  O   UNL     1     -42.609 -49.122  13.492  1.00  0.00    -0.247 OA
HETATM    4  N   UNL     1     -43.036 -51.118  12.507  1.00  0.00    -0.342 N 
HETATM    5  H   UNL     1     -41.741 -50.150  10.606  1.00  0.00     0.171 HD
HETATM    6  H   UNL     1     -42.649 -51.787  11.858  1.00  0.00     0.164 HD
ENDROOT
BRANCH   1   7
HETATM    7  C   UNL     1     -41.528 -48.120  10.999  1.00  0.00     0.087 A 
HETATM    8  C   UNL     1     -42.265 -47.252  10.184  1.00  0.00     0.169 A 
HETATM    9  N   UNL     1     -41.858 -46.001   9.843  1.00  0.00    -0.345 N 
HETATM   10  C   UNL     1     -40.671 -45.584  10.325  1.00  0.00     0.090 A 
ATOM     11  HN  UNL     1     -42.429 -45.401   9.247  1.00  0.00     0.167 HD
HETATM   12  C   UNL     1     -39.878 -46.349  11.153  1.00  0.00     0.019 A 
HETATM   13  C   UNL     1     -40.321 -47.624  11.500  1.00  0.00     0.035 A 
BRANCH   8  14
HETATM   14  O   UNL     1     -43.479 -47.696   9.680  1.00  0.00    -0.339 OA
HETATM   15  C   UNL     1     -43.548 -47.547   8.258  1.00  0.00     0.211 C 
ENDBRANCH   8  14
ENDBRANCH   1   7
BRANCH   4  16
HETATM   16  C   UNL     1     -43.600 -51.578  13.765  1.00  0.00     0.129 C 
BRANCH  16  17
HETATM   17  C   UNL     1     -45.027 -51.098  13.910  1.00  0.00     0.003 C 
HETATM   18  C   UNL     1     -45.547 -51.127  15.381  1.00  0.00     0.006 C 
HETATM   19  C   UNL     1     -46.937 -51.453  14.798  1.00  0.00     0.001 C 
HETATM   20  C   UNL     1     -46.191 -52.083  13.600  1.00  0.00     0.006 C 
ENDBRANCH  16  17
ENDBRANCH   4  16
TORSDOF 4
ENDMDL
MODEL 5
REMARK VINA RESULT:      -5.6      1.823      6.588
REMARK  4 active torsions:
REMARK  status: ('A' for Active; 'I' for Inactive)
REMARK    1  A    between atoms: O_2  and  C_3 
REMARK    2  A    between atoms: C_9  and  N_10 
REMARK       I    between atoms: N_10  and  C_11 
REMARK       I    between atoms: C_11  and  N_13 
REMARK    3  A    between atoms: N_13  and  C_14 
REMARK    4  A    between atoms: C_14  and  C_15 
ROOT
HETATM    1  N   UNL     1     -41.505 -48.538   9.927  1.00  0.00    -0.305 N 
HETATM    2  C   UNL     1     -41.444 -49.274  11.093  1.00  0.00     0.320 C 
HETATM    3  O   UNL     1     -42.093 -49.046  12.109  1.00  0.00    -0.247 OA
HETATM    4  N   UNL     1     -40.584 -50.359  11.045  1.00  0.00    -0.342 N 
HETATM    5  H   UNL     1     -40.768 -48.642   9.242  1.00  0.00     0.171 HD
HETATM    6  H   UNL     1     -39.810 -50.323  10.396  1.00  0.00     0.164 HD
ENDROOT
BRANCH   1   7
HETATM    7  C   UNL     1     -42.414 -47.462   9.707  1.00  0.00     0.087 A 
HETATM    8  C   UNL     1     -42.196 -46.196  10.265  1.00  0.00     0.169 A 
HETATM    9  N   UNL     1     -43.048 -45.147  10.125  1.00  0.00    -0.345 N 
HETATM   10  C   UNL     1     -44.167 -45.351   9.405  1.00  0.00     0.090 A 
ATOM     11  HN  UNL     1     -42.847 -44.241  10.549  1.00  0.00     0.167 HD
HETATM   12  C   UNL     1     -44.468 -46.549   8.794  1.00  0.00     0.019 A 
HETATM   13  C   UNL     1     -43.574 -47.608   8.939  1.00  0.00     0.035 A 
BRANCH   8  14
HETATM   14  O   UNL     1     -41.047 -46.001  11.018  1.00  0.00    -0.339 OA
HETATM   15  C   UNL     1     -40.148 -45.087  10.384  1.00  0.00     0.211 C 
ENDBRANCH   8  14
ENDBRANCH   1   7
BRANCH   4  16
HETATM   16  C   UNL     1     -40.470 -51.152  12.257  1.00  0.00     0.129 C 
BRANCH  16  17
HETATM   17  C   UNL     1     -41.219 -52.457  12.106  1.00  0.00     0.003 C 
HETATM   18  C   UNL     1     -42.544 -52.514  12.927  1.00  0.00     0.006 C 
HETATM   19  C   UNL     1     -42.277 -54.023  13.103  1.00  0.00     0.001 C 
HETATM   20  C   UNL     1     -40.775 -53.685  12.952  1.00  0.00     0.006 C 
ENDBRANCH  16  17
ENDBRANCH   4  16
TORSDOF 4
ENDMDL
MODEL 6
REMARK VINA RESULT:      -5.6      1.915      6.028
REMARK  4 active torsions:
REMARK  status: ('A' for Active; 'I' for Inactive)
REMARK    1  A    between atoms: O_2  and  C_3 
REMARK    2  A    between atoms: C_9  and  N_10 
REMARK       I    between atoms: N_10  and  C_11 
REMARK       I    between atoms: C_11  and  N_13 
REMARK    3  A    between atoms: N_13  and  C_14 
REMARK    4  A    between atoms: C_14  and  C_15 
ROOT
HETATM    1  N   UNL     1     -41.195 -48.718  10.512  1.00  0.00    -0.305 N 
HETATM    2  C   UNL     1     -40.930 -49.602  11.539  1.00  0.00     0.320 C 
HETATM    3  O   UNL     1     -40.782 -49.294  12.718  1.00  0.00    -0.247 OA
HETATM    4  N   UNL     1     -40.863 -50.930  11.152  1.00  0.00    -0.342 N 
HETATM    5  H   UNL     1     -41.056 -49.020   9.557  1.00  0.00     0.171 HD
HETATM    6  H   UNL     1     -40.611 -51.134  10.195  1.00  0.00     0.164 HD
ENDROOT
BRANCH   1   7
HETATM    7  C   UNL     1     -41.435 -47.325  10.698  1.00  0.00     0.087 A 
HETATM    8  C   UNL     1     -42.737 -46.813  10.772  1.00  0.00     0.169 A 
HETATM    9  N   UNL     1     -43.026 -45.492  10.905  1.00  0.00    -0.345 N 
HETATM   10  C   UNL     1     -41.990 -44.634  10.965  1.00  0.00     0.090 A 
ATOM     11  HN  UNL     1     -43.991 -45.163  10.956  1.00  0.00     0.167 HD
HETATM   12  C   UNL     1     -40.671 -45.033  10.923  1.00  0.00     0.019 A 
HETATM   13  C   UNL     1     -40.396 -46.394  10.801  1.00  0.00     0.035 A 
BRANCH   8  14
HETATM   14  O   UNL     1     -43.797 -47.703  10.694  1.00  0.00    -0.339 OA
HETATM   15  C   UNL     1     -44.648 -47.415   9.579  1.00  0.00     0.211 C 
ENDBRANCH   8  14
ENDBRANCH   1   7
BRANCH   4  16
HETATM   16  C   UNL     1     -40.565 -51.897  12.195  1.00  0.00     0.129 C 
BRANCH  16  17
HETATM   17  C   UNL     1     -41.623 -52.977  12.232  1.00  0.00     0.003 C 
HETATM   18  C   UNL     1     -42.934 -52.541  12.958  1.00  0.00     0.006 C 
HETATM   19  C   UNL     1     -43.069 -54.006  13.421  1.00  0.00     0.001 C 
HETATM   20  C   UNL     1     -41.529 -54.090  13.314  1.00  0.00     0.006 C 
ENDBRANCH  16  17
ENDBRANCH   4  16
TORSDOF 4
ENDMDL
MODEL 7
REMARK VINA RESULT:      -5.6      3.590      6.174
REMARK  4 active torsions:
REMARK  status: ('A' for Active; 'I' for Inactive)
REMARK    1  A    between atoms: O_2  and  C_3 
REMARK    2  A    between atoms: C_9  and  N_10 
REMARK       I    between atoms: N_10  and  C_11 
REMARK       I    between atoms: C_11  and  N_13 
REMARK    3  A    between atoms: N_13  and  C_14 
REMARK    4  A    between atoms: C_14  and  C_15 
ROOT
HETATM    1  N   UNL     1     -42.318 -52.585  11.806  1.00  0.00    -0.305 N 
HETATM    2  C   UNL     1     -41.793 -51.337  12.078  1.00  0.00     0.320 C 
HETATM    3  O   UNL     1     -42.139 -50.611  13.005  1.00  0.00    -0.247 OA
HETATM    4  N   UNL     1     -40.785 -50.937  11.217  1.00  0.00    -0.342 N 
HETATM    5  H   UNL     1     -42.156 -52.997  10.896  1.00  0.00     0.171 HD
HETATM    6  H   UNL     1     -40.770 -51.330  10.287  1.00  0.00     0.164 HD
ENDROOT
BRANCH   1   7
HETATM    7  C   UNL     1     -43.270 -53.251  12.633  1.00  0.00     0.087 A 
HETATM    8  C   UNL     1     -42.868 -54.156  13.623  1.00  0.00     0.169 A 
HETATM    9  N   UNL     1     -43.730 -54.851  14.411  1.00  0.00    -0.345 N 
HETATM   10  C   UNL     1     -45.047 -54.649  14.215  1.00  0.00     0.090 A 
ATOM     11  HN  UNL     1     -43.393 -55.500  15.122  1.00  0.00     0.167 HD
HETATM   12  C   UNL     1     -45.549 -53.766  13.283  1.00  0.00     0.019 A 
HETATM   13  C   UNL     1     -44.647 -53.053  12.495  1.00  0.00     0.035 A 
BRANCH   8  14
HETATM   14  O   UNL     1     -41.510 -54.368  13.807  1.00  0.00    -0.339 OA
HETATM   15  C   UNL     1     -41.029 -53.724  14.991  1.00  0.00     0.211 C 
ENDBRANCH   8  14
ENDBRANCH   1   7
BRANCH   4  16
HETATM   16  C   UNL     1     -40.216 -49.620  11.451  1.00  0.00     0.129 C 
BRANCH  16  17
HETATM   17  C   UNL     1     -38.904 -49.736  12.194  1.00  0.00     0.003 C 
HETATM   18  C   UNL     1     -37.702 -50.126  11.280  1.00  0.00     0.006 C 
HETATM   19  C   UNL     1     -37.129 -50.886  12.493  1.00  0.00     0.001 C 
HETATM   20  C   UNL     1     -38.590 -51.046  12.972  1.00  0.00     0.006 C 
ENDBRANCH  16  17
ENDBRANCH   4  16
TORSDOF 4
ENDMDL
MODEL 8
REMARK VINA RESULT:      -5.6      3.670      6.931
REMARK  4 active torsions:
REMARK  status: ('A' for Active; 'I' for Inactive)
REMARK    1  A    between atoms: O_2  and  C_3 
REMARK    2  A    between atoms: C_9  and  N_10 
REMARK       I    between atoms: N_10  and  C_11 
REMARK       I    between atoms: C_11  and  N_13 
REMARK    3  A    between atoms: N_13  and  C_14 
REMARK    4  A    between atoms: C_14  and  C_15 
ROOT
HETATM    1  N   UNL     1     -43.586 -52.431  12.115  1.00  0.00    -0.305 N 
HETATM    2  C   UNL     1     -42.607 -51.628  12.667  1.00  0.00     0.320 C 
HETATM    3  O   UNL     1     -42.455 -51.421  13.867  1.00  0.00    -0.247 OA
HETATM    4  N   UNL     1     -41.744 -51.057  11.746  1.00  0.00    -0.342 N 
HETATM    5  H   UNL     1     -43.790 -52.346  11.128  1.00  0.00     0.171 HD
HETATM    6  H   UNL     1     -42.080 -50.917  10.803  1.00  0.00     0.164 HD
ENDROOT
BRANCH   1   7
HETATM    7  C   UNL     1     -44.498 -53.218  12.877  1.00  0.00     0.087 A 
HETATM    8  C   UNL     1     -45.802 -52.777  13.137  1.00  0.00     0.169 A 
HETATM    9  N   UNL     1     -46.700 -53.463  13.891  1.00  0.00    -0.345 N 
HETATM   10  C   UNL     1     -46.298 -54.636  14.415  1.00  0.00     0.090 A 
ATOM     11  HN  UNL     1     -47.641 -53.103  14.053  1.00  0.00     0.167 HD
HETATM   12  C   UNL     1     -45.047 -55.174  14.204  1.00  0.00     0.019 A 
HETATM   13  C   UNL     1     -44.145 -54.459  13.416  1.00  0.00     0.035 A 
BRANCH   8  14
HETATM   14  O   UNL     1     -46.200 -51.559  12.605  1.00  0.00    -0.339 OA
HETATM   15  C   UNL     1     -47.087 -51.732  11.495  1.00  0.00     0.211 C 
ENDBRANCH   8  14
ENDBRANCH   1   7
BRANCH   4  16
HETATM   16  C   UNL     1     -40.710 -50.186  12.278  1.00  0.00     0.129 C 
BRANCH  16  17
HETATM   17  C   UNL     1     -39.353 -50.841  12.153  1.00  0.00     0.003 C 
HETATM   18  C   UNL     1     -38.716 -51.222  13.526  1.00  0.00     0.006 C 
HETATM   19  C   UNL     1     -37.347 -50.922  12.884  1.00  0.00     0.001 C 
HETATM   20  C   UNL     1     -38.097 -49.945  11.949  1.00  0.00     0.006 C 
ENDBRANCH  16  17
ENDBRANCH   4  16
TORSDOF 4
ENDMDL
MODEL 9
REMARK VINA RESULT:      -5.5      1.352      2.363
REMARK  4 active torsions:
REMARK  status: ('A' for Active; 'I' for Inactive)
REMARK    1  A    between atoms: O_2  and  C_3 
REMARK    2  A    between atoms: C_9  and  N_10 
REMARK       I    between atoms: N_10  and  C_11 
REMARK       I    between atoms: C_11  and  N_13 
REMARK    3  A    between atoms: N_13  and  C_14 
REMARK    4  A    between atoms: C_14  and  C_15 
ROOT
HETATM    1  N   UNL     1     -40.722 -49.637  10.706  1.00  0.00    -0.305 N 
HETATM    2  C   UNL     1     -41.543 -48.549  10.923  1.00  0.00     0.320 C 
HETATM    3  O   UNL     1     -42.143 -48.312  11.968  1.00  0.00    -0.247 OA
HETATM    4  N   UNL     1     -41.641 -47.678   9.851  1.00  0.00    -0.342 N 
HETATM    5  H   UNL     1     -40.474 -49.883   9.756  1.00  0.00     0.171 HD
HETATM    6  H   UNL     1     -41.476 -48.046   8.924  1.00  0.00     0.164 HD
ENDROOT
BRANCH   1   7
HETATM    7  C   UNL     1     -40.373 -50.589  11.709  1.00  0.00     0.087 A 
HETATM    8  C   UNL     1     -39.204 -50.454  12.468  1.00  0.00     0.169 A 
HETATM    9  N   UNL     1     -38.798 -51.351  13.405  1.00  0.00    -0.345 N 
HETATM   10  C   UNL     1     -39.577 -52.432  13.604  1.00  0.00     0.090 A 
ATOM     11  HN  UNL     1     -37.939 -51.211  13.936  1.00  0.00     0.167 HD
HETATM   12  C   UNL     1     -40.759 -52.651  12.928  1.00  0.00     0.019 A 
HETATM   13  C   UNL     1     -41.163 -51.711  11.981  1.00  0.00     0.035 A 
BRANCH   8  14
HETATM   14  O   UNL     1     -38.401 -49.346  12.243  1.00  0.00    -0.339 OA
HETATM   15  C   UNL     1     -37.903 -48.797  13.468  1.00  0.00     0.211 C 
ENDBRANCH   8  14
ENDBRANCH   1   7
BRANCH   4  16
HETATM   16  C   UNL     1     -42.512 -46.528  10.025  1.00  0.00     0.129 C 
BRANCH  16  17
HETATM   17  C   UNL     1     -43.718 -46.638   9.120  1.00  0.00     0.003 C 
HETATM   18  C   UNL     1     -44.895 -47.448   9.746  1.00  0.00     0.006 C 
HETATM   19  C   UNL     1     -45.223 -47.924   8.316  1.00  0.00     0.001 C 
HETATM   20  C   UNL     1     -43.725 -47.716   7.997  1.00  0.00     0.006 C 
ENDBRANCH  16  17
ENDBRANCH   4  16
TORSDOF 4
ENDMDL
