MODEL 1
REMARK VINA RESULT:      -4.6      0.000      0.000
REMARK  2 active torsions:
REMARK  status: ('A' for Active; 'I' for Inactive)
REMARK    1  A    between atoms: N_7  and  C_8 
REMARK    2  A    between atoms: C_8  and  C_9 
ROOT
HETATM    1  C   UNL     1     -46.607 -51.609  12.693  1.00  0.00     0.089 C 
HETATM    2  C   UNL     1     -46.241 -52.841  13.437  1.00  0.00     0.079 A 
HETATM    3  N   UNL     1     -47.006 -53.408  14.350  1.00  0.00    -0.355 N 
ATOM      4  HN  UNL     1     -47.905 -53.069  14.692  1.00  0.00     0.166 HD
HETATM    5  C   UNL     1     -46.354 -54.542  14.743  1.00  0.00     0.106 A 
HETATM    6  C   UNL     1     -45.153 -54.659  14.084  1.00  0.00     0.109 A 
HETATM    7  N   UNL     1     -45.087 -53.574  13.247  1.00  0.00    -0.344 N 
ENDROOT
BRANCH   7   8
HETATM    8  C   UNL     1     -44.065 -53.390  12.232  1.00  0.00     0.165 C 
BRANCH   8   9
HETATM    9  C   UNL     1     -42.800 -52.650  12.701  1.00  0.00     0.238 C 
HETATM   10  C   UNL     1     -43.031 -51.187  13.082  1.00  0.00     0.039 C 
HETATM   11  C   UNL     1     -41.864 -50.409  12.487  1.00  0.00     0.032 C 
HETATM   12  C   UNL     1     -40.917 -51.464  11.962  1.00  0.00     0.270 C 
HETATM   13  N   UNL     1     -41.804 -52.571  11.615  1.00  0.00     0.089 N 
HETATM   14  H   UNL     1     -41.272 -53.439  11.543  1.00  0.00     0.316 HD
ENDBRANCH   8   9
ENDBRANCH   7   8
TORSDOF 2
ENDMDL
MODEL 2
REMARK VINA RESULT:      -4.3      1.508      2.030
REMARK  2 active torsions:
REMARK  status: ('A' for Active; 'I' for Inactive)
REMARK    1  A    between atoms: N_7  and  C_8 
REMARK    2  A    between atoms: C_8  and  C_9 
ROOT
HETATM    1  C   UNL     1     -46.448 -51.501  13.189  1.00  0.00     0.089 C 
HETATM    2  C   UNL     1     -46.211 -52.894  13.644  1.00  0.00     0.079 A 
HETATM    3  N   UNL     1     -47.050 -53.577  14.399  1.00  0.00    -0.355 N 
ATOM      4  HN  UNL     1     -47.927 -53.242  14.798  1.00  0.00     0.166 HD
HETATM    5  C   UNL     1     -46.510 -54.824  14.537  1.00  0.00     0.106 A 
HETATM    6  C   UNL     1     -45.304 -54.900  13.883  1.00  0.00     0.109 A 
HETATM    7  N   UNL     1     -45.119 -53.668  13.309  1.00  0.00    -0.344 N 
ENDROOT
BRANCH   7   8
HETATM    8  C   UNL     1     -44.054 -53.358  12.372  1.00  0.00     0.165 C 
BRANCH   8   9
HETATM    9  C   UNL     1     -42.705 -52.985  13.013  1.00  0.00     0.238 C 
HETATM   10  C   UNL     1     -41.758 -54.168  13.220  1.00  0.00     0.039 C 
HETATM   11  C   UNL     1     -41.152 -53.983  14.606  1.00  0.00     0.032 C 
HETATM   12  C   UNL     1     -41.619 -52.617  15.058  1.00  0.00     0.270 C 
HETATM   13  N   UNL     1     -42.900 -52.455  14.376  1.00  0.00     0.089 N 
HETATM   14  H   UNL     1     -43.163 -51.469  14.352  1.00  0.00     0.316 HD
ENDBRANCH   8   9
ENDBRANCH   7   8
TORSDOF 2
ENDMDL
MODEL 3
REMARK VINA RESULT:      -4.2      6.349      7.252
REMARK  2 active torsions:
REMARK  status: ('A' for Active; 'I' for Inactive)
REMARK    1  A    between atoms: N_7  and  C_8 
REMARK    2  A    between atoms: C_8  and  C_9 
ROOT
HETATM    1  C   UNL     1     -40.117 -45.041  10.432  1.00  0.00     0.089 C 
HETATM    2  C   UNL     1     -40.995 -46.238  10.414  1.00  0.00     0.079 A 
HETATM    3  N   UNL     1     -42.062 -46.361   9.648  1.00  0.00    -0.355 N 
ATOM      4  HN  UNL     1     -42.446 -45.659   9.016  1.00  0.00     0.166 HD
HETATM    5  C   UNL     1     -42.549 -47.617   9.871  1.00  0.00     0.106 A 
HETATM    6  C   UNL     1     -41.788 -48.268  10.812  1.00  0.00     0.109 A 
HETATM    7  N   UNL     1     -40.793 -47.386  11.153  1.00  0.00    -0.344 N 
ENDROOT
BRANCH   7   8
HETATM    8  C   UNL     1     -39.656 -47.726  11.989  1.00  0.00     0.165 C 
BRANCH   8   9
HETATM    9  C   UNL     1     -39.209 -49.198  11.921  1.00  0.00     0.238 C 
HETATM   10  C   UNL     1     -38.857 -49.812  13.278  1.00  0.00     0.039 C 
HETATM   11  C   UNL     1     -37.585 -50.620  13.055  1.00  0.00     0.032 C 
HETATM   12  C   UNL     1     -37.365 -50.601  11.559  1.00  0.00     0.270 C 
HETATM   13  N   UNL     1     -37.960 -49.332  11.147  1.00  0.00     0.089 N 
HETATM   14  H   UNL     1     -38.150 -49.342  10.144  1.00  0.00     0.316 HD
ENDBRANCH   8   9
ENDBRANCH   7   8
TORSDOF 2
ENDMDL
MODEL 4
REMARK VINA RESULT:      -4.1      6.184      8.111
REMARK  2 active torsions:
REMARK  status: ('A' for Active; 'I' for Inactive)
REMARK    1  A    between atoms: N_7  and  C_8 
REMARK    2  A    between atoms: C_8  and  C_9 
ROOT
HETATM    1  C   UNL     1     -43.118 -48.204  11.803  1.00  0.00     0.089 C 
HETATM    2  C   UNL     1     -43.595 -47.531  10.568  1.00  0.00     0.079 A 
HETATM    3  N   UNL     1     -44.698 -47.864   9.925  1.00  0.00    -0.355 N 
ATOM      4  HN  UNL     1     -45.331 -48.631  10.151  1.00  0.00     0.166 HD
HETATM    5  C   UNL     1     -44.821 -46.975   8.895  1.00  0.00     0.106 A 
HETATM    6  C   UNL     1     -43.763 -46.099   8.887  1.00  0.00     0.109 A 
HETATM    7  N   UNL     1     -42.984 -46.454   9.960  1.00  0.00    -0.344 N 
ENDROOT
BRANCH   7   8
HETATM    8  C   UNL     1     -41.851 -45.680  10.433  1.00  0.00     0.165 C 
BRANCH   8   9
HETATM    9  C   UNL     1     -42.202 -44.321  11.065  1.00  0.00     0.238 C 
HETATM   10  C   UNL     1     -40.993 -43.431  11.358  1.00  0.00     0.039 C 
HETATM   11  C   UNL     1     -41.238 -42.830  12.736  1.00  0.00     0.032 C 
HETATM   12  C   UNL     1     -42.650 -43.237  13.095  1.00  0.00     0.270 C 
HETATM   13  N   UNL     1     -42.826 -44.504  12.390  1.00  0.00     0.089 N 
HETATM   14  H   UNL     1     -43.819 -44.720  12.300  1.00  0.00     0.316 HD
ENDBRANCH   8   9
ENDBRANCH   7   8
TORSDOF 2
ENDMDL
MODEL 5
REMARK VINA RESULT:      -4.1      1.666      2.371
REMARK  2 active torsions:
REMARK  status: ('A' for Active; 'I' for Inactive)
REMARK    1  A    between atoms: N_7  and  C_8 
REMARK    2  A    between atoms: C_8  and  C_9 
ROOT
HETATM    1  C   UNL     1     -45.560 -55.299  13.786  1.00  0.00     0.089 C 
HETATM    2  C   UNL     1     -45.766 -53.835  13.652  1.00  0.00     0.079 A 
HETATM    3  N   UNL     1     -46.755 -53.173  14.221  1.00  0.00    -0.355 N 
ATOM      4  HN  UNL     1     -47.515 -53.565  14.777  1.00  0.00     0.166 HD
HETATM    5  C   UNL     1     -46.556 -51.856  13.918  1.00  0.00     0.106 A 
HETATM    6  C   UNL     1     -45.445 -51.708  13.124  1.00  0.00     0.109 A 
HETATM    7  N   UNL     1     -44.940 -52.973  12.960  1.00  0.00    -0.344 N 
ENDROOT
BRANCH   7   8
HETATM    8  C   UNL     1     -43.663 -53.265  12.334  1.00  0.00     0.165 C 
BRANCH   8   9
HETATM    9  C   UNL     1     -42.576 -53.804  13.281  1.00  0.00     0.238 C 
HETATM   10  C   UNL     1     -42.095 -52.795  14.326  1.00  0.00     0.039 C 
HETATM   11  C   UNL     1     -40.579 -52.936  14.379  1.00  0.00     0.032 C 
HETATM   12  C   UNL     1     -40.267 -54.138  13.516  1.00  0.00     0.270 C 
HETATM   13  N   UNL     1     -41.348 -54.139  12.534  1.00  0.00     0.089 N 
HETATM   14  H   UNL     1     -41.425 -55.058  12.097  1.00  0.00     0.316 HD
ENDBRANCH   8   9
ENDBRANCH   7   8
TORSDOF 2
ENDMDL
MODEL 6
REMARK VINA RESULT:      -4.1      2.231      4.532
REMARK  2 active torsions:
REMARK  status: ('A' for Active; 'I' for Inactive)
REMARK    1  A    between atoms: N_7  and  C_8 
REMARK    2  A    between atoms: C_8  and  C_9 
ROOT
HETATM    1  C   UNL     1     -42.844 -54.862  15.954  1.00  0.00     0.089 C 
HETATM    2  C   UNL     1     -42.008 -54.423  14.809  1.00  0.00     0.079 A 
HETATM    3  N   UNL     1     -40.689 -54.431  14.810  1.00  0.00    -0.355 N 
ATOM      4  HN  UNL     1     -40.079 -54.688  15.587  1.00  0.00     0.166 HD
HETATM    5  C   UNL     1     -40.304 -54.026  13.564  1.00  0.00     0.106 A 
HETATM    6  C   UNL     1     -41.402 -53.735  12.792  1.00  0.00     0.109 A 
HETATM    7  N   UNL     1     -42.489 -53.995  13.588  1.00  0.00    -0.344 N 
ENDROOT
BRANCH   7   8
HETATM    8  C   UNL     1     -43.862 -53.993  13.116  1.00  0.00     0.165 C 
BRANCH   8   9
HETATM    9  C   UNL     1     -44.559 -52.621  13.129  1.00  0.00     0.238 C 
HETATM   10  C   UNL     1     -45.315 -52.311  14.423  1.00  0.00     0.039 C 
HETATM   11  C   UNL     1     -46.637 -51.686  13.996  1.00  0.00     0.032 C 
HETATM   12  C   UNL     1     -46.511 -51.483  12.503  1.00  0.00     0.270 C 
HETATM   13  N   UNL     1     -45.606 -52.553  12.092  1.00  0.00     0.089 N 
HETATM   14  H   UNL     1     -45.203 -52.342  11.178  1.00  0.00     0.316 HD
ENDBRANCH   8   9
ENDBRANCH   7   8
TORSDOF 2
ENDMDL
MODEL 7
REMARK VINA RESULT:      -4.0      1.769      4.690
REMARK  2 active torsions:
REMARK  status: ('A' for Active; 'I' for Inactive)
REMARK    1  A    between atoms: N_7  and  C_8 
REMARK    2  A    between atoms: C_8  and  C_9 
ROOT
HETATM    1  C   UNL     1     -42.781 -55.284  15.423  1.00  0.00     0.089 C 
HETATM    2  C   UNL     1     -42.882 -54.353  14.271  1.00  0.00     0.079 A 
HETATM    3  N   UNL     1     -41.854 -53.718  13.741  1.00  0.00    -0.355 N 
ATOM      4  HN  UNL     1     -40.887 -53.742  14.065  1.00  0.00     0.166 HD
HETATM    5  C   UNL     1     -42.345 -53.024  12.673  1.00  0.00     0.106 A 
HETATM    6  C   UNL     1     -43.701 -53.209  12.561  1.00  0.00     0.109 A 
HETATM    7  N   UNL     1     -44.041 -54.063  13.580  1.00  0.00    -0.344 N 
ENDROOT
BRANCH   7   8
HETATM    8  C   UNL     1     -45.351 -54.670  13.731  1.00  0.00     0.165 C 
BRANCH   8   9
HETATM    9  C   UNL     1     -46.391 -53.809  14.469  1.00  0.00     0.238 C 
HETATM   10  C   UNL     1     -46.656 -52.448  13.821  1.00  0.00     0.039 C 
HETATM   11  C   UNL     1     -46.717 -51.443  14.965  1.00  0.00     0.032 C 
HETATM   12  C   UNL     1     -46.680 -52.280  16.224  1.00  0.00     0.270 C 
HETATM   13  N   UNL     1     -45.918 -53.460  15.823  1.00  0.00     0.089 N 
HETATM   14  H   UNL     1     -46.086 -54.225  16.477  1.00  0.00     0.316 HD
ENDBRANCH   8   9
ENDBRANCH   7   8
TORSDOF 2
ENDMDL
MODEL 8
REMARK VINA RESULT:      -4.0      1.855      2.680
REMARK  2 active torsions:
REMARK  status: ('A' for Active; 'I' for Inactive)
REMARK    1  A    between atoms: N_7  and  C_8 
REMARK    2  A    between atoms: C_8  and  C_9 
ROOT
HETATM    1  C   UNL     1     -44.151 -50.531  14.285  1.00  0.00     0.089 C 
HETATM    2  C   UNL     1     -45.324 -51.373  14.627  1.00  0.00     0.079 A 
HETATM    3  N   UNL     1     -46.138 -51.130  15.637  1.00  0.00    -0.355 N 
ATOM      4  HN  UNL     1     -46.054 -50.383  16.326  1.00  0.00     0.166 HD
HETATM    5  C   UNL     1     -47.117 -52.081  15.574  1.00  0.00     0.106 A 
HETATM    6  C   UNL     1     -46.886 -52.940  14.527  1.00  0.00     0.109 A 
HETATM    7  N   UNL     1     -45.743 -52.482  13.922  1.00  0.00    -0.344 N 
ENDROOT
BRANCH   7   8
HETATM    8  C   UNL     1     -45.230 -52.990  12.662  1.00  0.00     0.165 C 
BRANCH   8   9
HETATM    9  C   UNL     1     -44.045 -53.964  12.781  1.00  0.00     0.238 C 
HETATM   10  C   UNL     1     -43.805 -54.494  14.196  1.00  0.00     0.039 C 
HETATM   11  C   UNL     1     -42.297 -54.453  14.409  1.00  0.00     0.032 C 
HETATM   12  C   UNL     1     -41.720 -54.091  13.059  1.00  0.00     0.270 C 
HETATM   13  N   UNL     1     -42.776 -53.290  12.445  1.00  0.00     0.089 N 
HETATM   14  H   UNL     1     -42.641 -53.247  11.434  1.00  0.00     0.316 HD
ENDBRANCH   8   9
ENDBRANCH   7   8
TORSDOF 2
ENDMDL
MODEL 9
REMARK VINA RESULT:      -3.9      6.185      8.381
REMARK  2 active torsions:
REMARK  status: ('A' for Active; 'I' for Inactive)
REMARK    1  A    between atoms: N_7  and  C_8 
REMARK    2  A    between atoms: C_8  and  C_9 
ROOT
HETATM    1  C   UNL     1     -43.311 -46.808   9.178  1.00  0.00     0.089 C 
HETATM    2  C   UNL     1     -42.319 -47.380  10.123  1.00  0.00     0.079 A 
HETATM    3  N   UNL     1     -42.341 -48.628  10.552  1.00  0.00    -0.355 N 
ATOM      4  HN  UNL     1     -43.043 -49.336  10.339  1.00  0.00     0.166 HD
HETATM    5  C   UNL     1     -41.235 -48.780  11.339  1.00  0.00     0.106 A 
HETATM    6  C   UNL     1     -40.537 -47.599  11.420  1.00  0.00     0.109 A 
HETATM    7  N   UNL     1     -41.229 -46.709  10.638  1.00  0.00    -0.344 N 
ENDROOT
BRANCH   7   8
HETATM    8  C   UNL     1     -40.747 -45.383  10.294  1.00  0.00     0.165 C 
BRANCH   8   9
HETATM    9  C   UNL     1     -41.141 -44.267  11.278  1.00  0.00     0.238 C 
HETATM   10  C   UNL     1     -42.609 -43.844  11.196  1.00  0.00     0.039 C 
HETATM   11  C   UNL     1     -42.612 -42.322  11.271  1.00  0.00     0.032 C 
HETATM   12  C   UNL     1     -41.182 -41.943  11.585  1.00  0.00     0.270 C 
HETATM   13  N   UNL     1     -40.406 -43.022  10.981  1.00  0.00     0.089 N 
HETATM   14  H   UNL     1     -39.467 -43.047  11.382  1.00  0.00     0.316 HD
ENDBRANCH   8   9
ENDBRANCH   7   8
TORSDOF 2
ENDMDL
