MODEL 1
REMARK VINA RESULT:      -5.9      0.000      0.000
REMARK  7 active torsions:
REMARK  status: ('A' for Active; 'I' for Inactive)
REMARK    1  A    between atoms: C_7  and  S_8 
REMARK    2  A    between atoms: S_8  and  C_9 
REMARK    3  A    between atoms: C_9  and  C_10 
REMARK    4  A    between atoms: C_9  and  C_14 
REMARK    5  A    between atoms: C_10  and  N_11 
REMARK    6  A    between atoms: N_20  and  C_21 
REMARK    7  A    between atoms: C_21  and  C_22 
REMARK       I    between atoms: C_22  and  N_24 
ROOT
HETATM    1  C   UNL     1     -37.971 -50.009  11.310  1.00  0.00     0.091 C 
HETATM    2  C   UNL     1     -39.415 -50.142  11.635  1.00  0.00     0.096 A 
HETATM    3  N   UNL     1     -40.404 -50.055  10.770  1.00  0.00    -0.287 N 
ATOM      4  HN  UNL     1     -40.310 -49.832   9.779  1.00  0.00     0.188 HD
HETATM    5  N   UNL     1     -41.581 -50.315  11.424  1.00  0.00    -0.278 N 
ATOM      6  HN  UNL     1     -42.512 -50.319  11.005  1.00  0.00     0.189 HD
HETATM    7  C   UNL     1     -41.300 -50.557  12.681  1.00  0.00     0.164 A 
HETATM    8  N   UNL     1     -39.946 -50.398  12.887  1.00  0.00    -0.306 N 
ENDROOT
BRANCH   7   9
HETATM    9  S   UNL     1     -42.471 -50.950  13.894  1.00  0.00    -0.074 SA
BRANCH   9  10
HETATM   10  C   UNL     1     -43.053 -52.694  13.385  1.00  0.00     0.147 C 
BRANCH  10  11
HETATM   11  C   UNL     1     -41.845 -53.406  12.798  1.00  0.00    -0.061 C 
BRANCH  11  12
HETATM   12  N   UNL     1     -40.843 -53.997  12.311  1.00  0.00    -0.369 N 
ATOM     13  HN2 UNL     1     -41.658 -53.544  12.723  1.00  0.00     0.165 HD
ATOM     14  HN1 UNL     1     -40.033 -54.474  11.916  1.00  0.00     0.165 HD
ENDBRANCH  11  12
ENDBRANCH  10  11
BRANCH  10  15
HETATM   15  C   UNL     1     -43.511 -53.481  14.664  1.00  0.00     0.012 C 
HETATM   16  C   UNL     1     -43.941 -54.944  14.382  1.00  0.00     0.007 C 
HETATM   17  C   UNL     1     -45.339 -55.082  13.782  1.00  0.00     0.000 C 
HETATM   18  C   UNL     1     -46.390 -54.346  14.604  1.00  0.00     0.000 C 
HETATM   19  C   UNL     1     -45.996 -52.893  14.838  1.00  0.00     0.000 C 
HETATM   20  C   UNL     1     -44.620 -52.794  15.489  1.00  0.00     0.007 C 
ENDBRANCH  10  15
ENDBRANCH   9  10
ENDBRANCH   7   9
BRANCH   8  21
HETATM   21  C   UNL     1     -39.179 -50.578  14.107  1.00  0.00     0.235 C 
BRANCH  21  22
HETATM   22  C   UNL     1     -38.852 -52.007  14.503  1.00  0.00     0.233 C 
HETATM   23  O   UNL     1     -38.445 -52.819  13.672  1.00  0.00    -0.272 OA
HETATM   24  N   UNL     1     -38.982 -52.406  15.793  1.00  0.00    -0.369 N 
HETATM   25  H   UNL     1     -39.398 -51.846  16.528  1.00  0.00     0.159 HD
HETATM   26  H   UNL     1     -38.771 -53.380  15.998  1.00  0.00     0.159 HD
ENDBRANCH  21  22
ENDBRANCH   8  21
TORSDOF 7
ENDMDL
MODEL 2
REMARK VINA RESULT:      -5.8      2.110      5.814
REMARK  7 active torsions:
REMARK  status: ('A' for Active; 'I' for Inactive)
REMARK    1  A    between atoms: C_7  and  S_8 
REMARK    2  A    between atoms: S_8  and  C_9 
REMARK    3  A    between atoms: C_9  and  C_10 
REMARK    4  A    between atoms: C_9  and  C_14 
REMARK    5  A    between atoms: C_10  and  N_11 
REMARK    6  A    between atoms: N_20  and  C_21 
REMARK    7  A    between atoms: C_21  and  C_22 
REMARK       I    between atoms: C_22  and  N_24 
ROOT
HETATM    1  C   UNL     1     -44.434 -54.044  13.100  1.00  0.00     0.091 C 
HETATM    2  C   UNL     1     -44.074 -52.608  12.975  1.00  0.00     0.096 A 
HETATM    3  N   UNL     1     -44.870 -51.656  12.536  1.00  0.00    -0.287 N 
ATOM      4  HN  UNL     1     -45.814 -51.789  12.174  1.00  0.00     0.188 HD
HETATM    5  N   UNL     1     -44.218 -50.454  12.646  1.00  0.00    -0.278 N 
ATOM      6  HN  UNL     1     -44.591 -49.542  12.382  1.00  0.00     0.189 HD
HETATM    7  C   UNL     1     -43.030 -50.684  13.151  1.00  0.00     0.164 A 
HETATM    8  N   UNL     1     -42.858 -52.041  13.320  1.00  0.00    -0.306 N 
ENDROOT
BRANCH   7   9
HETATM    9  S   UNL     1     -41.848 -49.464  13.486  1.00  0.00    -0.074 SA
BRANCH   9  10
HETATM   10  C   UNL     1     -40.624 -49.637  12.033  1.00  0.00     0.147 C 
BRANCH  10  11
HETATM   11  C   UNL     1     -41.239 -48.907  10.851  1.00  0.00    -0.061 C 
BRANCH  11  12
HETATM   12  N   UNL     1     -41.750 -48.301   9.870  1.00  0.00    -0.369 N 
ATOM     13  HN2 UNL     1     -41.317 -48.804  10.643  1.00  0.00     0.165 HD
ATOM     14  HN1 UNL     1     -42.164 -47.812   9.076  1.00  0.00     0.165 HD
ENDBRANCH  11  12
ENDBRANCH  10  11
BRANCH  10  15
HETATM   15  C   UNL     1     -39.277 -48.921  12.404  1.00  0.00     0.012 C 
HETATM   16  C   UNL     1     -38.044 -49.462  11.633  1.00  0.00     0.007 C 
HETATM   17  C   UNL     1     -37.501 -50.786  12.168  1.00  0.00     0.000 C 
HETATM   18  C   UNL     1     -37.234 -50.730  13.667  1.00  0.00     0.000 C 
HETATM   19  C   UNL     1     -38.461 -50.251  14.433  1.00  0.00     0.000 C 
HETATM   20  C   UNL     1     -38.942 -48.901  13.910  1.00  0.00     0.007 C 
ENDBRANCH  10  15
ENDBRANCH   9  10
ENDBRANCH   7   9
BRANCH   8  21
HETATM   21  C   UNL     1     -41.718 -52.759  13.862  1.00  0.00     0.235 C 
BRANCH  21  22
HETATM   22  C   UNL     1     -40.646 -53.183  12.874  1.00  0.00     0.233 C 
HETATM   23  O   UNL     1     -39.520 -53.501  13.257  1.00  0.00    -0.272 OA
HETATM   24  N   UNL     1     -40.924 -53.241  11.547  1.00  0.00    -0.369 N 
HETATM   25  H   UNL     1     -41.783 -52.910  11.126  1.00  0.00     0.159 HD
HETATM   26  H   UNL     1     -40.162 -53.509  10.928  1.00  0.00     0.159 HD
ENDBRANCH  21  22
ENDBRANCH   8  21
TORSDOF 7
ENDMDL
MODEL 3
REMARK VINA RESULT:      -5.7      2.976      6.548
REMARK  7 active torsions:
REMARK  status: ('A' for Active; 'I' for Inactive)
REMARK    1  A    between atoms: C_7  and  S_8 
REMARK    2  A    between atoms: S_8  and  C_9 
REMARK    3  A    between atoms: C_9  and  C_10 
REMARK    4  A    between atoms: C_9  and  C_14 
REMARK    5  A    between atoms: C_10  and  N_11 
REMARK    6  A    between atoms: N_20  and  C_21 
REMARK    7  A    between atoms: C_21  and  C_22 
REMARK       I    between atoms: C_22  and  N_24 
ROOT
HETATM    1  C   UNL     1     -45.199 -54.812  13.667  1.00  0.00     0.091 C 
HETATM    2  C   UNL     1     -44.271 -53.750  13.201  1.00  0.00     0.096 A 
HETATM    3  N   UNL     1     -43.449 -53.849  12.176  1.00  0.00    -0.287 N 
ATOM      4  HN  UNL     1     -43.305 -54.683  11.608  1.00  0.00     0.188 HD
HETATM    5  N   UNL     1     -42.820 -52.643  12.002  1.00  0.00    -0.278 N 
ATOM      6  HN  UNL     1     -42.129 -52.424  11.284  1.00  0.00     0.189 HD
HETATM    7  C   UNL     1     -43.262 -51.820  12.921  1.00  0.00     0.164 A 
HETATM    8  N   UNL     1     -44.138 -52.487  13.751  1.00  0.00    -0.306 N 
ENDROOT
BRANCH   7   9
HETATM    9  S   UNL     1     -42.762 -50.171  13.091  1.00  0.00    -0.074 SA
BRANCH   9  10
HETATM   10  C   UNL     1     -41.140 -50.105  12.088  1.00  0.00     0.147 C 
BRANCH  10  11
HETATM   11  C   UNL     1     -41.381 -49.156  10.926  1.00  0.00    -0.061 C 
BRANCH  11  12
HETATM   12  N   UNL     1     -41.581 -48.367   9.962  1.00  0.00    -0.369 N 
ATOM     13  HN2 UNL     1     -41.392 -48.991  10.746  1.00  0.00     0.165 HD
ATOM     14  HN1 UNL     1     -41.743 -47.730   9.183  1.00  0.00     0.165 HD
ENDBRANCH  11  12
ENDBRANCH  10  11
BRANCH  10  15
HETATM   15  C   UNL     1     -40.002 -49.503  12.985  1.00  0.00     0.012 C 
HETATM   16  C   UNL     1     -38.798 -48.944  12.182  1.00  0.00     0.007 C 
HETATM   17  C   UNL     1     -37.839 -50.015  11.664  1.00  0.00     0.000 C 
HETATM   18  C   UNL     1     -37.377 -50.953  12.772  1.00  0.00     0.000 C 
HETATM   19  C   UNL     1     -38.559 -51.546  13.529  1.00  0.00     0.000 C 
HETATM   20  C   UNL     1     -39.465 -50.449  14.080  1.00  0.00     0.007 C 
ENDBRANCH  10  15
ENDBRANCH   9  10
ENDBRANCH   7   9
BRANCH   8  21
HETATM   21  C   UNL     1     -44.886 -51.981  14.889  1.00  0.00     0.235 C 
BRANCH  21  22
HETATM   22  C   UNL     1     -46.311 -51.529  14.624  1.00  0.00     0.233 C 
HETATM   23  O   UNL     1     -46.699 -51.296  13.479  1.00  0.00    -0.272 OA
HETATM   24  N   UNL     1     -47.189 -51.398  15.649  1.00  0.00    -0.369 N 
HETATM   25  H   UNL     1     -46.942 -51.472  16.629  1.00  0.00     0.159 HD
HETATM   26  H   UNL     1     -48.124 -51.070  15.417  1.00  0.00     0.159 HD
ENDBRANCH  21  22
ENDBRANCH   8  21
TORSDOF 7
ENDMDL
MODEL 4
REMARK VINA RESULT:      -5.7      1.879      2.700
REMARK  7 active torsions:
REMARK  status: ('A' for Active; 'I' for Inactive)
REMARK    1  A    between atoms: C_7  and  S_8 
REMARK    2  A    between atoms: S_8  and  C_9 
REMARK    3  A    between atoms: C_9  and  C_10 
REMARK    4  A    between atoms: C_9  and  C_14 
REMARK    5  A    between atoms: C_10  and  N_11 
REMARK    6  A    between atoms: N_20  and  C_21 
REMARK    7  A    between atoms: C_21  and  C_22 
REMARK       I    between atoms: C_22  and  N_24 
ROOT
HETATM    1  C   UNL     1     -37.955 -50.790  13.435  1.00  0.00     0.091 C 
HETATM    2  C   UNL     1     -39.232 -51.173  12.778  1.00  0.00     0.096 A 
HETATM    3  N   UNL     1     -39.627 -50.779  11.586  1.00  0.00    -0.287 N 
ATOM      4  HN  UNL     1     -39.135 -50.118  10.985  1.00  0.00     0.188 HD
HETATM    5  N   UNL     1     -40.810 -51.405  11.287  1.00  0.00    -0.278 N 
ATOM      6  HN  UNL     1     -41.349 -51.292  10.428  1.00  0.00     0.189 HD
HETATM    7  C   UNL     1     -41.126 -52.175  12.300  1.00  0.00     0.164 A 
HETATM    8  N   UNL     1     -40.193 -52.020  13.303  1.00  0.00    -0.306 N 
ENDROOT
BRANCH   7   9
HETATM    9  S   UNL     1     -42.537 -53.176  12.373  1.00  0.00    -0.074 SA
BRANCH   9  10
HETATM   10  C   UNL     1     -43.763 -52.122  13.385  1.00  0.00     0.147 C 
BRANCH  10  11
HETATM   11  C   UNL     1     -43.581 -50.682  12.934  1.00  0.00    -0.061 C 
BRANCH  11  12
HETATM   12  N   UNL     1     -43.430 -49.488  12.559  1.00  0.00    -0.369 N 
ATOM     13  HN2 UNL     1     -43.521 -50.455  12.869  1.00  0.00     0.165 HD
ATOM     14  HN1 UNL     1     -43.308 -48.522  12.256  1.00  0.00     0.165 HD
ENDBRANCH  11  12
ENDBRANCH  10  11
BRANCH  10  15
HETATM   15  C   UNL     1     -45.230 -52.562  13.040  1.00  0.00     0.012 C 
HETATM   16  C   UNL     1     -46.297 -51.473  13.329  1.00  0.00     0.007 C 
HETATM   17  C   UNL     1     -46.672 -51.339  14.804  1.00  0.00     0.000 C 
HETATM   18  C   UNL     1     -47.067 -52.676  15.418  1.00  0.00     0.000 C 
HETATM   19  C   UNL     1     -45.996 -53.734  15.183  1.00  0.00     0.000 C 
HETATM   20  C   UNL     1     -45.687 -53.882  13.696  1.00  0.00     0.007 C 
ENDBRANCH  10  15
ENDBRANCH   9  10
ENDBRANCH   7   9
BRANCH   8  21
HETATM   21  C   UNL     1     -40.121 -52.678  14.596  1.00  0.00     0.235 C 
BRANCH  21  22
HETATM   22  C   UNL     1     -39.763 -54.154  14.591  1.00  0.00     0.233 C 
HETATM   23  O   UNL     1     -40.302 -54.940  15.370  1.00  0.00    -0.272 OA
HETATM   24  N   UNL     1     -38.855 -54.634  13.705  1.00  0.00    -0.369 N 
HETATM   25  H   UNL     1     -38.289 -54.058  13.094  1.00  0.00     0.159 HD
HETATM   26  H   UNL     1     -38.636 -55.626  13.762  1.00  0.00     0.159 HD
ENDBRANCH  21  22
ENDBRANCH   8  21
TORSDOF 7
ENDMDL
MODEL 5
REMARK VINA RESULT:      -5.5      2.554      3.620
REMARK  7 active torsions:
REMARK  status: ('A' for Active; 'I' for Inactive)
REMARK    1  A    between atoms: C_7  and  S_8 
REMARK    2  A    between atoms: S_8  and  C_9 
REMARK    3  A    between atoms: C_9  and  C_10 
REMARK    4  A    between atoms: C_9  and  C_14 
REMARK    5  A    between atoms: C_10  and  N_11 
REMARK    6  A    between atoms: N_20  and  C_21 
REMARK    7  A    between atoms: C_21  and  C_22 
REMARK       I    between atoms: C_22  and  N_24 
ROOT
HETATM    1  C   UNL     1     -39.531 -51.619  13.071  1.00  0.00     0.091 C 
HETATM    2  C   UNL     1     -40.879 -52.103  12.677  1.00  0.00     0.096 A 
HETATM    3  N   UNL     1     -41.350 -52.139  11.448  1.00  0.00    -0.287 N 
ATOM      4  HN  UNL     1     -40.872 -51.788  10.618  1.00  0.00     0.188 HD
HETATM    5  N   UNL     1     -42.589 -52.726  11.470  1.00  0.00    -0.278 N 
ATOM      6  HN  UNL     1     -43.191 -52.888  10.663  1.00  0.00     0.189 HD
HETATM    7  C   UNL     1     -42.863 -53.042  12.712  1.00  0.00     0.164 A 
HETATM    8  N   UNL     1     -41.841 -52.613  13.532  1.00  0.00    -0.306 N 
ENDROOT
BRANCH   7   9
HETATM    9  S   UNL     1     -44.320 -53.822  13.232  1.00  0.00    -0.074 SA
BRANCH   9  10
HETATM   10  C   UNL     1     -45.451 -52.358  13.699  1.00  0.00     0.147 C 
BRANCH  10  11
HETATM   11  C   UNL     1     -46.253 -52.010  12.457  1.00  0.00    -0.061 C 
BRANCH  11  12
HETATM   12  N   UNL     1     -46.920 -51.721  11.426  1.00  0.00    -0.369 N 
ATOM     13  HN2 UNL     1     -46.366 -51.977  12.243  1.00  0.00     0.165 HD
ATOM     14  HN1 UNL     1     -47.459 -51.487  10.592  1.00  0.00     0.165 HD
ENDBRANCH  11  12
ENDBRANCH  10  11
BRANCH  10  15
HETATM   15  C   UNL     1     -46.453 -52.815  14.818  1.00  0.00     0.012 C 
HETATM   16  C   UNL     1     -47.202 -51.645  15.507  1.00  0.00     0.007 C 
HETATM   17  C   UNL     1     -46.370 -50.893  16.545  1.00  0.00     0.000 C 
HETATM   18  C   UNL     1     -45.749 -51.833  17.571  1.00  0.00     0.000 C 
HETATM   19  C   UNL     1     -44.967 -52.953  16.897  1.00  0.00     0.000 C 
HETATM   20  C   UNL     1     -45.843 -53.719  15.910  1.00  0.00     0.007 C 
ENDBRANCH  10  15
ENDBRANCH   9  10
ENDBRANCH   7   9
BRANCH   8  21
HETATM   21  C   UNL     1     -41.699 -52.758  14.970  1.00  0.00     0.235 C 
BRANCH  21  22
HETATM   22  C   UNL     1     -41.270 -54.123  15.480  1.00  0.00     0.233 C 
HETATM   23  O   UNL     1     -42.002 -54.783  16.217  1.00  0.00    -0.272 OA
HETATM   24  N   UNL     1     -40.075 -54.647  15.107  1.00  0.00    -0.369 N 
HETATM   25  H   UNL     1     -39.366 -54.145  14.587  1.00  0.00     0.159 HD
HETATM   26  H   UNL     1     -39.829 -55.554  15.497  1.00  0.00     0.159 HD
ENDBRANCH  21  22
ENDBRANCH   8  21
TORSDOF 7
ENDMDL
MODEL 6
REMARK VINA RESULT:      -5.5      4.247      5.903
REMARK  7 active torsions:
REMARK  status: ('A' for Active; 'I' for Inactive)
REMARK    1  A    between atoms: C_7  and  S_8 
REMARK    2  A    between atoms: S_8  and  C_9 
REMARK    3  A    between atoms: C_9  and  C_10 
REMARK    4  A    between atoms: C_9  and  C_14 
REMARK    5  A    between atoms: C_10  and  N_11 
REMARK    6  A    between atoms: N_20  and  C_21 
REMARK    7  A    between atoms: C_21  and  C_22 
REMARK       I    between atoms: C_22  and  N_24 
ROOT
HETATM    1  C   UNL     1     -43.811 -45.585   8.966  1.00  0.00     0.091 C 
HETATM    2  C   UNL     1     -42.903 -46.613   9.537  1.00  0.00     0.096 A 
HETATM    3  N   UNL     1     -42.829 -47.869   9.146  1.00  0.00    -0.287 N 
ATOM      4  HN  UNL     1     -43.421 -48.309   8.443  1.00  0.00     0.188 HD
HETATM    5  N   UNL     1     -41.821 -48.485   9.844  1.00  0.00    -0.278 N 
ATOM      6  HN  UNL     1     -41.535 -49.460   9.749  1.00  0.00     0.189 HD
HETATM    7  C   UNL     1     -41.291 -47.601  10.654  1.00  0.00     0.164 A 
HETATM    8  N   UNL     1     -41.979 -46.412  10.548  1.00  0.00    -0.306 N 
ENDROOT
BRANCH   7   9
HETATM    9  S   UNL     1     -39.971 -47.917  11.729  1.00  0.00    -0.074 SA
BRANCH   9  10
HETATM   10  C   UNL     1     -39.783 -49.814  11.638  1.00  0.00     0.147 C 
BRANCH  10  11
HETATM   11  C   UNL     1     -38.318 -50.096  11.351  1.00  0.00    -0.061 C 
BRANCH  11  12
HETATM   12  N   UNL     1     -37.101 -50.329  11.113  1.00  0.00    -0.369 N 
ATOM     13  HN2 UNL     1     -38.084 -50.117  11.286  1.00  0.00     0.165 HD
ATOM     14  HN1 UNL     1     -36.118 -50.518  10.921  1.00  0.00     0.165 HD
ENDBRANCH  11  12
ENDBRANCH  10  11
BRANCH  10  15
HETATM   15  C   UNL     1     -40.138 -50.436  13.035  1.00  0.00     0.012 C 
HETATM   16  C   UNL     1     -40.036 -51.983  13.078  1.00  0.00     0.007 C 
HETATM   17  C   UNL     1     -41.222 -52.707  12.442  1.00  0.00     0.000 C 
HETATM   18  C   UNL     1     -42.554 -52.225  13.003  1.00  0.00     0.000 C 
HETATM   19  C   UNL     1     -42.680 -50.709  12.913  1.00  0.00     0.000 C 
HETATM   20  C   UNL     1     -41.509 -50.018  13.606  1.00  0.00     0.007 C 
ENDBRANCH  10  15
ENDBRANCH   9  10
ENDBRANCH   7   9
BRANCH   8  21
HETATM   21  C   UNL     1     -41.742 -45.153  11.233  1.00  0.00     0.235 C 
BRANCH  21  22
HETATM   22  C   UNL     1     -40.656 -44.259  10.661  1.00  0.00     0.233 C 
HETATM   23  O   UNL     1     -39.932 -44.647   9.744  1.00  0.00    -0.272 OA
HETATM   24  N   UNL     1     -40.483 -43.001  11.140  1.00  0.00    -0.369 N 
HETATM   25  H   UNL     1     -40.959 -42.626  11.951  1.00  0.00     0.159 HD
HETATM   26  H   UNL     1     -39.726 -42.454  10.736  1.00  0.00     0.159 HD
ENDBRANCH  21  22
ENDBRANCH   8  21
TORSDOF 7
ENDMDL
MODEL 7
REMARK VINA RESULT:      -5.4      2.202      2.975
REMARK  7 active torsions:
REMARK  status: ('A' for Active; 'I' for Inactive)
REMARK    1  A    between atoms: C_7  and  S_8 
REMARK    2  A    between atoms: S_8  and  C_9 
REMARK    3  A    between atoms: C_9  and  C_10 
REMARK    4  A    between atoms: C_9  and  C_14 
REMARK    5  A    between atoms: C_10  and  N_11 
REMARK    6  A    between atoms: N_20  and  C_21 
REMARK    7  A    between atoms: C_21  and  C_22 
REMARK       I    between atoms: C_22  and  N_24 
ROOT
HETATM    1  C   UNL     1     -39.794 -47.507  11.729  1.00  0.00     0.091 C 
HETATM    2  C   UNL     1     -40.495 -48.817  11.778  1.00  0.00     0.096 A 
HETATM    3  N   UNL     1     -41.718 -49.045  11.346  1.00  0.00    -0.287 N 
ATOM      4  HN  UNL     1     -42.358 -48.345  10.973  1.00  0.00     0.188 HD
HETATM    5  N   UNL     1     -41.986 -50.384  11.479  1.00  0.00    -0.278 N 
ATOM      6  HN  UNL     1     -42.857 -50.850  11.224  1.00  0.00     0.189 HD
HETATM    7  C   UNL     1     -40.925 -50.959  11.992  1.00  0.00     0.164 A 
HETATM    8  N   UNL     1     -39.970 -50.003  12.262  1.00  0.00    -0.306 N 
ENDROOT
BRANCH   7   9
HETATM    9  S   UNL     1     -40.789 -52.652  12.330  1.00  0.00    -0.074 SA
BRANCH   9  10
HETATM   10  C   UNL     1     -42.201 -52.960  13.575  1.00  0.00     0.147 C 
BRANCH  10  11
HETATM   11  C   UNL     1     -43.497 -52.942  12.782  1.00  0.00    -0.061 C 
BRANCH  11  12
HETATM   12  N   UNL     1     -44.572 -52.926  12.123  1.00  0.00    -0.369 N 
ATOM     13  HN2 UNL     1     -43.711 -52.966  12.669  1.00  0.00     0.165 HD
ATOM     14  HN1 UNL     1     -45.442 -52.913  11.591  1.00  0.00     0.165 HD
ENDBRANCH  11  12
ENDBRANCH  10  11
BRANCH  10  15
HETATM   15  C   UNL     1     -42.032 -54.387  14.206  1.00  0.00     0.012 C 
HETATM   16  C   UNL     1     -43.324 -54.941  14.861  1.00  0.00     0.007 C 
HETATM   17  C   UNL     1     -43.628 -54.356  16.239  1.00  0.00     0.000 C 
HETATM   18  C   UNL     1     -42.438 -54.467  17.184  1.00  0.00     0.000 C 
HETATM   19  C   UNL     1     -41.179 -53.875  16.564  1.00  0.00     0.000 C 
HETATM   20  C   UNL     1     -40.873 -54.521  15.216  1.00  0.00     0.007 C 
ENDBRANCH  10  15
ENDBRANCH   9  10
ENDBRANCH   7   9
BRANCH   8  21
HETATM   21  C   UNL     1     -38.637 -50.170  12.813  1.00  0.00     0.235 C 
BRANCH  21  22
HETATM   22  C   UNL     1     -37.567 -50.685  11.867  1.00  0.00     0.233 C 
HETATM   23  O   UNL     1     -36.863 -51.649  12.169  1.00  0.00    -0.272 OA
HETATM   24  N   UNL     1     -37.386 -50.101  10.656  1.00  0.00    -0.369 N 
HETATM   25  H   UNL     1     -37.844 -49.248  10.357  1.00  0.00     0.159 HD
HETATM   26  H   UNL     1     -36.640 -50.471  10.072  1.00  0.00     0.159 HD
ENDBRANCH  21  22
ENDBRANCH   8  21
TORSDOF 7
ENDMDL
MODEL 8
REMARK VINA RESULT:      -5.4      1.533      1.780
REMARK  7 active torsions:
REMARK  status: ('A' for Active; 'I' for Inactive)
REMARK    1  A    between atoms: C_7  and  S_8 
REMARK    2  A    between atoms: S_8  and  C_9 
REMARK    3  A    between atoms: C_9  and  C_10 
REMARK    4  A    between atoms: C_9  and  C_14 
REMARK    5  A    between atoms: C_10  and  N_11 
REMARK    6  A    between atoms: N_20  and  C_21 
REMARK    7  A    between atoms: C_21  and  C_22 
REMARK       I    between atoms: C_22  and  N_24 
ROOT
HETATM    1  C   UNL     1     -37.402 -50.030  11.081  1.00  0.00     0.091 C 
HETATM    2  C   UNL     1     -38.837 -50.110  11.460  1.00  0.00     0.096 A 
HETATM    3  N   UNL     1     -39.853 -49.830  10.670  1.00  0.00    -0.287 N 
ATOM      4  HN  UNL     1     -39.785 -49.470   9.718  1.00  0.00     0.188 HD
HETATM    5  N   UNL     1     -41.017 -50.102  11.342  1.00  0.00    -0.278 N 
ATOM      6  HN  UNL     1     -41.963 -49.981  10.978  1.00  0.00     0.189 HD
HETATM    7  C   UNL     1     -40.701 -50.545  12.535  1.00  0.00     0.164 A 
HETATM    8  N   UNL     1     -39.332 -50.511  12.689  1.00  0.00    -0.306 N 
ENDROOT
BRANCH   7   9
HETATM    9  S   UNL     1     -41.845 -51.031  13.740  1.00  0.00    -0.074 SA
BRANCH   9  10
HETATM   10  C   UNL     1     -42.767 -52.477  12.903  1.00  0.00     0.147 C 
BRANCH  10  11
HETATM   11  C   UNL     1     -41.730 -53.549  12.612  1.00  0.00    -0.061 C 
BRANCH  11  12
HETATM   12  N   UNL     1     -40.869 -54.438  12.370  1.00  0.00    -0.369 N 
ATOM     13  HN2 UNL     1     -41.562 -53.724  12.596  1.00  0.00     0.165 HD
ATOM     14  HN1 UNL     1     -40.173 -55.157  12.175  1.00  0.00     0.165 HD
ENDBRANCH  11  12
ENDBRANCH  10  11
BRANCH  10  15
HETATM   15  C   UNL     1     -43.818 -53.071  13.907  1.00  0.00     0.012 C 
HETATM   16  C   UNL     1     -45.081 -53.655  13.223  1.00  0.00     0.007 C 
HETATM   17  C   UNL     1     -46.092 -52.603  12.770  1.00  0.00     0.000 C 
HETATM   18  C   UNL     1     -46.466 -51.647  13.896  1.00  0.00     0.000 C 
HETATM   19  C   UNL     1     -45.229 -51.030  14.535  1.00  0.00     0.000 C 
HETATM   20  C   UNL     1     -44.267 -52.108  15.026  1.00  0.00     0.007 C 
ENDBRANCH  10  15
ENDBRANCH   9  10
ENDBRANCH   7   9
BRANCH   8  21
HETATM   21  C   UNL     1     -38.528 -50.920  13.828  1.00  0.00     0.235 C 
BRANCH  21  22
HETATM   22  C   UNL     1     -37.954 -49.811  14.692  1.00  0.00     0.233 C 
HETATM   23  O   UNL     1     -36.832 -49.911  15.188  1.00  0.00    -0.272 OA
HETATM   24  N   UNL     1     -38.665 -48.677  14.911  1.00  0.00    -0.369 N 
HETATM   25  H   UNL     1     -39.629 -48.541  14.629  1.00  0.00     0.159 HD
HETATM   26  H   UNL     1     -38.242 -47.977  15.516  1.00  0.00     0.159 HD
ENDBRANCH  21  22
ENDBRANCH   8  21
TORSDOF 7
ENDMDL
MODEL 9
REMARK VINA RESULT:      -5.4      2.523      4.498
REMARK  7 active torsions:
REMARK  status: ('A' for Active; 'I' for Inactive)
REMARK    1  A    between atoms: C_7  and  S_8 
REMARK    2  A    between atoms: S_8  and  C_9 
REMARK    3  A    between atoms: C_9  and  C_10 
REMARK    4  A    between atoms: C_9  and  C_14 
REMARK    5  A    between atoms: C_10  and  N_11 
REMARK    6  A    between atoms: N_20  and  C_21 
REMARK    7  A    between atoms: C_21  and  C_22 
REMARK       I    between atoms: C_22  and  N_24 
ROOT
HETATM    1  C   UNL     1     -39.916 -53.266  15.640  1.00  0.00     0.091 C 
HETATM    2  C   UNL     1     -41.163 -53.940  15.196  1.00  0.00     0.096 A 
HETATM    3  N   UNL     1     -41.636 -55.069  15.682  1.00  0.00    -0.287 N 
ATOM      4  HN  UNL     1     -41.181 -55.652  16.384  1.00  0.00     0.188 HD
HETATM    5  N   UNL     1     -42.844 -55.330  15.087  1.00  0.00    -0.278 N 
ATOM      6  HN  UNL     1     -43.441 -56.138  15.268  1.00  0.00     0.189 HD
HETATM    7  C   UNL     1     -43.097 -54.359  14.243  1.00  0.00     0.164 A 
HETATM    8  N   UNL     1     -42.034 -53.481  14.223  1.00  0.00    -0.306 N 
ENDROOT
BRANCH   7   9
HETATM    9  S   UNL     1     -44.522 -54.249  13.266  1.00  0.00    -0.074 SA
BRANCH   9  10
HETATM   10  C   UNL     1     -45.367 -52.665  13.910  1.00  0.00     0.147 C 
BRANCH  10  11
HETATM   11  C   UNL     1     -46.086 -52.039  12.726  1.00  0.00    -0.061 C 
BRANCH  11  12
HETATM   12  N   UNL     1     -46.682 -51.519  11.743  1.00  0.00    -0.369 N 
ATOM     13  HN2 UNL     1     -46.187 -51.960  12.519  1.00  0.00     0.165 HD
ATOM     14  HN1 UNL     1     -47.164 -51.099  10.949  1.00  0.00     0.165 HD
ENDBRANCH  11  12
ENDBRANCH  10  11
BRANCH  10  15
HETATM   15  C   UNL     1     -46.442 -53.053  14.986  1.00  0.00     0.012 C 
HETATM   16  C   UNL     1     -47.238 -51.844  15.543  1.00  0.00     0.007 C 
HETATM   17  C   UNL     1     -46.480 -51.018  16.581  1.00  0.00     0.000 C 
HETATM   18  C   UNL     1     -45.928 -51.883  17.708  1.00  0.00     0.000 C 
HETATM   19  C   UNL     1     -45.100 -53.041  17.166  1.00  0.00     0.000 C 
HETATM   20  C   UNL     1     -45.905 -53.877  16.176  1.00  0.00     0.007 C 
ENDBRANCH  10  15
ENDBRANCH   9  10
ENDBRANCH   7   9
BRANCH   8  21
HETATM   21  C   UNL     1     -41.874 -52.255  13.460  1.00  0.00     0.235 C 
BRANCH  21  22
HETATM   22  C   UNL     1     -40.901 -52.298  12.296  1.00  0.00     0.233 C 
HETATM   23  O   UNL     1     -39.718 -51.993  12.446  1.00  0.00    -0.272 OA
HETATM   24  N   UNL     1     -41.319 -52.698  11.069  1.00  0.00    -0.369 N 
HETATM   25  H   UNL     1     -42.286 -52.875  10.822  1.00  0.00     0.159 HD
HETATM   26  H   UNL     1     -40.631 -52.686  10.320  1.00  0.00     0.159 HD
ENDBRANCH  21  22
ENDBRANCH   8  21
TORSDOF 7
ENDMDL
