MODEL 1
REMARK VINA RESULT:      -5.7      0.000      0.000
REMARK  5 active torsions:
REMARK  status: ('A' for Active; 'I' for Inactive)
REMARK    1  A    between atoms: N_1  and  C1*_2 
REMARK    2  A    between atoms: C2*_6  and  O2*_15 
REMARK    3  A    between atoms: C3*_10  and  O3*_16 
REMARK    4  A    between atoms: C4*_11  and  C5*_17 
REMARK    5  A    between atoms: C5*_17  and  O5*_18 
ROOT
HETATM    1  C1* UNL     1     -40.952 -48.682  11.823  1.00  0.00     0.264 C 
HETATM    2  C2* UNL     1     -40.486 -49.946  11.076  1.00  0.00     0.198 C 
HETATM    3  O4* UNL     1     -41.671 -49.114  12.988  1.00  0.00    -0.353 OA
HETATM    4  C3* UNL     1     -40.711 -51.075  12.086  1.00  0.00     0.182 C 
HETATM    5  C4* UNL     1     -41.038 -50.356  13.392  1.00  0.00     0.179 C 
ENDROOT
BRANCH   1   6
HETATM    6  N   UNL     1     -41.718 -47.748  11.008  1.00  0.00    -0.278 N 
HETATM    7  C   UNL     1     -41.054 -46.591  10.623  1.00  0.00     0.331 A 
HETATM    8  N   UNL     1     -41.800 -45.678   9.932  1.00  0.00    -0.274 N 
HETATM    9  O   UNL     1     -39.868 -46.386  10.873  1.00  0.00    -0.246 OA
HETATM   10  C   UNL     1     -43.106 -45.824   9.545  1.00  0.00     0.268 A 
HETATM   11  H   UNL     1     -41.350 -44.807   9.686  1.00  0.00     0.173 HD
HETATM   12  C   UNL     1     -43.742 -47.123   9.906  1.00  0.00     0.094 A 
HETATM   13  O   UNL     1     -43.692 -44.930   8.937  1.00  0.00    -0.267 OA
HETATM   14  C   UNL     1     -43.019 -48.000  10.615  1.00  0.00     0.123 A 
HETATM   15 BR   UNL     1     -45.492 -47.455   9.371  1.00  0.00    -0.044 Br
ENDBRANCH   1   6
BRANCH   2  16
HETATM   16  O2* UNL     1     -39.097 -49.883  10.724  1.00  0.00    -0.388 OA
HETATM   17  H2* UNL     1     -39.049 -49.633   9.776  1.00  0.00     0.210 HD
ENDBRANCH   2  16
BRANCH   4  18
HETATM   18  O3* UNL     1     -39.601 -51.956  12.180  1.00  0.00    -0.390 OA
HETATM   19  H3* UNL     1     -39.021 -51.582  12.880  1.00  0.00     0.210 HD
ENDBRANCH   4  18
BRANCH   5  20
HETATM   20  C5* UNL     1     -39.807 -50.062  14.266  1.00  0.00     0.198 C 
BRANCH  20  21
HETATM   21  O5* UNL     1     -39.458 -51.223  15.020  1.00  0.00    -0.398 OA
HETATM   22  H5* UNL     1     -40.198 -51.851  14.929  1.00  0.00     0.209 HD
ENDBRANCH  20  21
ENDBRANCH   5  20
TORSDOF 5
ENDMDL
MODEL 2
REMARK VINA RESULT:      -5.6      5.606      6.596
REMARK  5 active torsions:
REMARK  status: ('A' for Active; 'I' for Inactive)
REMARK    1  A    between atoms: N_1  and  C1*_2 
REMARK    2  A    between atoms: C2*_6  and  O2*_15 
REMARK    3  A    between atoms: C3*_10  and  O3*_16 
REMARK    4  A    between atoms: C4*_11  and  C5*_17 
REMARK    5  A    between atoms: C5*_17  and  O5*_18 
ROOT
HETATM    1  C1* UNL     1     -40.637 -53.747  14.648  1.00  0.00     0.264 C 
HETATM    2  C2* UNL     1     -39.774 -54.961  14.256  1.00  0.00     0.198 C 
HETATM    3  O4* UNL     1     -40.818 -53.794  16.072  1.00  0.00    -0.353 OA
HETATM    4  C3* UNL     1     -39.228 -55.474  15.591  1.00  0.00     0.182 C 
HETATM    5  C4* UNL     1     -39.601 -54.387  16.595  1.00  0.00     0.179 C 
ENDROOT
BRANCH   1   6
HETATM    6  N   UNL     1     -41.898 -53.644  13.927  1.00  0.00    -0.278 N 
HETATM    7  C   UNL     1     -41.848 -52.985  12.707  1.00  0.00     0.331 A 
HETATM    8  N   UNL     1     -43.047 -52.814  12.071  1.00  0.00    -0.274 N 
HETATM    9  O   UNL     1     -40.800 -52.577  12.208  1.00  0.00    -0.246 OA
HETATM   10  C   UNL     1     -44.263 -53.276  12.499  1.00  0.00     0.268 A 
HETATM   11  H   UNL     1     -43.040 -52.292  11.206  1.00  0.00     0.173 HD
HETATM   12  C   UNL     1     -44.245 -54.056  13.770  1.00  0.00     0.094 A 
HETATM   13  O   UNL     1     -45.288 -53.053  11.858  1.00  0.00    -0.267 OA
HETATM   14  C   UNL     1     -43.074 -54.189  14.407  1.00  0.00     0.123 A 
HETATM   15 BR   UNL     1     -45.831 -54.788  14.407  1.00  0.00    -0.044 Br
ENDBRANCH   1   6
BRANCH   2  16
HETATM   16  O2* UNL     1     -38.685 -54.594  13.397  1.00  0.00    -0.388 OA
HETATM   17  H2* UNL     1     -38.838 -53.667  13.114  1.00  0.00     0.210 HD
ENDBRANCH   2  16
BRANCH   4  18
HETATM   18  O3* UNL     1     -37.837 -55.756  15.544  1.00  0.00    -0.390 OA
HETATM   19  H3* UNL     1     -37.398 -54.903  15.331  1.00  0.00     0.210 HD
ENDBRANCH   4  18
BRANCH   5  20
HETATM   20  C5* UNL     1     -38.521 -53.306  16.774  1.00  0.00     0.198 C 
BRANCH  20  21
HETATM   21  O5* UNL     1     -37.547 -53.745  17.720  1.00  0.00    -0.398 OA
HETATM   22  H5* UNL     1     -37.009 -52.966  17.952  1.00  0.00     0.209 HD
ENDBRANCH  20  21
ENDBRANCH   5  20
TORSDOF 5
ENDMDL
MODEL 3
REMARK VINA RESULT:      -5.5      3.210      5.931
REMARK  5 active torsions:
REMARK  status: ('A' for Active; 'I' for Inactive)
REMARK    1  A    between atoms: N_1  and  C1*_2 
REMARK    2  A    between atoms: C2*_6  and  O2*_15 
REMARK    3  A    between atoms: C3*_10  and  O3*_16 
REMARK    4  A    between atoms: C4*_11  and  C5*_17 
REMARK    5  A    between atoms: C5*_17  and  O5*_18 
ROOT
HETATM    1  C1* UNL     1     -41.025 -46.368  11.674  1.00  0.00     0.264 C 
HETATM    2  C2* UNL     1     -40.275 -45.542  10.612  1.00  0.00     0.198 C 
HETATM    3  O4* UNL     1     -40.957 -45.638  12.908  1.00  0.00    -0.353 OA
HETATM    4  C3* UNL     1     -40.090 -44.172  11.272  1.00  0.00     0.182 C 
HETATM    5  C4* UNL     1     -40.953 -44.238  12.529  1.00  0.00     0.179 C 
ENDROOT
BRANCH   1   6
HETATM    6  N   UNL     1     -40.558 -47.741  11.809  1.00  0.00    -0.278 N 
HETATM    7  C   UNL     1     -41.166 -48.674  10.981  1.00  0.00     0.331 A 
HETATM    8  N   UNL     1     -40.789 -49.975  11.170  1.00  0.00    -0.274 N 
HETATM    9  O   UNL     1     -41.991 -48.368  10.122  1.00  0.00    -0.246 OA
HETATM   10  C   UNL     1     -39.841 -50.423  12.050  1.00  0.00     0.268 A 
HETATM   11  H   UNL     1     -41.257 -50.675  10.612  1.00  0.00     0.173 HD
HETATM   12  C   UNL     1     -39.155 -49.369  12.850  1.00  0.00     0.094 A 
HETATM   13  O   UNL     1     -39.587 -51.622  12.153  1.00  0.00    -0.267 OA
HETATM   14  C   UNL     1     -39.553 -48.100  12.688  1.00  0.00     0.123 A 
HETATM   15 BR   UNL     1     -37.802 -49.861  14.028  1.00  0.00    -0.044 Br
ENDBRANCH   1   6
BRANCH   2  16
HETATM   16  O2* UNL     1     -41.036 -45.397   9.404  1.00  0.00    -0.388 OA
HETATM   17  H2* UNL     1     -40.446 -45.637   8.658  1.00  0.00     0.210 HD
ENDBRANCH   2  16
BRANCH   4  18
HETATM   18  O3* UNL     1     -40.420 -43.096  10.406  1.00  0.00    -0.390 OA
HETATM   19  H3* UNL     1     -40.133 -42.280  10.872  1.00  0.00     0.210 HD
ENDBRANCH   4  18
BRANCH   5  20
HETATM   20  C5* UNL     1     -42.395 -43.743  12.321  1.00  0.00     0.198 C 
BRANCH  20  21
HETATM   21  O5* UNL     1     -43.224 -44.201  13.388  1.00  0.00    -0.398 OA
HETATM   22  H5* UNL     1     -43.422 -45.139  13.209  1.00  0.00     0.209 HD
ENDBRANCH  20  21
ENDBRANCH   5  20
TORSDOF 5
ENDMDL
MODEL 4
REMARK VINA RESULT:      -5.4      4.562      5.460
REMARK  5 active torsions:
REMARK  status: ('A' for Active; 'I' for Inactive)
REMARK    1  A    between atoms: N_1  and  C1*_2 
REMARK    2  A    between atoms: C2*_6  and  O2*_15 
REMARK    3  A    between atoms: C3*_10  and  O3*_16 
REMARK    4  A    between atoms: C4*_11  and  C5*_17 
REMARK    5  A    between atoms: C5*_17  and  O5*_18 
ROOT
HETATM    1  C1* UNL     1     -41.453 -52.389  13.592  1.00  0.00     0.264 C 
HETATM    2  C2* UNL     1     -40.974 -53.729  13.002  1.00  0.00     0.198 C 
HETATM    3  O4* UNL     1     -40.901 -52.283  14.913  1.00  0.00    -0.353 OA
HETATM    4  C3* UNL     1     -39.865 -54.178  13.958  1.00  0.00     0.182 C 
HETATM    5  C4* UNL     1     -39.623 -52.966  14.853  1.00  0.00     0.179 C 
ENDROOT
BRANCH   1   6
HETATM    6  N   UNL     1     -42.897 -52.203  13.572  1.00  0.00    -0.278 N 
HETATM    7  C   UNL     1     -43.350 -51.018  13.010  1.00  0.00     0.331 A 
HETATM    8  N   UNL     1     -44.700 -50.807  13.070  1.00  0.00    -0.274 N 
HETATM    9  O   UNL     1     -42.600 -50.199  12.481  1.00  0.00    -0.246 OA
HETATM   10  C   UNL     1     -45.633 -51.671  13.577  1.00  0.00     0.268 A 
HETATM   11  H   UNL     1     -45.045 -49.927  12.712  1.00  0.00     0.173 HD
HETATM   12  C   UNL     1     -45.101 -52.968  14.085  1.00  0.00     0.094 A 
HETATM   13  O   UNL     1     -46.827 -51.377  13.597  1.00  0.00    -0.267 OA
HETATM   14  C   UNL     1     -43.775 -53.156  14.058  1.00  0.00     0.123 A 
HETATM   15 BR   UNL     1     -46.288 -54.244  14.734  1.00  0.00    -0.044 Br
ENDBRANCH   1   6
BRANCH   2  16
HETATM   16  O2* UNL     1     -40.439 -53.576  11.679  1.00  0.00    -0.388 OA
HETATM   17  H2* UNL     1     -39.462 -53.631  11.753  1.00  0.00     0.210 HD
ENDBRANCH   2  16
BRANCH   4  18
HETATM   18  O3* UNL     1     -38.702 -54.628  13.277  1.00  0.00    -0.390 OA
HETATM   19  H3* UNL     1     -38.869 -54.461  12.323  1.00  0.00     0.210 HD
ENDBRANCH   4  18
BRANCH   5  20
HETATM   20  C5* UNL     1     -38.537 -52.011  14.329  1.00  0.00     0.198 C 
BRANCH  20  21
HETATM   21  O5* UNL     1     -38.586 -51.956  12.903  1.00  0.00    -0.398 OA
HETATM   22  H5* UNL     1     -37.738 -51.579  12.606  1.00  0.00     0.209 HD
ENDBRANCH  20  21
ENDBRANCH   5  20
TORSDOF 5
ENDMDL
MODEL 5
REMARK VINA RESULT:      -5.4      4.675      6.785
REMARK  5 active torsions:
REMARK  status: ('A' for Active; 'I' for Inactive)
REMARK    1  A    between atoms: N_1  and  C1*_2 
REMARK    2  A    between atoms: C2*_6  and  O2*_15 
REMARK    3  A    between atoms: C3*_10  and  O3*_16 
REMARK    4  A    between atoms: C4*_11  and  C5*_17 
REMARK    5  A    between atoms: C5*_17  and  O5*_18 
ROOT
HETATM    1  C1* UNL     1     -42.221 -52.016  12.957  1.00  0.00     0.264 C 
HETATM    2  C2* UNL     1     -40.830 -52.663  12.825  1.00  0.00     0.198 C 
HETATM    3  O4* UNL     1     -42.023 -50.664  13.397  1.00  0.00    -0.353 OA
HETATM    4  C3* UNL     1     -39.863 -51.478  12.900  1.00  0.00     0.182 C 
HETATM    5  C4* UNL     1     -40.762 -50.248  12.812  1.00  0.00     0.179 C 
ENDROOT
BRANCH   1   6
HETATM    6  N   UNL     1     -43.150 -52.751  13.805  1.00  0.00    -0.278 N 
HETATM    7  C   UNL     1     -44.198 -53.384  13.152  1.00  0.00     0.331 A 
HETATM    8  N   UNL     1     -45.116 -54.001  13.956  1.00  0.00    -0.274 N 
HETATM    9  O   UNL     1     -44.307 -53.407  11.927  1.00  0.00    -0.246 OA
HETATM   10  C   UNL     1     -45.064 -54.093  15.321  1.00  0.00     0.268 A 
HETATM   11  H   UNL     1     -45.913 -54.425  13.503  1.00  0.00     0.173 HD
HETATM   12  C   UNL     1     -43.870 -53.473  15.964  1.00  0.00     0.094 A 
HETATM   13  O   UNL     1     -45.954 -54.659  15.953  1.00  0.00    -0.267 OA
HETATM   14  C   UNL     1     -42.992 -52.838  15.175  1.00  0.00     0.123 A 
HETATM   15 BR   UNL     1     -43.665 -53.599  17.808  1.00  0.00    -0.044 Br
ENDBRANCH   1   6
BRANCH   2  16
HETATM   16  O2* UNL     1     -40.666 -53.340  11.571  1.00  0.00    -0.388 OA
HETATM   17  H2* UNL     1     -39.916 -52.912  11.105  1.00  0.00     0.210 HD
ENDBRANCH   2  16
BRANCH   4  18
HETATM   18  O3* UNL     1     -38.857 -51.524  11.898  1.00  0.00    -0.390 OA
HETATM   19  H3* UNL     1     -38.005 -51.618  12.378  1.00  0.00     0.210 HD
ENDBRANCH   4  18
BRANCH   5  20
HETATM   20  C5* UNL     1     -40.987 -49.742  11.377  1.00  0.00     0.198 C 
BRANCH  20  21
HETATM   21  O5* UNL     1     -39.856 -48.986  10.946  1.00  0.00    -0.398 OA
HETATM   22  H5* UNL     1     -40.124 -48.516  10.135  1.00  0.00     0.209 HD
ENDBRANCH  20  21
ENDBRANCH   5  20
TORSDOF 5
ENDMDL
MODEL 6
REMARK VINA RESULT:      -5.3      3.820      5.646
REMARK  5 active torsions:
REMARK  status: ('A' for Active; 'I' for Inactive)
REMARK    1  A    between atoms: N_1  and  C1*_2 
REMARK    2  A    between atoms: C2*_6  and  O2*_15 
REMARK    3  A    between atoms: C3*_10  and  O3*_16 
REMARK    4  A    between atoms: C4*_11  and  C5*_17 
REMARK    5  A    between atoms: C5*_17  and  O5*_18 
ROOT
HETATM    1  C1* UNL     1     -40.418 -51.060  12.758  1.00  0.00     0.264 C 
HETATM    2  C2* UNL     1     -40.357 -49.972  13.847  1.00  0.00     0.198 C 
HETATM    3  O4* UNL     1     -40.268 -50.403  11.490  1.00  0.00    -0.353 OA
HETATM    4  C3* UNL     1     -39.833 -48.738  13.108  1.00  0.00     0.182 C 
HETATM    5  C4* UNL     1     -39.400 -49.268  11.744  1.00  0.00     0.179 C 
ENDROOT
BRANCH   1   6
HETATM    6  N   UNL     1     -41.604 -51.904  12.814  1.00  0.00    -0.278 N 
HETATM    7  C   UNL     1     -41.382 -53.270  12.719  1.00  0.00     0.331 A 
HETATM    8  N   UNL     1     -42.501 -54.055  12.686  1.00  0.00    -0.274 N 
HETATM    9  O   UNL     1     -40.256 -53.764  12.674  1.00  0.00    -0.246 OA
HETATM   10  C   UNL     1     -43.796 -53.624  12.791  1.00  0.00     0.268 A 
HETATM   11  H   UNL     1     -42.363 -55.049  12.566  1.00  0.00     0.173 HD
HETATM   12  C   UNL     1     -43.973 -52.155  12.982  1.00  0.00     0.094 A 
HETATM   13  O   UNL     1     -44.736 -54.415  12.733  1.00  0.00    -0.267 OA
HETATM   14  C   UNL     1     -42.875 -51.386  12.978  1.00  0.00     0.123 A 
HETATM   15 BR   UNL     1     -45.687 -51.469  13.204  1.00  0.00    -0.044 Br
ENDBRANCH   1   6
BRANCH   2  16
HETATM   16  O2* UNL     1     -39.454 -50.320  14.907  1.00  0.00    -0.388 OA
HETATM   17  H2* UNL     1     -38.543 -50.224  14.555  1.00  0.00     0.210 HD
ENDBRANCH   2  16
BRANCH   4  18
HETATM   18  O3* UNL     1     -38.799 -48.070  13.817  1.00  0.00    -0.390 OA
HETATM   19  H3* UNL     1     -38.652 -47.224  13.341  1.00  0.00     0.210 HD
ENDBRANCH   4  18
BRANCH   5  20
HETATM   20  C5* UNL     1     -37.927 -49.707  11.685  1.00  0.00     0.198 C 
BRANCH  20  21
HETATM   21  O5* UNL     1     -37.552 -49.970  10.333  1.00  0.00    -0.398 OA
HETATM   22  H5* UNL     1     -38.374 -49.971   9.808  1.00  0.00     0.209 HD
ENDBRANCH  20  21
ENDBRANCH   5  20
TORSDOF 5
ENDMDL
MODEL 7
REMARK VINA RESULT:      -5.2      4.109      5.595
REMARK  5 active torsions:
REMARK  status: ('A' for Active; 'I' for Inactive)
REMARK    1  A    between atoms: N_1  and  C1*_2 
REMARK    2  A    between atoms: C2*_6  and  O2*_15 
REMARK    3  A    between atoms: C3*_10  and  O3*_16 
REMARK    4  A    between atoms: C4*_11  and  C5*_17 
REMARK    5  A    between atoms: C5*_17  and  O5*_18 
ROOT
HETATM    1  C1* UNL     1     -42.980 -52.498  13.454  1.00  0.00     0.264 C 
HETATM    2  C2* UNL     1     -44.100 -52.942  12.494  1.00  0.00     0.198 C 
HETATM    3  O4* UNL     1     -43.610 -51.962  14.627  1.00  0.00    -0.353 OA
HETATM    4  C3* UNL     1     -45.361 -52.918  13.363  1.00  0.00     0.182 C 
HETATM    5  C4* UNL     1     -44.839 -52.716  14.783  1.00  0.00     0.179 C 
ENDROOT
BRANCH   1   6
HETATM    6  N   UNL     1     -42.014 -51.578  12.868  1.00  0.00    -0.278 N 
HETATM    7  C   UNL     1     -40.883 -52.158  12.311  1.00  0.00     0.331 A 
HETATM    8  N   UNL     1     -39.938 -51.290  11.839  1.00  0.00    -0.274 N 
HETATM    9  O   UNL     1     -40.725 -53.376  12.233  1.00  0.00    -0.246 OA
HETATM   10  C   UNL     1     -40.031 -49.924  11.818  1.00  0.00     0.268 A 
HETATM   11  H   UNL     1     -39.084 -51.691  11.476  1.00  0.00     0.173 HD
HETATM   12  C   UNL     1     -41.306 -49.358  12.345  1.00  0.00     0.094 A 
HETATM   13  O   UNL     1     -39.113 -49.231  11.383  1.00  0.00    -0.267 OA
HETATM   14  C   UNL     1     -42.214 -50.210  12.840  1.00  0.00     0.123 A 
HETATM   15 BR   UNL     1     -41.568 -47.517  12.300  1.00  0.00    -0.044 Br
ENDBRANCH   1   6
BRANCH   2  16
HETATM   16  O2* UNL     1     -43.886 -54.268  11.991  1.00  0.00    -0.388 OA
HETATM   17  H2* UNL     1     -44.377 -54.884  12.577  1.00  0.00     0.210 HD
ENDBRANCH   2  16
BRANCH   4  18
HETATM   18  O3* UNL     1     -46.158 -54.083  13.206  1.00  0.00    -0.390 OA
HETATM   19  H3* UNL     1     -47.077 -53.762  13.072  1.00  0.00     0.210 HD
ENDBRANCH   4  18
BRANCH   5  20
HETATM   20  C5* UNL     1     -44.562 -54.028  15.537  1.00  0.00     0.198 C 
BRANCH  20  21
HETATM   21  O5* UNL     1     -45.785 -54.570  16.034  1.00  0.00    -0.398 OA
HETATM   22  H5* UNL     1     -45.582 -55.462  16.371  1.00  0.00     0.209 HD
ENDBRANCH  20  21
ENDBRANCH   5  20
TORSDOF 5
ENDMDL
MODEL 8
REMARK VINA RESULT:      -5.0      3.587      4.884
REMARK  5 active torsions:
REMARK  status: ('A' for Active; 'I' for Inactive)
REMARK    1  A    between atoms: N_1  and  C1*_2 
REMARK    2  A    between atoms: C2*_6  and  O2*_15 
REMARK    3  A    between atoms: C3*_10  and  O3*_16 
REMARK    4  A    between atoms: C4*_11  and  C5*_17 
REMARK    5  A    between atoms: C5*_17  and  O5*_18 
ROOT
HETATM    1  C1* UNL     1     -41.874 -45.623  11.119  1.00  0.00     0.264 C 
HETATM    2  C2* UNL     1     -42.923 -45.790  10.003  1.00  0.00     0.198 C 
HETATM    3  O4* UNL     1     -42.244 -46.507  12.188  1.00  0.00    -0.353 OA
HETATM    4  C3* UNL     1     -43.686 -47.057  10.399  1.00  0.00     0.182 C 
HETATM    5  C4* UNL     1     -42.869 -47.648  11.545  1.00  0.00     0.179 C 
ENDROOT
BRANCH   1   6
HETATM    6  N   UNL     1     -41.685 -44.250  11.568  1.00  0.00    -0.278 N 
HETATM    7  C   UNL     1     -40.684 -43.534  10.929  1.00  0.00     0.331 A 
HETATM    8  N   UNL     1     -40.450 -42.275  11.409  1.00  0.00    -0.274 N 
HETATM    9  O   UNL     1     -40.039 -43.984   9.983  1.00  0.00    -0.246 OA
HETATM   10  C   UNL     1     -41.142 -41.651  12.412  1.00  0.00     0.268 A 
HETATM   11  H   UNL     1     -39.691 -41.756  10.991  1.00  0.00     0.173 HD
HETATM   12  C   UNL     1     -42.267 -42.432  13.003  1.00  0.00     0.094 A 
HETATM   13  O   UNL     1     -40.840 -40.517  12.781  1.00  0.00    -0.267 OA
HETATM   14  C   UNL     1     -42.468 -43.678  12.553  1.00  0.00     0.123 A 
HETATM   15 BR   UNL     1     -43.317 -41.652  14.325  1.00  0.00    -0.044 Br
ENDBRANCH   1   6
BRANCH   2  16
HETATM   16  O2* UNL     1     -42.315 -45.976   8.716  1.00  0.00    -0.388 OA
HETATM   17  H2* UNL     1     -42.107 -46.931   8.628  1.00  0.00     0.210 HD
ENDBRANCH   2  16
BRANCH   4  18
HETATM   18  O3* UNL     1     -43.873 -47.950   9.310  1.00  0.00    -0.390 OA
HETATM   19  H3* UNL     1     -44.566 -47.542   8.747  1.00  0.00     0.210 HD
ENDBRANCH   4  18
BRANCH   5  20
HETATM   20  C5* UNL     1     -41.797 -48.653  11.093  1.00  0.00     0.198 C 
BRANCH  20  21
HETATM   21  O5* UNL     1     -42.126 -49.960  11.562  1.00  0.00    -0.398 OA
HETATM   22  H5* UNL     1     -42.861 -49.856  12.193  1.00  0.00     0.209 HD
ENDBRANCH  20  21
ENDBRANCH   5  20
TORSDOF 5
ENDMDL
MODEL 9
REMARK VINA RESULT:      -5.0      6.245      8.198
REMARK  5 active torsions:
REMARK  status: ('A' for Active; 'I' for Inactive)
REMARK    1  A    between atoms: N_1  and  C1*_2 
REMARK    2  A    between atoms: C2*_6  and  O2*_15 
REMARK    3  A    between atoms: C3*_10  and  O3*_16 
REMARK    4  A    between atoms: C4*_11  and  C5*_17 
REMARK    5  A    between atoms: C5*_17  and  O5*_18 
ROOT
HETATM    1  C1* UNL     1     -44.138 -53.317  14.393  1.00  0.00     0.264 C 
HETATM    2  C2* UNL     1     -44.647 -53.609  12.969  1.00  0.00     0.198 C 
HETATM    3  O4* UNL     1     -44.463 -51.951  14.691  1.00  0.00    -0.353 OA
HETATM    4  C3* UNL     1     -45.557 -52.419  12.651  1.00  0.00     0.182 C 
HETATM    5  C4* UNL     1     -45.700 -51.685  13.981  1.00  0.00     0.179 C 
ENDROOT
BRANCH   1   6
HETATM    6  N   UNL     1     -42.728 -53.616  14.603  1.00  0.00    -0.278 N 
HETATM    7  C   UNL     1     -42.448 -54.826  15.220  1.00  0.00     0.331 A 
HETATM    8  N   UNL     1     -41.130 -55.066  15.493  1.00  0.00    -0.274 N 
HETATM    9  O   UNL     1     -43.317 -55.648  15.505  1.00  0.00    -0.246 OA
HETATM   10  C   UNL     1     -40.075 -54.256  15.168  1.00  0.00     0.268 A 
HETATM   11  H   UNL     1     -40.910 -55.919  15.988  1.00  0.00     0.173 HD
HETATM   12  C   UNL     1     -40.424 -53.010  14.426  1.00  0.00     0.094 A 
HETATM   13  O   UNL     1     -38.924 -54.558  15.475  1.00  0.00    -0.267 OA
HETATM   14  C   UNL     1     -41.720 -52.762  14.192  1.00  0.00     0.123 A 
HETATM   15 BR   UNL     1     -39.062 -51.870  13.875  1.00  0.00    -0.044 Br
ENDBRANCH   1   6
BRANCH   2  16
HETATM   16  O2* UNL     1     -45.404 -54.826  12.905  1.00  0.00    -0.388 OA
HETATM   17  H2* UNL     1     -46.342 -54.594  13.075  1.00  0.00     0.210 HD
ENDBRANCH   2  16
BRANCH   4  18
HETATM   18  O3* UNL     1     -46.796 -52.812  12.078  1.00  0.00    -0.390 OA
HETATM   19  H3* UNL     1     -46.801 -52.438  11.169  1.00  0.00     0.210 HD
ENDBRANCH   4  18
BRANCH   5  20
HETATM   20  C5* UNL     1     -46.902 -52.149  14.822  1.00  0.00     0.198 C 
BRANCH  20  21
HETATM   21  O5* UNL     1     -47.178 -51.192  15.844  1.00  0.00    -0.398 OA
HETATM   22  H5* UNL     1     -46.540 -51.355  16.563  1.00  0.00     0.209 HD
ENDBRANCH  20  21
ENDBRANCH   5  20
TORSDOF 5
ENDMDL
