MODEL 1
REMARK VINA RESULT:      -6.7      0.000      0.000
REMARK  6 active torsions:
REMARK  status: ('A' for Active; 'I' for Inactive)
REMARK    1  A    between atoms: C_2  and  C_3 
REMARK    2  A    between atoms: C_3  and  C_4 
REMARK    3  A    between atoms: C_7  and  N_8 
REMARK       I    between atoms: N_8  and  C_9 
REMARK       I    between atoms: C_9  and  N_11 
REMARK    4  A    between atoms: N_11  and  C_12 
REMARK    5  A    between atoms: C_12  and  C_13 
REMARK    6  A    between atoms: C_17  and  O_18 
ROOT
HETATM    1  N   UNL     1     -40.368 -48.992  11.045  1.00  0.00    -0.289 N 
HETATM    2  C   UNL     1     -40.407 -50.280  11.502  1.00  0.00     0.322 C 
HETATM    3  O   UNL     1     -39.365 -50.871  11.771  1.00  0.00    -0.247 OA
HETATM    4  N   UNL     1     -41.646 -50.814  11.688  1.00  0.00    -0.342 N 
HETATM    5  H   UNL     1     -39.460 -48.555  11.001  1.00  0.00     0.172 HD
HETATM    6  H   UNL     1     -42.432 -50.265  11.352  1.00  0.00     0.164 HD
ENDROOT
BRANCH   1   7
HETATM    7  C   UNL     1     -41.473 -48.265  10.707  1.00  0.00     0.152 A 
HETATM    8  S   UNL     1     -41.951 -47.048  11.790  1.00  0.00    -0.064 SA
HETATM    9  C   UNL     1     -43.310 -46.725  10.781  1.00  0.00     0.078 A 
HETATM   10  C   UNL     1     -43.269 -47.534   9.658  1.00  0.00     0.018 A 
HETATM   11  N   UNL     1     -42.217 -48.426   9.640  1.00  0.00    -0.340 N 
ATOM     12  HN  UNL     1     -42.043 -49.109   8.903  1.00  0.00     0.168 HD
BRANCH  10  13
HETATM   13  C   UNL     1     -44.200 -47.527   8.488  1.00  0.00     0.057 C 
BRANCH  13  14
HETATM   14  C   UNL     1     -45.670 -47.586   8.908  1.00  0.00     0.002 C 
HETATM   15  C   UNL     1     -46.412 -48.700   8.185  1.00  0.00     0.005 C 
ENDBRANCH  13  14
ENDBRANCH  10  13
ENDBRANCH   1   7
BRANCH   4  16
HETATM   16  C   UNL     1     -41.924 -52.105  12.263  1.00  0.00     0.129 C 
BRANCH  16  17
HETATM   17  C   UNL     1     -42.817 -51.973  13.510  1.00  0.00     0.006 C 
HETATM   18  C   UNL     1     -42.620 -53.120  14.523  1.00  0.00     0.006 C 
HETATM   19  C   UNL     1     -43.224 -54.448  14.069  1.00  0.00     0.003 C 
HETATM   20  C   UNL     1     -44.674 -54.301  13.614  1.00  0.00     0.032 C 
HETATM   21  C   UNL     1     -44.823 -53.202  12.563  1.00  0.00     0.118 C 
HETATM   22  C   UNL     1     -44.292 -51.873  13.101  1.00  0.00     0.038 C 
BRANCH  21  23
HETATM   23  O   UNL     1     -46.185 -53.060  12.193  1.00  0.00    -0.396 OA
HETATM   24  H   UNL     1     -46.246 -52.373  11.508  1.00  0.00     0.210 HD
ENDBRANCH  21  23
ENDBRANCH  16  17
ENDBRANCH   4  16
TORSDOF 6
ENDMDL
MODEL 2
REMARK VINA RESULT:      -6.6      1.566      2.145
REMARK  6 active torsions:
REMARK  status: ('A' for Active; 'I' for Inactive)
REMARK    1  A    between atoms: C_2  and  C_3 
REMARK    2  A    between atoms: C_3  and  C_4 
REMARK    3  A    between atoms: C_7  and  N_8 
REMARK       I    between atoms: N_8  and  C_9 
REMARK       I    between atoms: C_9  and  N_11 
REMARK    4  A    between atoms: N_11  and  C_12 
REMARK    5  A    between atoms: C_12  and  C_13 
REMARK    6  A    between atoms: C_17  and  O_18 
ROOT
HETATM    1  N   UNL     1     -41.318 -49.714  11.371  1.00  0.00    -0.289 N 
HETATM    2  C   UNL     1     -41.873 -50.722  12.109  1.00  0.00     0.322 C 
HETATM    3  O   UNL     1     -41.239 -51.752  12.323  1.00  0.00    -0.247 OA
HETATM    4  N   UNL     1     -43.112 -50.480  12.622  1.00  0.00    -0.342 N 
HETATM    5  H   UNL     1     -40.363 -49.844  11.073  1.00  0.00     0.172 HD
HETATM    6  H   UNL     1     -43.575 -49.631  12.309  1.00  0.00     0.164 HD
ENDROOT
BRANCH   1   7
HETATM    7  C   UNL     1     -41.956 -48.544  11.070  1.00  0.00     0.152 A 
HETATM    8  S   UNL     1     -41.640 -47.218  12.083  1.00  0.00    -0.064 SA
HETATM    9  C   UNL     1     -42.774 -46.293  11.174  1.00  0.00     0.078 A 
HETATM   10  C   UNL     1     -43.272 -47.049  10.126  1.00  0.00     0.018 A 
HETATM   11  N   UNL     1     -42.805 -48.346  10.092  1.00  0.00    -0.340 N 
ATOM     12  HN  UNL     1     -43.079 -49.048   9.405  1.00  0.00     0.168 HD
BRANCH  10  13
HETATM   13  C   UNL     1     -44.213 -46.615   9.048  1.00  0.00     0.057 C 
BRANCH  13  14
HETATM   14  C   UNL     1     -45.327 -47.632   8.798  1.00  0.00     0.002 C 
HETATM   15  C   UNL     1     -46.693 -47.058   9.140  1.00  0.00     0.005 C 
ENDBRANCH  13  14
ENDBRANCH  10  13
ENDBRANCH   1   7
BRANCH   4  16
HETATM   16  C   UNL     1     -43.833 -51.350  13.514  1.00  0.00     0.129 C 
BRANCH  16  17
HETATM   17  C   UNL     1     -45.065 -51.957  12.816  1.00  0.00     0.006 C 
HETATM   18  C   UNL     1     -46.402 -51.431  13.378  1.00  0.00     0.006 C 
HETATM   19  C   UNL     1     -46.747 -51.986  14.760  1.00  0.00     0.003 C 
HETATM   20  C   UNL     1     -46.637 -53.507  14.818  1.00  0.00     0.032 C 
HETATM   21  C   UNL     1     -45.277 -53.991  14.317  1.00  0.00     0.118 C 
HETATM   22  C   UNL     1     -45.022 -53.488  12.896  1.00  0.00     0.038 C 
BRANCH  21  23
HETATM   23  O   UNL     1     -45.221 -55.407  14.342  1.00  0.00    -0.396 OA
HETATM   24  H   UNL     1     -44.632 -55.703  13.628  1.00  0.00     0.210 HD
ENDBRANCH  21  23
ENDBRANCH  16  17
ENDBRANCH   4  16
TORSDOF 6
ENDMDL
MODEL 3
REMARK VINA RESULT:      -6.1      1.539      2.059
REMARK  6 active torsions:
REMARK  status: ('A' for Active; 'I' for Inactive)
REMARK    1  A    between atoms: C_2  and  C_3 
REMARK    2  A    between atoms: C_3  and  C_4 
REMARK    3  A    between atoms: C_7  and  N_8 
REMARK       I    between atoms: N_8  and  C_9 
REMARK       I    between atoms: C_9  and  N_11 
REMARK    4  A    between atoms: N_11  and  C_12 
REMARK    5  A    between atoms: C_12  and  C_13 
REMARK    6  A    between atoms: C_17  and  O_18 
ROOT
HETATM    1  N   UNL     1     -40.310 -51.050  11.723  1.00  0.00    -0.289 N 
HETATM    2  C   UNL     1     -41.056 -52.180  11.913  1.00  0.00     0.322 C 
HETATM    3  O   UNL     1     -40.505 -53.272  12.021  1.00  0.00    -0.247 OA
HETATM    4  N   UNL     1     -42.400 -52.000  12.030  1.00  0.00    -0.342 N 
HETATM    5  H   UNL     1     -39.307 -51.162  11.737  1.00  0.00     0.172 HD
HETATM    6  H   UNL     1     -42.752 -51.065  11.839  1.00  0.00     0.164 HD
ENDROOT
BRANCH   1   7
HETATM    7  C   UNL     1     -40.838 -49.799  11.577  1.00  0.00     0.152 A 
HETATM    8  S   UNL     1     -40.872 -48.815  12.960  1.00  0.00    -0.064 SA
HETATM    9  C   UNL     1     -41.679 -47.602  12.041  1.00  0.00     0.078 A 
HETATM   10  C   UNL     1     -41.814 -48.015  10.726  1.00  0.00     0.018 A 
HETATM   11  N   UNL     1     -41.341 -49.287  10.480  1.00  0.00    -0.340 N 
ATOM     12  HN  UNL     1     -41.378 -49.760   9.578  1.00  0.00     0.168 HD
BRANCH  10  13
HETATM   13  C   UNL     1     -42.377 -47.244   9.575  1.00  0.00     0.057 C 
BRANCH  13  14
HETATM   14  C   UNL     1     -43.831 -46.829   9.803  1.00  0.00     0.002 C 
HETATM   15  C   UNL     1     -44.765 -47.499   8.807  1.00  0.00     0.005 C 
ENDBRANCH  13  14
ENDBRANCH  10  13
ENDBRANCH   1   7
BRANCH   4  16
HETATM   16  C   UNL     1     -43.359 -53.028  12.343  1.00  0.00     0.129 C 
BRANCH  16  17
HETATM   17  C   UNL     1     -43.537 -53.172  13.866  1.00  0.00     0.006 C 
HETATM   18  C   UNL     1     -44.038 -54.567  14.290  1.00  0.00     0.006 C 
HETATM   19  C   UNL     1     -45.509 -54.817  13.961  1.00  0.00     0.003 C 
HETATM   20  C   UNL     1     -46.413 -53.689  14.453  1.00  0.00     0.032 C 
HETATM   21  C   UNL     1     -45.927 -52.326  13.961  1.00  0.00     0.118 C 
HETATM   22  C   UNL     1     -44.481 -52.085  14.397  1.00  0.00     0.038 C 
BRANCH  21  23
HETATM   23  O   UNL     1     -46.759 -51.297  14.468  1.00  0.00    -0.396 OA
HETATM   24  H   UNL     1     -47.090 -51.572  15.340  1.00  0.00     0.210 HD
ENDBRANCH  21  23
ENDBRANCH  16  17
ENDBRANCH   4  16
TORSDOF 6
ENDMDL
MODEL 4
REMARK VINA RESULT:      -5.8      2.854      6.140
REMARK  6 active torsions:
REMARK  status: ('A' for Active; 'I' for Inactive)
REMARK    1  A    between atoms: C_2  and  C_3 
REMARK    2  A    between atoms: C_3  and  C_4 
REMARK    3  A    between atoms: C_7  and  N_8 
REMARK       I    between atoms: N_8  and  C_9 
REMARK       I    between atoms: C_9  and  N_11 
REMARK    4  A    between atoms: N_11  and  C_12 
REMARK    5  A    between atoms: C_12  and  C_13 
REMARK    6  A    between atoms: C_17  and  O_18 
ROOT
HETATM    1  N   UNL     1     -41.061 -51.864  11.487  1.00  0.00    -0.289 N 
HETATM    2  C   UNL     1     -40.776 -50.544  11.704  1.00  0.00     0.322 C 
HETATM    3  O   UNL     1     -39.938 -49.972  11.013  1.00  0.00    -0.247 OA
HETATM    4  N   UNL     1     -41.509 -49.922  12.669  1.00  0.00    -0.342 N 
HETATM    5  H   UNL     1     -40.596 -52.305  10.708  1.00  0.00     0.172 HD
HETATM    6  H   UNL     1     -42.112 -50.514  13.234  1.00  0.00     0.164 HD
ENDROOT
BRANCH   1   7
HETATM    7  C   UNL     1     -41.965 -52.583  12.216  1.00  0.00     0.152 A 
HETATM    8  S   UNL     1     -41.349 -53.507  13.501  1.00  0.00    -0.064 SA
HETATM    9  C   UNL     1     -42.939 -54.101  13.796  1.00  0.00     0.078 A 
HETATM   10  C   UNL     1     -43.837 -53.505  12.926  1.00  0.00     0.018 A 
HETATM   11  N   UNL     1     -43.257 -52.649  12.012  1.00  0.00    -0.340 N 
ATOM     12  HN  UNL     1     -43.762 -52.142  11.286  1.00  0.00     0.168 HD
BRANCH  10  13
HETATM   13  C   UNL     1     -45.323 -53.667  12.887  1.00  0.00     0.057 C 
BRANCH  13  14
HETATM   14  C   UNL     1     -46.045 -52.371  12.518  1.00  0.00     0.002 C 
HETATM   15  C   UNL     1     -46.445 -51.583  13.756  1.00  0.00     0.005 C 
ENDBRANCH  13  14
ENDBRANCH  10  13
ENDBRANCH   1   7
BRANCH   4  16
HETATM   16  C   UNL     1     -41.455 -48.519  12.987  1.00  0.00     0.129 C 
BRANCH  16  17
HETATM   17  C   UNL     1     -42.819 -47.845  12.747  1.00  0.00     0.006 C 
HETATM   18  C   UNL     1     -43.445 -48.208  11.384  1.00  0.00     0.006 C 
HETATM   19  C   UNL     1     -42.756 -47.537  10.196  1.00  0.00     0.003 C 
HETATM   20  C   UNL     1     -42.595 -46.032  10.392  1.00  0.00     0.032 C 
HETATM   21  C   UNL     1     -41.913 -45.710  11.721  1.00  0.00     0.118 C 
HETATM   22  C   UNL     1     -42.693 -46.322  12.885  1.00  0.00     0.038 C 
BRANCH  21  23
HETATM   23  O   UNL     1     -41.817 -44.306  11.895  1.00  0.00    -0.396 OA
HETATM   24  H   UNL     1     -42.289 -44.065  12.710  1.00  0.00     0.210 HD
ENDBRANCH  21  23
ENDBRANCH  16  17
ENDBRANCH   4  16
TORSDOF 6
ENDMDL
MODEL 5
REMARK VINA RESULT:      -5.8      2.651      3.582
REMARK  6 active torsions:
REMARK  status: ('A' for Active; 'I' for Inactive)
REMARK    1  A    between atoms: C_2  and  C_3 
REMARK    2  A    between atoms: C_3  and  C_4 
REMARK    3  A    between atoms: C_7  and  N_8 
REMARK       I    between atoms: N_8  and  C_9 
REMARK       I    between atoms: C_9  and  N_11 
REMARK    4  A    between atoms: N_11  and  C_12 
REMARK    5  A    between atoms: C_12  and  C_13 
REMARK    6  A    between atoms: C_17  and  O_18 
ROOT
HETATM    1  N   UNL     1     -40.051 -51.227  11.757  1.00  0.00    -0.289 N 
HETATM    2  C   UNL     1     -41.038 -52.038  12.244  1.00  0.00     0.322 C 
HETATM    3  O   UNL     1     -40.979 -53.252  12.073  1.00  0.00    -0.247 OA
HETATM    4  N   UNL     1     -42.021 -51.425  12.959  1.00  0.00    -0.342 N 
HETATM    5  H   UNL     1     -39.267 -51.683  11.315  1.00  0.00     0.172 HD
HETATM    6  H   UNL     1     -42.014 -50.408  12.964  1.00  0.00     0.164 HD
ENDROOT
BRANCH   1   7
HETATM    7  C   UNL     1     -40.043 -49.867  11.886  1.00  0.00     0.152 A 
HETATM    8  S   UNL     1     -39.320 -49.235  13.286  1.00  0.00    -0.064 SA
HETATM    9  C   UNL     1     -39.770 -47.654  12.769  1.00  0.00     0.078 A 
HETATM   10  C   UNL     1     -40.392 -47.720  11.534  1.00  0.00     0.018 A 
HETATM   11  N   UNL     1     -40.557 -49.000  11.049  1.00  0.00    -0.340 N 
ATOM     12  HN  UNL     1     -41.013 -49.237  10.168  1.00  0.00     0.168 HD
BRANCH  10  13
HETATM   13  C   UNL     1     -40.867 -46.584  10.685  1.00  0.00     0.057 C 
BRANCH  13  14
HETATM   14  C   UNL     1     -39.804 -45.497  10.511  1.00  0.00     0.002 C 
HETATM   15  C   UNL     1     -40.292 -44.152  11.026  1.00  0.00     0.005 C 
ENDBRANCH  13  14
ENDBRANCH  10  13
ENDBRANCH   1   7
BRANCH   4  16
HETATM   16  C   UNL     1     -43.092 -52.092  13.653  1.00  0.00     0.129 C 
BRANCH  16  17
HETATM   17  C   UNL     1     -44.348 -52.190  12.766  1.00  0.00     0.006 C 
HETATM   18  C   UNL     1     -45.478 -51.239  13.205  1.00  0.00     0.006 C 
HETATM   19  C   UNL     1     -46.188 -51.679  14.485  1.00  0.00     0.003 C 
HETATM   20  C   UNL     1     -46.630 -53.139  14.431  1.00  0.00     0.032 C 
HETATM   21  C   UNL     1     -45.471 -54.062  14.058  1.00  0.00     0.118 C 
HETATM   22  C   UNL     1     -44.858 -53.637  12.723  1.00  0.00     0.038 C 
BRANCH  21  23
HETATM   23  O   UNL     1     -45.921 -55.404  13.973  1.00  0.00    -0.396 OA
HETATM   24  H   UNL     1     -45.196 -55.949  13.624  1.00  0.00     0.210 HD
ENDBRANCH  21  23
ENDBRANCH  16  17
ENDBRANCH   4  16
TORSDOF 6
ENDMDL
MODEL 6
REMARK VINA RESULT:      -5.7      1.919      2.501
REMARK  6 active torsions:
REMARK  status: ('A' for Active; 'I' for Inactive)
REMARK    1  A    between atoms: C_2  and  C_3 
REMARK    2  A    between atoms: C_3  and  C_4 
REMARK    3  A    between atoms: C_7  and  N_8 
REMARK       I    between atoms: N_8  and  C_9 
REMARK       I    between atoms: C_9  and  N_11 
REMARK    4  A    between atoms: N_11  and  C_12 
REMARK    5  A    between atoms: C_12  and  C_13 
REMARK    6  A    between atoms: C_17  and  O_18 
ROOT
HETATM    1  N   UNL     1     -39.602 -47.951  11.241  1.00  0.00    -0.289 N 
HETATM    2  C   UNL     1     -39.324 -49.039  12.020  1.00  0.00     0.322 C 
HETATM    3  O   UNL     1     -38.159 -49.361  12.239  1.00  0.00    -0.247 OA
HETATM    4  N   UNL     1     -40.396 -49.678  12.565  1.00  0.00    -0.342 N 
HETATM    5  H   UNL     1     -38.813 -47.412  10.918  1.00  0.00     0.172 HD
HETATM    6  H   UNL     1     -41.314 -49.378  12.247  1.00  0.00     0.164 HD
ENDROOT
BRANCH   1   7
HETATM    7  C   UNL     1     -40.865 -47.532  10.933  1.00  0.00     0.152 A 
HETATM    8  S   UNL     1     -41.571 -46.395  11.978  1.00  0.00    -0.064 SA
HETATM    9  C   UNL     1     -43.013 -46.471  11.038  1.00  0.00     0.078 A 
HETATM   10  C   UNL     1     -42.831 -47.319   9.959  1.00  0.00     0.018 A 
HETATM   11  N   UNL     1     -41.597 -47.935   9.924  1.00  0.00    -0.340 N 
ATOM     12  HN  UNL     1     -41.299 -48.604   9.215  1.00  0.00     0.168 HD
BRANCH  10  13
HETATM   13  C   UNL     1     -43.790 -47.611   8.850  1.00  0.00     0.057 C 
BRANCH  13  14
HETATM   14  C   UNL     1     -45.196 -47.079   9.135  1.00  0.00     0.002 C 
HETATM   15  C   UNL     1     -46.259 -48.125   8.837  1.00  0.00     0.005 C 
ENDBRANCH  13  14
ENDBRANCH  10  13
ENDBRANCH   1   7
BRANCH   4  16
HETATM   16  C   UNL     1     -40.334 -50.772  13.500  1.00  0.00     0.129 C 
BRANCH  16  17
HETATM   17  C   UNL     1     -40.210 -52.120  12.765  1.00  0.00     0.006 C 
HETATM   18  C   UNL     1     -41.397 -52.410  11.825  1.00  0.00     0.006 C 
HETATM   19  C   UNL     1     -42.686 -52.779  12.559  1.00  0.00     0.003 C 
HETATM   20  C   UNL     1     -42.468 -53.878  13.596  1.00  0.00     0.032 C 
HETATM   21  C   UNL     1     -41.328 -53.529  14.553  1.00  0.00     0.118 C 
HETATM   22  C   UNL     1     -40.040 -53.263  13.774  1.00  0.00     0.038 C 
BRANCH  21  23
HETATM   23  O   UNL     1     -41.121 -54.587  15.475  1.00  0.00    -0.396 OA
HETATM   24  H   UNL     1     -41.985 -54.971  15.698  1.00  0.00     0.210 HD
ENDBRANCH  21  23
ENDBRANCH  16  17
ENDBRANCH   4  16
TORSDOF 6
ENDMDL
MODEL 7
REMARK VINA RESULT:      -5.6      3.825      6.065
REMARK  6 active torsions:
REMARK  status: ('A' for Active; 'I' for Inactive)
REMARK    1  A    between atoms: C_2  and  C_3 
REMARK    2  A    between atoms: C_3  and  C_4 
REMARK    3  A    between atoms: C_7  and  N_8 
REMARK       I    between atoms: N_8  and  C_9 
REMARK       I    between atoms: C_9  and  N_11 
REMARK    4  A    between atoms: N_11  and  C_12 
REMARK    5  A    between atoms: C_12  and  C_13 
REMARK    6  A    between atoms: C_17  and  O_18 
ROOT
HETATM    1  N   UNL     1     -40.981 -54.302  13.514  1.00  0.00    -0.289 N 
HETATM    2  C   UNL     1     -40.091 -53.270  13.619  1.00  0.00     0.322 C 
HETATM    3  O   UNL     1     -38.887 -53.477  13.487  1.00  0.00    -0.247 OA
HETATM    4  N   UNL     1     -40.625 -52.032  13.812  1.00  0.00    -0.342 N 
HETATM    5  H   UNL     1     -40.601 -55.204  13.270  1.00  0.00     0.172 HD
HETATM    6  H   UNL     1     -41.625 -51.992  13.991  1.00  0.00     0.164 HD
ENDROOT
BRANCH   1   7
HETATM    7  C   UNL     1     -42.332 -54.166  13.662  1.00  0.00     0.152 A 
HETATM    8  S   UNL     1     -43.031 -54.908  15.020  1.00  0.00    -0.064 SA
HETATM    9  C   UNL     1     -44.580 -54.398  14.463  1.00  0.00     0.078 A 
HETATM   10  C   UNL     1     -44.445 -53.647  13.308  1.00  0.00     0.018 A 
HETATM   11  N   UNL     1     -43.148 -53.539  12.851  1.00  0.00    -0.340 N 
ATOM     12  HN  UNL     1     -42.865 -53.044  12.005  1.00  0.00     0.168 HD
BRANCH  10  13
HETATM   13  C   UNL     1     -45.518 -52.943  12.540  1.00  0.00     0.057 C 
BRANCH  13  14
HETATM   14  C   UNL     1     -45.700 -51.491  12.984  1.00  0.00     0.002 C 
HETATM   15  C   UNL     1     -46.667 -51.383  14.154  1.00  0.00     0.005 C 
ENDBRANCH  13  14
ENDBRANCH  10  13
ENDBRANCH   1   7
BRANCH   4  16
HETATM   16  C   UNL     1     -39.887 -50.796  13.840  1.00  0.00     0.129 C 
BRANCH  16  17
HETATM   17  C   UNL     1     -39.400 -50.412  12.430  1.00  0.00     0.006 C 
HETATM   18  C   UNL     1     -38.523 -49.143  12.414  1.00  0.00     0.006 C 
HETATM   19  C   UNL     1     -39.309 -47.851  12.639  1.00  0.00     0.003 C 
HETATM   20  C   UNL     1     -40.523 -47.744  11.720  1.00  0.00     0.032 C 
HETATM   21  C   UNL     1     -41.406 -48.988  11.808  1.00  0.00     0.118 C 
HETATM   22  C   UNL     1     -40.595 -50.243  11.482  1.00  0.00     0.038 C 
BRANCH  21  23
HETATM   23  O   UNL     1     -42.500 -48.877  10.913  1.00  0.00    -0.396 OA
HETATM   24  H   UNL     1     -42.201 -49.151  10.030  1.00  0.00     0.210 HD
ENDBRANCH  21  23
ENDBRANCH  16  17
ENDBRANCH   4  16
TORSDOF 6
ENDMDL
MODEL 8
REMARK VINA RESULT:      -5.2      3.040      5.847
REMARK  6 active torsions:
REMARK  status: ('A' for Active; 'I' for Inactive)
REMARK    1  A    between atoms: C_2  and  C_3 
REMARK    2  A    between atoms: C_3  and  C_4 
REMARK    3  A    between atoms: C_7  and  N_8 
REMARK       I    between atoms: N_8  and  C_9 
REMARK       I    between atoms: C_9  and  N_11 
REMARK    4  A    between atoms: N_11  and  C_12 
REMARK    5  A    between atoms: C_12  and  C_13 
REMARK    6  A    between atoms: C_17  and  O_18 
ROOT
HETATM    1  N   UNL     1     -39.591 -50.606  13.218  1.00  0.00    -0.289 N 
HETATM    2  C   UNL     1     -39.264 -49.370  12.734  1.00  0.00     0.322 C 
HETATM    3  O   UNL     1     -38.105 -48.970  12.795  1.00  0.00    -0.247 OA
HETATM    4  N   UNL     1     -40.273 -48.668  12.146  1.00  0.00    -0.342 N 
HETATM    5  H   UNL     1     -38.831 -51.172  13.563  1.00  0.00     0.172 HD
HETATM    6  H   UNL     1     -41.207 -49.060  12.230  1.00  0.00     0.164 HD
ENDROOT
BRANCH   1   7
HETATM    7  C   UNL     1     -40.855 -51.123  13.208  1.00  0.00     0.152 A 
HETATM    8  S   UNL     1     -41.178 -52.331  12.059  1.00  0.00    -0.064 SA
HETATM    9  C   UNL     1     -42.815 -52.360  12.594  1.00  0.00     0.078 A 
HETATM   10  C   UNL     1     -42.983 -51.483  13.652  1.00  0.00     0.018 A 
HETATM   11  N   UNL     1     -41.851 -50.766  13.980  1.00  0.00    -0.340 N 
ATOM     12  HN  UNL     1     -41.798 -50.063  14.716  1.00  0.00     0.168 HD
BRANCH  10  13
HETATM   13  C   UNL     1     -44.217 -51.254  14.467  1.00  0.00     0.057 C 
BRANCH  13  14
HETATM   14  C   UNL     1     -45.484 -51.209  13.612  1.00  0.00     0.002 C 
HETATM   15  C   UNL     1     -46.728 -51.484  14.444  1.00  0.00     0.005 C 
ENDBRANCH  13  14
ENDBRANCH  10  13
ENDBRANCH   1   7
BRANCH   4  16
HETATM   16  C   UNL     1     -40.132 -47.402  11.475  1.00  0.00     0.129 C 
BRANCH  16  17
HETATM   17  C   UNL     1     -41.302 -46.462  11.821  1.00  0.00     0.006 C 
HETATM   18  C   UNL     1     -42.485 -47.185  12.494  1.00  0.00     0.006 C 
HETATM   19  C   UNL     1     -43.297 -48.056  11.536  1.00  0.00     0.003 C 
HETATM   20  C   UNL     1     -43.704 -47.304  10.271  1.00  0.00     0.032 C 
HETATM   21  C   UNL     1     -42.499 -46.654   9.593  1.00  0.00     0.118 C 
HETATM   22  C   UNL     1     -41.778 -45.720  10.565  1.00  0.00     0.038 C 
BRANCH  21  23
HETATM   23  O   UNL     1     -42.914 -45.928   8.448  1.00  0.00    -0.396 OA
HETATM   24  H   UNL     1     -42.505 -46.331   7.664  1.00  0.00     0.210 HD
ENDBRANCH  21  23
ENDBRANCH  16  17
ENDBRANCH   4  16
TORSDOF 6
ENDMDL
MODEL 9
REMARK VINA RESULT:      -5.2      1.960      2.624
REMARK  6 active torsions:
REMARK  status: ('A' for Active; 'I' for Inactive)
REMARK    1  A    between atoms: C_2  and  C_3 
REMARK    2  A    between atoms: C_3  and  C_4 
REMARK    3  A    between atoms: C_7  and  N_8 
REMARK       I    between atoms: N_8  and  C_9 
REMARK       I    between atoms: C_9  and  N_11 
REMARK    4  A    between atoms: N_11  and  C_12 
REMARK    5  A    between atoms: C_12  and  C_13 
REMARK    6  A    between atoms: C_17  and  O_18 
ROOT
HETATM    1  N   UNL     1     -38.985 -49.836  12.254  1.00  0.00    -0.289 N 
HETATM    2  C   UNL     1     -39.485 -50.980  12.813  1.00  0.00     0.322 C 
HETATM    3  O   UNL     1     -38.766 -51.966  12.947  1.00  0.00    -0.247 OA
HETATM    4  N   UNL     1     -40.773 -50.923  13.248  1.00  0.00    -0.342 N 
HETATM    5  H   UNL     1     -38.003 -49.837  12.022  1.00  0.00     0.172 HD
HETATM    6  H   UNL     1     -41.298 -50.086  13.008  1.00  0.00     0.164 HD
ENDROOT
BRANCH   1   7
HETATM    7  C   UNL     1     -39.716 -48.700  12.052  1.00  0.00     0.152 A 
HETATM    8  S   UNL     1     -39.661 -47.526  13.277  1.00  0.00    -0.064 SA
HETATM    9  C   UNL     1     -40.791 -46.582  12.382  1.00  0.00     0.078 A 
HETATM   10  C   UNL     1     -41.085 -47.208  11.182  1.00  0.00     0.018 A 
HETATM   11  N   UNL     1     -40.473 -48.433  11.016  1.00  0.00    -0.340 N 
ATOM     12  HN  UNL     1     -40.592 -49.041  10.206  1.00  0.00     0.168 HD
BRANCH  10  13
HETATM   13  C   UNL     1     -41.950 -46.702  10.072  1.00  0.00     0.057 C 
BRANCH  13  14
HETATM   14  C   UNL     1     -43.024 -47.710   9.659  1.00  0.00     0.002 C 
HETATM   15  C   UNL     1     -43.563 -47.412   8.269  1.00  0.00     0.005 C 
ENDBRANCH  13  14
ENDBRANCH  10  13
ENDBRANCH   1   7
BRANCH   4  16
HETATM   16  C   UNL     1     -41.463 -51.966  13.963  1.00  0.00     0.129 C 
BRANCH  16  17
HETATM   17  C   UNL     1     -41.851 -53.119  13.018  1.00  0.00     0.006 C 
HETATM   18  C   UNL     1     -43.184 -52.879  12.281  1.00  0.00     0.006 C 
HETATM   19  C   UNL     1     -44.414 -53.024  13.177  1.00  0.00     0.003 C 
HETATM   20  C   UNL     1     -44.402 -54.328  13.972  1.00  0.00     0.032 C 
HETATM   21  C   UNL     1     -43.094 -54.503  14.742  1.00  0.00     0.118 C 
HETATM   22  C   UNL     1     -41.900 -54.445  13.788  1.00  0.00     0.038 C 
BRANCH  21  23
HETATM   23  O   UNL     1     -43.095 -55.740  15.434  1.00  0.00    -0.396 OA
HETATM   24  H   UNL     1     -42.405 -55.709  16.118  1.00  0.00     0.210 HD
ENDBRANCH  21  23
ENDBRANCH  16  17
ENDBRANCH   4  16
TORSDOF 6
ENDMDL
