MODEL 1
REMARK VINA RESULT:      -6.4      0.000      0.000
REMARK  5 active torsions:
REMARK  status: ('A' for Active; 'I' for Inactive)
REMARK    1  A    between atoms: N_2  and  C_3 
REMARK       I    between atoms: N_2  and  C_21 
REMARK    2  A    between atoms: C_3  and  C_4 
REMARK       I    between atoms: C_4  and  N_6 
REMARK    3  A    between atoms: N_6  and  C_7 
REMARK    4  A    between atoms: C_7  and  C_8 
REMARK    5  A    between atoms: C_13  and  N_15 
ROOT
HETATM    1  C   UNL     1     -42.356 -50.012  12.450  1.00  0.00    -0.036 A 
HETATM    2  C   UNL     1     -41.261 -50.682  11.912  1.00  0.00     0.026 A 
HETATM    3  C   UNL     1     -41.315 -52.061  11.850  1.00  0.00     0.090 A 
HETATM    4  N   UNL     1     -42.361 -52.798  12.284  1.00  0.00    -0.352 N 
ATOM      5  HN  UNL     1     -42.344 -53.815  12.202  1.00  0.00     0.166 HD
HETATM    6  C   UNL     1     -43.431 -52.176  12.827  1.00  0.00     0.103 A 
HETATM    7  C   UNL     1     -43.425 -50.781  12.943  1.00  0.00     0.057 A 
ENDROOT
BRANCH   1   8
HETATM    8  C   UNL     1     -42.450 -48.510  12.411  1.00  0.00     0.161 C 
BRANCH   8   9
HETATM    9  N   UNL     1     -43.388 -47.970  11.450  1.00  0.00    -0.355 N 
HETATM   10  C   UNL     1     -42.899 -47.179  10.420  1.00  0.00     0.235 C 
HETATM   11  O   UNL     1     -41.697 -46.944  10.296  1.00  0.00    -0.272 OA
HETATM   12  H   UNL     1     -44.349 -48.289  11.457  1.00  0.00     0.162 HD
BRANCH  10  13
HETATM   13  C   UNL     1     -43.947 -46.576   9.467  1.00  0.00     0.227 C 
BRANCH  13  14
HETATM   14  N   UNL     1     -44.481 -47.547   8.503  1.00  0.00    -0.348 N 
HETATM   15  C   UNL     1     -43.546 -48.129   7.556  1.00  0.00     0.153 C 
HETATM   16  C   UNL     1     -45.799 -47.969   8.399  1.00  0.00     0.215 C 
HETATM   17  O   UNL     1     -46.135 -48.828   7.575  1.00  0.00    -0.274 OA
HETATM   18  C   UNL     1     -46.848 -47.390   9.316  1.00  0.00     0.117 C 
ENDBRANCH  13  14
ENDBRANCH  10  13
ENDBRANCH   8   9
ENDBRANCH   1   8
BRANCH   6  19
HETATM   19  N   UNL     1     -44.477 -52.957  13.316  1.00  0.00    -0.363 N 
HETATM   20  C   UNL     1     -44.234 -54.361  13.696  1.00  0.00     0.150 C 
HETATM   21  C   UNL     1     -45.583 -55.086  13.843  1.00  0.00     0.187 C 
HETATM   22  O   UNL     1     -46.428 -54.443  14.808  1.00  0.00    -0.388 OA
HETATM   23  C   UNL     1     -46.680 -53.083  14.415  1.00  0.00     0.187 C 
HETATM   24  C   UNL     1     -45.376 -52.279  14.278  1.00  0.00     0.150 C 
ENDBRANCH   6  19
TORSDOF 5
ENDMDL
MODEL 2
REMARK VINA RESULT:      -6.2      2.047      6.980
REMARK  5 active torsions:
REMARK  status: ('A' for Active; 'I' for Inactive)
REMARK    1  A    between atoms: N_2  and  C_3 
REMARK       I    between atoms: N_2  and  C_21 
REMARK    2  A    between atoms: C_3  and  C_4 
REMARK       I    between atoms: C_4  and  N_6 
REMARK    3  A    between atoms: N_6  and  C_7 
REMARK    4  A    between atoms: C_7  and  C_8 
REMARK    5  A    between atoms: C_13  and  N_15 
ROOT
HETATM    1  C   UNL     1     -40.358 -50.918  11.951  1.00  0.00    -0.036 A 
HETATM    2  C   UNL     1     -39.092 -50.577  12.418  1.00  0.00     0.026 A 
HETATM    3  C   UNL     1     -38.740 -49.241  12.411  1.00  0.00     0.090 A 
HETATM    4  N   UNL     1     -39.544 -48.248  11.973  1.00  0.00    -0.352 N 
ATOM      5  HN  UNL     1     -39.228 -47.279  12.002  1.00  0.00     0.166 HD
HETATM    6  C   UNL     1     -40.772 -48.550  11.497  1.00  0.00     0.103 A 
HETATM    7  C   UNL     1     -41.178 -49.890  11.452  1.00  0.00     0.057 A 
ENDROOT
BRANCH   1   8
HETATM    8  C   UNL     1     -40.884 -52.324  12.070  1.00  0.00     0.161 C 
BRANCH   8   9
HETATM    9  N   UNL     1     -42.284 -52.494  11.747  1.00  0.00    -0.355 N 
HETATM   10  C   UNL     1     -43.183 -52.694  12.785  1.00  0.00     0.235 C 
HETATM   11  O   UNL     1     -42.822 -52.712  13.961  1.00  0.00    -0.272 OA
HETATM   12  H   UNL     1     -42.602 -52.323  10.801  1.00  0.00     0.162 HD
BRANCH  10  13
HETATM   13  C   UNL     1     -44.648 -52.937  12.381  1.00  0.00     0.227 C 
BRANCH  13  14
HETATM   14  N   UNL     1     -45.453 -53.540  13.452  1.00  0.00    -0.348 N 
HETATM   15  C   UNL     1     -45.319 -54.970  13.663  1.00  0.00     0.153 C 
HETATM   16  C   UNL     1     -46.339 -52.879  14.292  1.00  0.00     0.215 C 
HETATM   17  O   UNL     1     -46.936 -53.478  15.194  1.00  0.00    -0.274 OA
HETATM   18  C   UNL     1     -46.571 -51.397  14.123  1.00  0.00     0.117 C 
ENDBRANCH  13  14
ENDBRANCH  10  13
ENDBRANCH   8   9
ENDBRANCH   1   8
BRANCH   6  19
HETATM   19  N   UNL     1     -41.567 -47.517  11.002  1.00  0.00    -0.363 N 
HETATM   20  C   UNL     1     -40.995 -46.170  10.819  1.00  0.00     0.150 C 
HETATM   21  C   UNL     1     -42.138 -45.158  10.624  1.00  0.00     0.187 C 
HETATM   22  O   UNL     1     -42.970 -45.507   9.508  1.00  0.00    -0.388 OA
HETATM   23  C   UNL     1     -43.542 -46.810   9.708  1.00  0.00     0.187 C 
HETATM   24  C   UNL     1     -42.458 -47.888   9.879  1.00  0.00     0.150 C 
ENDBRANCH   6  19
TORSDOF 5
ENDMDL
MODEL 3
REMARK VINA RESULT:      -5.9      3.002      7.042
REMARK  5 active torsions:
REMARK  status: ('A' for Active; 'I' for Inactive)
REMARK    1  A    between atoms: N_2  and  C_3 
REMARK       I    between atoms: N_2  and  C_21 
REMARK    2  A    between atoms: C_3  and  C_4 
REMARK       I    between atoms: C_4  and  N_6 
REMARK    3  A    between atoms: N_6  and  C_7 
REMARK    4  A    between atoms: C_7  and  C_8 
REMARK    5  A    between atoms: C_13  and  N_15 
ROOT
HETATM    1  C   UNL     1     -38.731 -50.901  13.207  1.00  0.00    -0.036 A 
HETATM    2  C   UNL     1     -37.547 -50.946  12.477  1.00  0.00     0.026 A 
HETATM    3  C   UNL     1     -37.403 -50.059  11.427  1.00  0.00     0.090 A 
HETATM    4  N   UNL     1     -38.342 -49.159  11.062  1.00  0.00    -0.352 N 
ATOM      5  HN  UNL     1     -38.170 -48.525  10.281  1.00  0.00     0.166 HD
HETATM    6  C   UNL     1     -39.509 -49.105  11.741  1.00  0.00     0.103 A 
HETATM    7  C   UNL     1     -39.726 -49.996  12.799  1.00  0.00     0.057 A 
ENDROOT
BRANCH   1   8
HETATM    8  C   UNL     1     -38.908 -51.716  14.461  1.00  0.00     0.161 C 
BRANCH   8   9
HETATM    9  N   UNL     1     -40.211 -52.322  14.630  1.00  0.00    -0.355 N 
HETATM   10  C   UNL     1     -40.463 -53.536  14.008  1.00  0.00     0.235 C 
HETATM   11  O   UNL     1     -39.607 -54.112  13.337  1.00  0.00    -0.272 OA
HETATM   12  H   UNL     1     -40.858 -51.933  15.305  1.00  0.00     0.162 HD
BRANCH  10  13
HETATM   13  C   UNL     1     -41.886 -54.101  14.166  1.00  0.00     0.227 C 
BRANCH  13  14
HETATM   14  N   UNL     1     -42.838 -53.555  13.187  1.00  0.00    -0.348 N 
HETATM   15  C   UNL     1     -42.345 -52.542  12.272  1.00  0.00     0.153 C 
HETATM   16  C   UNL     1     -44.173 -53.909  13.047  1.00  0.00     0.215 C 
HETATM   17  O   UNL     1     -44.877 -53.417  12.158  1.00  0.00    -0.274 OA
HETATM   18  C   UNL     1     -44.782 -54.927  13.980  1.00  0.00     0.117 C 
ENDBRANCH  13  14
ENDBRANCH  10  13
ENDBRANCH   8   9
ENDBRANCH   1   8
BRANCH   6  19
HETATM   19  N   UNL     1     -40.485 -48.204  11.316  1.00  0.00    -0.363 N 
HETATM   20  C   UNL     1     -41.844 -48.684  11.003  1.00  0.00     0.150 C 
HETATM   21  C   UNL     1     -42.597 -47.592  10.223  1.00  0.00     0.187 C 
HETATM   22  O   UNL     1     -42.655 -46.360  10.957  1.00  0.00    -0.388 OA
HETATM   23  C   UNL     1     -41.325 -45.889  11.234  1.00  0.00     0.187 C 
HETATM   24  C   UNL     1     -40.515 -46.915  12.044  1.00  0.00     0.150 C 
ENDBRANCH   6  19
TORSDOF 5
ENDMDL
MODEL 4
REMARK VINA RESULT:      -5.8      2.362      3.203
REMARK  5 active torsions:
REMARK  status: ('A' for Active; 'I' for Inactive)
REMARK    1  A    between atoms: N_2  and  C_3 
REMARK       I    between atoms: N_2  and  C_21 
REMARK    2  A    between atoms: C_3  and  C_4 
REMARK       I    between atoms: C_4  and  N_6 
REMARK    3  A    between atoms: N_6  and  C_7 
REMARK    4  A    between atoms: C_7  and  C_8 
REMARK    5  A    between atoms: C_13  and  N_15 
ROOT
HETATM    1  C   UNL     1     -42.913 -50.253  12.902  1.00  0.00    -0.036 A 
HETATM    2  C   UNL     1     -44.236 -50.514  13.244  1.00  0.00     0.026 A 
HETATM    3  C   UNL     1     -44.505 -51.677  13.940  1.00  0.00     0.090 A 
HETATM    4  N   UNL     1     -43.565 -52.577  14.302  1.00  0.00    -0.352 N 
ATOM      5  HN  UNL     1     -43.828 -53.414  14.823  1.00  0.00     0.166 HD
HETATM    6  C   UNL     1     -42.274 -52.359  13.968  1.00  0.00     0.103 A 
HETATM    7  C   UNL     1     -41.941 -51.212  13.239  1.00  0.00     0.057 A 
ENDROOT
BRANCH   1   8
HETATM    8  C   UNL     1     -42.508 -48.939  12.288  1.00  0.00     0.161 C 
BRANCH   8   9
HETATM    9  N   UNL     1     -43.480 -48.342  11.397  1.00  0.00    -0.355 N 
HETATM   10  C   UNL     1     -43.028 -47.500  10.392  1.00  0.00     0.235 C 
HETATM   11  O   UNL     1     -41.832 -47.264  10.231  1.00  0.00    -0.272 OA
HETATM   12  H   UNL     1     -44.443 -48.656  11.427  1.00  0.00     0.162 HD
BRANCH  10  13
HETATM   13  C   UNL     1     -44.110 -46.840   9.518  1.00  0.00     0.227 C 
BRANCH  13  14
HETATM   14  N   UNL     1     -44.618 -47.723   8.459  1.00  0.00    -0.348 N 
HETATM   15  C   UNL     1     -43.664 -48.199   7.473  1.00  0.00     0.153 C 
HETATM   16  C   UNL     1     -45.928 -48.153   8.299  1.00  0.00     0.215 C 
HETATM   17  O   UNL     1     -46.242 -48.935   7.394  1.00  0.00    -0.274 OA
HETATM   18  C   UNL     1     -46.996 -47.680   9.255  1.00  0.00     0.117 C 
ENDBRANCH  13  14
ENDBRANCH  10  13
ENDBRANCH   8   9
ENDBRANCH   1   8
BRANCH   6  19
HETATM   19  N   UNL     1     -41.327 -53.326  14.305  1.00  0.00    -0.363 N 
HETATM   20  C   UNL     1     -39.968 -53.257  13.737  1.00  0.00     0.150 C 
HETATM   21  C   UNL     1     -39.257 -54.602  13.961  1.00  0.00     0.187 C 
HETATM   22  O   UNL     1     -39.204 -54.948  15.353  1.00  0.00    -0.388 OA
HETATM   23  C   UNL     1     -40.534 -55.038  15.890  1.00  0.00     0.187 C 
HETATM   24  C   UNL     1     -41.303 -53.715  15.733  1.00  0.00     0.150 C 
ENDBRANCH   6  19
TORSDOF 5
ENDMDL
MODEL 5
REMARK VINA RESULT:      -5.5      2.641      6.987
REMARK  5 active torsions:
REMARK  status: ('A' for Active; 'I' for Inactive)
REMARK    1  A    between atoms: N_2  and  C_3 
REMARK       I    between atoms: N_2  and  C_21 
REMARK    2  A    between atoms: C_3  and  C_4 
REMARK       I    between atoms: C_4  and  N_6 
REMARK    3  A    between atoms: N_6  and  C_7 
REMARK    4  A    between atoms: C_7  and  C_8 
REMARK    5  A    between atoms: C_13  and  N_15 
ROOT
HETATM    1  C   UNL     1     -40.259 -52.330  13.040  1.00  0.00    -0.036 A 
HETATM    2  C   UNL     1     -39.271 -52.091  13.991  1.00  0.00     0.026 A 
HETATM    3  C   UNL     1     -38.818 -50.794  14.139  1.00  0.00     0.090 A 
HETATM    4  N   UNL     1     -39.269 -49.747  13.414  1.00  0.00    -0.352 N 
ATOM      5  HN  UNL     1     -38.899 -48.811  13.578  1.00  0.00     0.166 HD
HETATM    6  C   UNL     1     -40.215 -49.952  12.471  1.00  0.00     0.103 A 
HETATM    7  C   UNL     1     -40.696 -51.249  12.254  1.00  0.00     0.057 A 
ENDROOT
BRANCH   1   8
HETATM    8  C   UNL     1     -40.923 -53.676  12.922  1.00  0.00     0.161 C 
BRANCH   8   9
HETATM    9  N   UNL     1     -42.322 -53.651  12.550  1.00  0.00    -0.355 N 
HETATM   10  C   UNL     1     -43.255 -54.143  13.451  1.00  0.00     0.235 C 
HETATM   11  O   UNL     1     -42.927 -54.579  14.553  1.00  0.00    -0.272 OA
HETATM   12  H   UNL     1     -42.607 -53.151  11.717  1.00  0.00     0.162 HD
BRANCH  10  13
HETATM   13  C   UNL     1     -44.719 -54.154  12.976  1.00  0.00     0.227 C 
BRANCH  13  14
HETATM   14  N   UNL     1     -45.646 -53.547  13.941  1.00  0.00    -0.348 N 
HETATM   15  C   UNL     1     -46.381 -54.444  14.815  1.00  0.00     0.153 C 
HETATM   16  C   UNL     1     -45.898 -52.191  14.105  1.00  0.00     0.215 C 
HETATM   17  O   UNL     1     -46.669 -51.783  14.982  1.00  0.00    -0.274 OA
HETATM   18  C   UNL     1     -45.208 -51.186  13.216  1.00  0.00     0.117 C 
ENDBRANCH  13  14
ENDBRANCH  10  13
ENDBRANCH   8   9
ENDBRANCH   1   8
BRANCH   6  19
HETATM   19  N   UNL     1     -40.630 -48.867  11.699  1.00  0.00    -0.363 N 
HETATM   20  C   UNL     1     -42.047 -48.737  11.310  1.00  0.00     0.150 C 
HETATM   21  C   UNL     1     -42.168 -47.695  10.185  1.00  0.00     0.187 C 
HETATM   22  O   UNL     1     -41.636 -46.422  10.581  1.00  0.00    -0.388 OA
HETATM   23  C   UNL     1     -40.249 -46.556  10.933  1.00  0.00     0.187 C 
HETATM   24  C   UNL     1     -40.046 -47.561  12.080  1.00  0.00     0.150 C 
ENDBRANCH   6  19
TORSDOF 5
ENDMDL
MODEL 6
REMARK VINA RESULT:      -5.4      2.107      2.984
REMARK  5 active torsions:
REMARK  status: ('A' for Active; 'I' for Inactive)
REMARK    1  A    between atoms: N_2  and  C_3 
REMARK       I    between atoms: N_2  and  C_21 
REMARK    2  A    between atoms: C_3  and  C_4 
REMARK       I    between atoms: C_4  and  N_6 
REMARK    3  A    between atoms: N_6  and  C_7 
REMARK    4  A    between atoms: C_7  and  C_8 
REMARK    5  A    between atoms: C_13  and  N_15 
ROOT
HETATM    1  C   UNL     1     -39.871 -51.174  13.482  1.00  0.00    -0.036 A 
HETATM    2  C   UNL     1     -38.940 -52.071  13.997  1.00  0.00     0.026 A 
HETATM    3  C   UNL     1     -39.383 -53.336  14.337  1.00  0.00     0.090 A 
HETATM    4  N   UNL     1     -40.662 -53.750  14.206  1.00  0.00    -0.352 N 
ATOM      5  HN  UNL     1     -40.924 -54.701  14.468  1.00  0.00     0.166 HD
HETATM    6  C   UNL     1     -41.591 -52.895  13.725  1.00  0.00     0.103 A 
HETATM    7  C   UNL     1     -41.210 -51.590  13.388  1.00  0.00     0.057 A 
ENDROOT
BRANCH   1   8
HETATM    8  C   UNL     1     -39.448 -49.835  12.938  1.00  0.00     0.161 C 
BRANCH   8   9
HETATM    9  N   UNL     1     -40.458 -48.799  12.979  1.00  0.00    -0.355 N 
HETATM   10  C   UNL     1     -41.140 -48.493  11.810  1.00  0.00     0.235 C 
HETATM   11  O   UNL     1     -40.920 -49.087  10.756  1.00  0.00    -0.272 OA
HETATM   12  H   UNL     1     -40.749 -48.422  13.872  1.00  0.00     0.162 HD
BRANCH  10  13
HETATM   13  C   UNL     1     -42.153 -47.338  11.896  1.00  0.00     0.227 C 
BRANCH  13  14
HETATM   14  N   UNL     1     -42.181 -46.500  10.688  1.00  0.00    -0.348 N 
HETATM   15  C   UNL     1     -41.081 -45.572  10.496  1.00  0.00     0.153 C 
HETATM   16  C   UNL     1     -43.160 -46.500   9.704  1.00  0.00     0.215 C 
HETATM   17  O   UNL     1     -43.063 -45.783   8.702  1.00  0.00    -0.274 OA
HETATM   18  C   UNL     1     -44.360 -47.405   9.839  1.00  0.00     0.117 C 
ENDBRANCH  13  14
ENDBRANCH  10  13
ENDBRANCH   8   9
ENDBRANCH   1   8
BRANCH   6  19
HETATM   19  N   UNL     1     -42.915 -53.325  13.647  1.00  0.00    -0.363 N 
HETATM   20  C   UNL     1     -43.695 -53.092  12.418  1.00  0.00     0.150 C 
HETATM   21  C   UNL     1     -45.188 -53.317  12.716  1.00  0.00     0.187 C 
HETATM   22  O   UNL     1     -45.433 -54.637  13.225  1.00  0.00    -0.388 OA
HETATM   23  C   UNL     1     -44.688 -54.844  14.436  1.00  0.00     0.187 C 
HETATM   24  C   UNL     1     -43.177 -54.669  14.213  1.00  0.00     0.150 C 
ENDBRANCH   6  19
TORSDOF 5
ENDMDL
MODEL 7
REMARK VINA RESULT:      -5.2      4.299      5.828
REMARK  5 active torsions:
REMARK  status: ('A' for Active; 'I' for Inactive)
REMARK    1  A    between atoms: N_2  and  C_3 
REMARK       I    between atoms: N_2  and  C_21 
REMARK    2  A    between atoms: C_3  and  C_4 
REMARK       I    between atoms: C_4  and  N_6 
REMARK    3  A    between atoms: N_6  and  C_7 
REMARK    4  A    between atoms: C_7  and  C_8 
REMARK    5  A    between atoms: C_13  and  N_15 
ROOT
HETATM    1  C   UNL     1     -43.397 -53.755  13.788  1.00  0.00    -0.036 A 
HETATM    2  C   UNL     1     -44.044 -53.619  12.563  1.00  0.00     0.026 A 
HETATM    3  C   UNL     1     -45.301 -53.044  12.558  1.00  0.00     0.090 A 
HETATM    4  N   UNL     1     -45.941 -52.613  13.667  1.00  0.00    -0.352 N 
ATOM      5  HN  UNL     1     -46.866 -52.189  13.595  1.00  0.00     0.166 HD
HETATM    6  C   UNL     1     -45.344 -52.748  14.872  1.00  0.00     0.103 A 
HETATM    7  C   UNL     1     -44.081 -53.348  14.947  1.00  0.00     0.057 A 
ENDROOT
BRANCH   1   8
HETATM    8  C   UNL     1     -41.967 -54.221  13.869  1.00  0.00     0.161 C 
BRANCH   8   9
HETATM    9  N   UNL     1     -40.994 -53.192  14.167  1.00  0.00    -0.355 N 
HETATM   10  C   UNL     1     -40.294 -52.618  13.116  1.00  0.00     0.235 C 
HETATM   11  O   UNL     1     -40.494 -52.947  11.947  1.00  0.00    -0.272 OA
HETATM   12  H   UNL     1     -40.942 -52.812  15.104  1.00  0.00     0.162 HD
BRANCH  10  13
HETATM   13  C   UNL     1     -39.224 -51.580  13.496  1.00  0.00     0.227 C 
BRANCH  13  14
HETATM   14  N   UNL     1     -39.518 -50.231  12.991  1.00  0.00    -0.348 N 
HETATM   15  C   UNL     1     -40.719 -49.582  13.484  1.00  0.00     0.153 C 
HETATM   16  C   UNL     1     -38.761 -49.507  12.079  1.00  0.00     0.215 C 
HETATM   17  O   UNL     1     -39.078 -48.358  11.753  1.00  0.00    -0.274 OA
HETATM   18  C   UNL     1     -37.516 -50.117  11.484  1.00  0.00     0.117 C 
ENDBRANCH  13  14
ENDBRANCH  10  13
ENDBRANCH   8   9
ENDBRANCH   1   8
BRANCH   6  19
HETATM   19  N   UNL     1     -46.043 -52.345  16.010  1.00  0.00    -0.363 N 
HETATM   20  C   UNL     1     -47.370 -51.716  15.875  1.00  0.00     0.150 C 
HETATM   21  C   UNL     1     -47.749 -51.045  17.207  1.00  0.00     0.187 C 
HETATM   22  O   UNL     1     -47.744 -51.983  18.293  1.00  0.00    -0.388 OA
HETATM   23  C   UNL     1     -46.439 -52.570  18.431  1.00  0.00     0.187 C 
HETATM   24  C   UNL     1     -46.000 -53.293  17.146  1.00  0.00     0.150 C 
ENDBRANCH   6  19
TORSDOF 5
ENDMDL
MODEL 8
REMARK VINA RESULT:      -5.2      3.206      7.750
REMARK  5 active torsions:
REMARK  status: ('A' for Active; 'I' for Inactive)
REMARK    1  A    between atoms: N_2  and  C_3 
REMARK       I    between atoms: N_2  and  C_21 
REMARK    2  A    between atoms: C_3  and  C_4 
REMARK       I    between atoms: C_4  and  N_6 
REMARK    3  A    between atoms: N_6  and  C_7 
REMARK    4  A    between atoms: C_7  and  C_8 
REMARK    5  A    between atoms: C_13  and  N_15 
ROOT
HETATM    1  C   UNL     1     -38.818 -50.126  13.901  1.00  0.00    -0.036 A 
HETATM    2  C   UNL     1     -37.862 -49.283  14.460  1.00  0.00     0.026 A 
HETATM    3  C   UNL     1     -37.926 -47.938  14.150  1.00  0.00     0.090 A 
HETATM    4  N   UNL     1     -38.854 -47.394  13.333  1.00  0.00    -0.352 N 
ATOM      5  HN  UNL     1     -38.852 -46.390  13.150  1.00  0.00     0.166 HD
HETATM    6  C   UNL     1     -39.784 -48.190  12.761  1.00  0.00     0.103 A 
HETATM    7  C   UNL     1     -39.756 -49.566  13.015  1.00  0.00     0.057 A 
ENDROOT
BRANCH   1   8
HETATM    8  C   UNL     1     -38.921 -51.572  14.308  1.00  0.00     0.161 C 
BRANCH   8   9
HETATM    9  N   UNL     1     -40.164 -52.229  13.962  1.00  0.00    -0.355 N 
HETATM   10  C   UNL     1     -40.126 -53.568  13.602  1.00  0.00     0.235 C 
HETATM   11  O   UNL     1     -39.075 -54.207  13.587  1.00  0.00    -0.272 OA
HETATM   12  H   UNL     1     -41.042 -51.752  14.125  1.00  0.00     0.162 HD
BRANCH  10  13
HETATM   13  C   UNL     1     -41.465 -54.197  13.178  1.00  0.00     0.227 C 
BRANCH  13  14
HETATM   14  N   UNL     1     -42.326 -54.552  14.315  1.00  0.00    -0.348 N 
HETATM   15  C   UNL     1     -41.670 -54.944  15.550  1.00  0.00     0.153 C 
HETATM   16  C   UNL     1     -43.714 -54.553  14.333  1.00  0.00     0.215 C 
HETATM   17  O   UNL     1     -44.342 -54.827  15.362  1.00  0.00    -0.274 OA
HETATM   18  C   UNL     1     -44.481 -54.194  13.084  1.00  0.00     0.117 C 
ENDBRANCH  13  14
ENDBRANCH  10  13
ENDBRANCH   8   9
ENDBRANCH   1   8
BRANCH   6  19
HETATM   19  N   UNL     1     -40.700 -47.616  11.880  1.00  0.00    -0.363 N 
HETATM   20  C   UNL     1     -40.391 -46.329  11.229  1.00  0.00     0.150 C 
HETATM   21  C   UNL     1     -41.678 -45.748  10.620  1.00  0.00     0.187 C 
HETATM   22  O   UNL     1     -42.277 -46.656   9.682  1.00  0.00    -0.388 OA
HETATM   23  C   UNL     1     -42.598 -47.896  10.333  1.00  0.00     0.187 C 
HETATM   24  C   UNL     1     -41.351 -48.559  10.942  1.00  0.00     0.150 C 
ENDBRANCH   6  19
TORSDOF 5
ENDMDL
MODEL 9
REMARK VINA RESULT:      -5.2      3.721      7.418
REMARK  5 active torsions:
REMARK  status: ('A' for Active; 'I' for Inactive)
REMARK    1  A    between atoms: N_2  and  C_3 
REMARK       I    between atoms: N_2  and  C_21 
REMARK    2  A    between atoms: C_3  and  C_4 
REMARK       I    between atoms: C_4  and  N_6 
REMARK    3  A    between atoms: N_6  and  C_7 
REMARK    4  A    between atoms: C_7  and  C_8 
REMARK    5  A    between atoms: C_13  and  N_15 
ROOT
HETATM    1  C   UNL     1     -42.578 -53.358  12.787  1.00  0.00    -0.036 A 
HETATM    2  C   UNL     1     -41.670 -54.196  13.428  1.00  0.00     0.026 A 
HETATM    3  C   UNL     1     -40.475 -53.648  13.854  1.00  0.00     0.090 A 
HETATM    4  N   UNL     1     -40.133 -52.352  13.682  1.00  0.00    -0.352 N 
ATOM      5  HN  UNL     1     -39.238 -52.007  14.028  1.00  0.00     0.166 HD
HETATM    6  C   UNL     1     -40.987 -51.519  13.047  1.00  0.00     0.103 A 
HETATM    7  C   UNL     1     -42.202 -52.021  12.567  1.00  0.00     0.057 A 
ENDROOT
BRANCH   1   8
HETATM    8  C   UNL     1     -43.963 -53.830  12.433  1.00  0.00     0.161 C 
BRANCH   8   9
HETATM    9  N   UNL     1     -44.983 -53.568  13.427  1.00  0.00    -0.355 N 
HETATM   10  C   UNL     1     -45.327 -54.584  14.306  1.00  0.00     0.235 C 
HETATM   11  O   UNL     1     -44.780 -55.685  14.272  1.00  0.00    -0.272 OA
HETATM   12  H   UNL     1     -45.319 -52.622  13.558  1.00  0.00     0.162 HD
BRANCH  10  13
HETATM   13  C   UNL     1     -46.464 -54.272  15.295  1.00  0.00     0.227 C 
BRANCH  13  14
HETATM   14  N   UNL     1     -46.046 -53.403  16.404  1.00  0.00    -0.348 N 
HETATM   15  C   UNL     1     -45.328 -54.023  17.503  1.00  0.00     0.153 C 
HETATM   16  C   UNL     1     -46.270 -52.037  16.513  1.00  0.00     0.215 C 
HETATM   17  O   UNL     1     -45.835 -51.390  17.472  1.00  0.00    -0.274 OA
HETATM   18  C   UNL     1     -47.041 -51.314  15.436  1.00  0.00     0.117 C 
ENDBRANCH  13  14
ENDBRANCH  10  13
ENDBRANCH   8   9
ENDBRANCH   1   8
BRANCH   6  19
HETATM   19  N   UNL     1     -40.592 -50.199  12.833  1.00  0.00    -0.363 N 
HETATM   20  C   UNL     1     -39.713 -49.867  11.697  1.00  0.00     0.150 C 
HETATM   21  C   UNL     1     -39.141 -48.453  11.897  1.00  0.00     0.187 C 
HETATM   22  O   UNL     1     -40.181 -47.474  12.031  1.00  0.00    -0.388 OA
HETATM   23  C   UNL     1     -41.016 -47.793  13.157  1.00  0.00     0.187 C 
HETATM   24  C   UNL     1     -41.656 -49.184  13.016  1.00  0.00     0.150 C 
ENDBRANCH   6  19
TORSDOF 5
ENDMDL
