MODEL 1
REMARK VINA RESULT:      -6.6      0.000      0.000
REMARK  4 active torsions:
REMARK  status: ('A' for Active; 'I' for Inactive)
REMARK       I    between atoms: C_2  and  N_3 
REMARK    1  A    between atoms: C_2  and  C_13 
REMARK    2  A    between atoms: N_3  and  C_4 
REMARK    3  A    between atoms: C_4  and  C_5 
REMARK    4  A    between atoms: C_5  and  C_6 
ROOT
HETATM    1  O   UNL     1     -41.341 -50.006  13.792  1.00  0.00    -0.273 OA
HETATM    2  C   UNL     1     -42.105 -50.481  12.953  1.00  0.00     0.226 C 
HETATM    3  N   UNL     1     -41.966 -50.212  11.606  1.00  0.00    -0.360 N 
HETATM    4  H   UNL     1     -42.695 -50.491  10.966  1.00  0.00     0.162 HD
ENDROOT
BRANCH   2   5
HETATM    5  C   UNL     1     -43.246 -51.443  13.326  1.00  0.00     0.042 C 
HETATM    6  C   UNL     1     -44.612 -50.711  13.214  1.00  0.00     0.024 C 
HETATM    7  C   UNL     1     -45.768 -51.641  13.617  1.00  0.00    -0.013 C 
HETATM    8  C   UNL     1     -45.559 -52.104  15.068  1.00  0.00     0.009 C 
HETATM    9  C   UNL     1     -45.780 -52.864  12.689  1.00  0.00     0.009 C 
HETATM   10  C   UNL     1     -44.226 -52.857  15.192  1.00  0.00    -0.013 C 
HETATM   11  C   UNL     1     -44.239 -54.075  14.250  1.00  0.00     0.009 C 
HETATM   12  C   UNL     1     -43.073 -51.922  14.788  1.00  0.00     0.024 C 
HETATM   13  C   UNL     1     -44.444 -53.616  12.796  1.00  0.00    -0.013 C 
HETATM   14  C   UNL     1     -43.291 -52.675  12.392  1.00  0.00     0.024 C 
ENDBRANCH   2   5
BRANCH   3  15
HETATM   15  C   UNL     1     -40.925 -49.307  11.140  1.00  0.00     0.128 C 
BRANCH  15  16
HETATM   16  C   UNL     1     -41.405 -47.864  11.023  1.00  0.00     0.076 C 
BRANCH  16  17
HETATM   17  C   UNL     1     -42.624 -47.766  10.145  1.00  0.00     0.010 A 
HETATM   18  C   UNL     1     -43.883 -47.540  10.697  1.00  0.00     0.025 A 
HETATM   19  C   UNL     1     -44.989 -47.486   9.853  1.00  0.00     0.003 A 
HETATM   20  C   UNL     1     -44.812 -47.662   8.487  1.00  0.00     0.017 A 
HETATM   21  C   UNL     1     -43.528 -47.883   8.019  1.00  0.00     0.088 A 
HETATM   22  N   UNL     1     -42.437 -47.938   8.815  1.00  0.00    -0.369 N 
ATOM     23  HN  UNL     1     -41.507 -48.103   8.427  1.00  0.00     0.165 HD
ENDBRANCH  16  17
ENDBRANCH  15  16
ENDBRANCH   3  15
TORSDOF 4
ENDMDL
MODEL 2
REMARK VINA RESULT:      -6.6      0.866      1.909
REMARK  4 active torsions:
REMARK  status: ('A' for Active; 'I' for Inactive)
REMARK       I    between atoms: C_2  and  N_3 
REMARK    1  A    between atoms: C_2  and  C_13 
REMARK    2  A    between atoms: N_3  and  C_4 
REMARK    3  A    between atoms: C_4  and  C_5 
REMARK    4  A    between atoms: C_5  and  C_6 
ROOT
HETATM    1  O   UNL     1     -41.522 -52.231  11.797  1.00  0.00    -0.273 OA
HETATM    2  C   UNL     1     -42.334 -51.464  12.311  1.00  0.00     0.226 C 
HETATM    3  N   UNL     1     -42.256 -50.096  12.136  1.00  0.00    -0.360 N 
HETATM    4  H   UNL     1     -42.841 -49.490  12.692  1.00  0.00     0.162 HD
ENDROOT
BRANCH   2   5
HETATM    5  C   UNL     1     -43.522 -51.961  13.153  1.00  0.00     0.042 C 
HETATM    6  C   UNL     1     -43.023 -52.424  14.549  1.00  0.00     0.024 C 
HETATM    7  C   UNL     1     -44.187 -52.961  15.399  1.00  0.00    -0.013 C 
HETATM    8  C   UNL     1     -44.834 -54.150  14.672  1.00  0.00     0.009 C 
HETATM    9  C   UNL     1     -45.231 -51.849  15.585  1.00  0.00     0.009 C 
HETATM   10  C   UNL     1     -45.361 -53.704  13.299  1.00  0.00    -0.013 C 
HETATM   11  C   UNL     1     -46.397 -52.582  13.491  1.00  0.00     0.009 C 
HETATM   12  C   UNL     1     -44.192 -53.169  12.454  1.00  0.00     0.024 C 
HETATM   13  C   UNL     1     -45.754 -51.387  14.215  1.00  0.00    -0.013 C 
HETATM   14  C   UNL     1     -44.579 -50.853  13.371  1.00  0.00     0.024 C 
ENDBRANCH   2   5
BRANCH   3  15
HETATM   15  C   UNL     1     -41.167 -49.514  11.365  1.00  0.00     0.128 C 
BRANCH  15  16
HETATM   16  C   UNL     1     -41.395 -48.042  11.039  1.00  0.00     0.076 C 
BRANCH  16  17
HETATM   17  C   UNL     1     -42.600 -47.861  10.154  1.00  0.00     0.010 A 
HETATM   18  C   UNL     1     -43.847 -47.568  10.701  1.00  0.00     0.025 A 
HETATM   19  C   UNL     1     -44.941 -47.437   9.850  1.00  0.00     0.003 A 
HETATM   20  C   UNL     1     -44.765 -47.606   8.483  1.00  0.00     0.017 A 
HETATM   21  C   UNL     1     -43.493 -47.897   8.021  1.00  0.00     0.088 A 
HETATM   22  N   UNL     1     -42.412 -48.027   8.823  1.00  0.00    -0.369 N 
ATOM     23  HN  UNL     1     -41.491 -48.242   8.440  1.00  0.00     0.165 HD
ENDBRANCH  16  17
ENDBRANCH  15  16
ENDBRANCH   3  15
TORSDOF 4
ENDMDL
MODEL 3
REMARK VINA RESULT:      -6.3      1.092      1.408
REMARK  4 active torsions:
REMARK  status: ('A' for Active; 'I' for Inactive)
REMARK       I    between atoms: C_2  and  N_3 
REMARK    1  A    between atoms: C_2  and  C_13 
REMARK    2  A    between atoms: N_3  and  C_4 
REMARK    3  A    between atoms: C_4  and  C_5 
REMARK    4  A    between atoms: C_5  and  C_6 
ROOT
HETATM    1  O   UNL     1     -41.181 -51.695  14.067  1.00  0.00    -0.273 OA
HETATM    2  C   UNL     1     -42.055 -51.646  13.203  1.00  0.00     0.226 C 
HETATM    3  N   UNL     1     -41.778 -51.250  11.909  1.00  0.00    -0.360 N 
HETATM    4  H   UNL     1     -42.540 -51.074  11.270  1.00  0.00     0.162 HD
ENDROOT
BRANCH   2   5
HETATM    5  C   UNL     1     -43.512 -52.058  13.477  1.00  0.00     0.042 C 
HETATM    6  C   UNL     1     -44.451 -50.834  13.293  1.00  0.00     0.024 C 
HETATM    7  C   UNL     1     -45.910 -51.211  13.596  1.00  0.00    -0.013 C 
HETATM    8  C   UNL     1     -46.010 -51.712  15.046  1.00  0.00     0.009 C 
HETATM    9  C   UNL     1     -46.353 -52.328  12.640  1.00  0.00     0.009 C 
HETATM   10  C   UNL     1     -45.109 -52.942  15.239  1.00  0.00    -0.013 C 
HETATM   11  C   UNL     1     -45.550 -54.053  14.269  1.00  0.00     0.009 C 
HETATM   12  C   UNL     1     -43.651 -52.559  14.935  1.00  0.00     0.024 C 
HETATM   13  C   UNL     1     -45.449 -53.558  12.816  1.00  0.00    -0.013 C 
HETATM   14  C   UNL     1     -43.989 -53.170  12.512  1.00  0.00     0.024 C 
ENDBRANCH   2   5
BRANCH   3  15
HETATM   15  C   UNL     1     -40.435 -50.829  11.539  1.00  0.00     0.128 C 
BRANCH  15  16
HETATM   16  C   UNL     1     -40.227 -49.325  11.683  1.00  0.00     0.076 C 
BRANCH  16  17
HETATM   17  C   UNL     1     -41.430 -48.561  11.197  1.00  0.00     0.010 A 
HETATM   18  C   UNL     1     -42.320 -47.987  12.102  1.00  0.00     0.025 A 
HETATM   19  C   UNL     1     -43.436 -47.313  11.612  1.00  0.00     0.003 A 
HETATM   20  C   UNL     1     -43.636 -47.234  10.240  1.00  0.00     0.017 A 
HETATM   21  C   UNL     1     -42.705 -47.833   9.410  1.00  0.00     0.088 A 
HETATM   22  N   UNL     1     -41.611 -48.490   9.857  1.00  0.00    -0.369 N 
ATOM     23  HN  UNL     1     -40.949 -48.917   9.209  1.00  0.00     0.165 HD
ENDBRANCH  16  17
ENDBRANCH  15  16
ENDBRANCH   3  15
TORSDOF 4
ENDMDL
MODEL 4
REMARK VINA RESULT:      -6.1      3.378      6.336
REMARK  4 active torsions:
REMARK  status: ('A' for Active; 'I' for Inactive)
REMARK       I    between atoms: C_2  and  N_3 
REMARK    1  A    between atoms: C_2  and  C_13 
REMARK    2  A    between atoms: N_3  and  C_4 
REMARK    3  A    between atoms: C_4  and  C_5 
REMARK    4  A    between atoms: C_5  and  C_6 
ROOT
HETATM    1  O   UNL     1     -41.746 -51.824  14.946  1.00  0.00    -0.273 OA
HETATM    2  C   UNL     1     -41.168 -51.921  13.865  1.00  0.00     0.226 C 
HETATM    3  N   UNL     1     -41.533 -52.866  12.926  1.00  0.00    -0.360 N 
HETATM    4  H   UNL     1     -40.944 -53.019  12.121  1.00  0.00     0.162 HD
ENDROOT
BRANCH   2   5
HETATM    5  C   UNL     1     -40.025 -50.978  13.452  1.00  0.00     0.042 C 
HETATM    6  C   UNL     1     -38.657 -51.685  13.655  1.00  0.00     0.024 C 
HETATM    7  C   UNL     1     -37.494 -50.750  13.283  1.00  0.00    -0.013 C 
HETATM    8  C   UNL     1     -37.553 -49.496  14.170  1.00  0.00     0.009 C 
HETATM    9  C   UNL     1     -37.629 -50.337  11.809  1.00  0.00     0.009 C 
HETATM   10  C   UNL     1     -38.889 -48.766  13.960  1.00  0.00    -0.013 C 
HETATM   11  C   UNL     1     -39.024 -48.367  12.479  1.00  0.00     0.009 C 
HETATM   12  C   UNL     1     -40.047 -49.706  14.334  1.00  0.00     0.024 C 
HETATM   13  C   UNL     1     -38.969 -49.618  11.587  1.00  0.00    -0.013 C 
HETATM   14  C   UNL     1     -40.128 -50.563  11.964  1.00  0.00     0.024 C 
ENDBRANCH   2   5
BRANCH   3  15
HETATM   15  C   UNL     1     -42.596 -53.817  13.215  1.00  0.00     0.128 C 
BRANCH  15  16
HETATM   16  C   UNL     1     -43.903 -53.475  12.508  1.00  0.00     0.076 C 
BRANCH  16  17
HETATM   17  C   UNL     1     -44.855 -52.769  13.436  1.00  0.00     0.010 A 
HETATM   18  C   UNL     1     -45.955 -52.077  12.935  1.00  0.00     0.025 A 
HETATM   19  C   UNL     1     -46.795 -51.412  13.826  1.00  0.00     0.003 A 
HETATM   20  C   UNL     1     -46.515 -51.453  15.185  1.00  0.00     0.017 A 
HETATM   21  C   UNL     1     -45.401 -52.162  15.600  1.00  0.00     0.088 A 
HETATM   22  N   UNL     1     -44.570 -52.819  14.760  1.00  0.00    -0.369 N 
ATOM     23  HN  UNL     1     -43.760 -53.330  15.109  1.00  0.00     0.165 HD
ENDBRANCH  16  17
ENDBRANCH  15  16
ENDBRANCH   3  15
TORSDOF 4
ENDMDL
MODEL 5
REMARK VINA RESULT:      -6.1      3.377      6.327
REMARK  4 active torsions:
REMARK  status: ('A' for Active; 'I' for Inactive)
REMARK       I    between atoms: C_2  and  N_3 
REMARK    1  A    between atoms: C_2  and  C_13 
REMARK    2  A    between atoms: N_3  and  C_4 
REMARK    3  A    between atoms: C_4  and  C_5 
REMARK    4  A    between atoms: C_5  and  C_6 
ROOT
HETATM    1  O   UNL     1     -41.837 -51.722  14.890  1.00  0.00    -0.273 OA
HETATM    2  C   UNL     1     -41.183 -51.894  13.864  1.00  0.00     0.226 C 
HETATM    3  N   UNL     1     -41.490 -52.896  12.965  1.00  0.00    -0.360 N 
HETATM    4  H   UNL     1     -40.845 -53.107  12.216  1.00  0.00     0.162 HD
ENDROOT
BRANCH   2   5
HETATM    5  C   UNL     1     -40.001 -50.989  13.475  1.00  0.00     0.042 C 
HETATM    6  C   UNL     1     -40.010 -49.705  14.349  1.00  0.00     0.024 C 
HETATM    7  C   UNL     1     -38.859 -48.764  13.956  1.00  0.00    -0.013 C 
HETATM    8  C   UNL     1     -39.012 -48.372  12.478  1.00  0.00     0.009 C 
HETATM    9  C   UNL     1     -37.521 -49.493  14.153  1.00  0.00     0.009 C 
HETATM   10  C   UNL     1     -38.975 -49.629  11.594  1.00  0.00    -0.013 C 
HETATM   11  C   UNL     1     -37.638 -50.361  11.806  1.00  0.00     0.009 C 
HETATM   12  C   UNL     1     -40.129 -50.565  11.992  1.00  0.00     0.024 C 
HETATM   13  C   UNL     1     -37.481 -50.760  13.283  1.00  0.00    -0.013 C 
HETATM   14  C   UNL     1     -38.640 -51.694  13.684  1.00  0.00     0.024 C 
ENDBRANCH   2   5
BRANCH   3  15
HETATM   15  C   UNL     1     -42.583 -53.819  13.235  1.00  0.00     0.128 C 
BRANCH  15  16
HETATM   16  C   UNL     1     -43.859 -53.460  12.481  1.00  0.00     0.076 C 
BRANCH  16  17
HETATM   17  C   UNL     1     -44.848 -52.769  13.382  1.00  0.00     0.010 A 
HETATM   18  C   UNL     1     -45.938 -52.086  12.849  1.00  0.00     0.025 A 
HETATM   19  C   UNL     1     -46.813 -51.435  13.715  1.00  0.00     0.003 A 
HETATM   20  C   UNL     1     -46.576 -51.479  15.083  1.00  0.00     0.017 A 
HETATM   21  C   UNL     1     -45.469 -52.179  15.530  1.00  0.00     0.088 A 
HETATM   22  N   UNL     1     -44.604 -52.822  14.713  1.00  0.00    -0.369 N 
ATOM     23  HN  UNL     1     -43.800 -53.327  15.086  1.00  0.00     0.165 HD
ENDBRANCH  16  17
ENDBRANCH  15  16
ENDBRANCH   3  15
TORSDOF 4
ENDMDL
MODEL 6
REMARK VINA RESULT:      -6.1      3.378      6.337
REMARK  4 active torsions:
REMARK  status: ('A' for Active; 'I' for Inactive)
REMARK       I    between atoms: C_2  and  N_3 
REMARK    1  A    between atoms: C_2  and  C_13 
REMARK    2  A    between atoms: N_3  and  C_4 
REMARK    3  A    between atoms: C_4  and  C_5 
REMARK    4  A    between atoms: C_5  and  C_6 
ROOT
HETATM    1  O   UNL     1     -41.751 -51.814  14.971  1.00  0.00    -0.273 OA
HETATM    2  C   UNL     1     -41.160 -51.902  13.896  1.00  0.00     0.226 C 
HETATM    3  N   UNL     1     -41.514 -52.838  12.945  1.00  0.00    -0.360 N 
HETATM    4  H   UNL     1     -40.915 -52.985  12.145  1.00  0.00     0.162 HD
ENDROOT
BRANCH   2   5
HETATM    5  C   UNL     1     -40.011 -50.956  13.505  1.00  0.00     0.042 C 
HETATM    6  C   UNL     1     -40.131 -50.570  12.005  1.00  0.00     0.024 C 
HETATM    7  C   UNL     1     -38.973 -49.653  11.579  1.00  0.00    -0.013 C 
HETATM    8  C   UNL     1     -37.641 -50.385  11.809  1.00  0.00     0.009 C 
HETATM    9  C   UNL     1     -39.003 -48.373  12.428  1.00  0.00     0.009 C 
HETATM   10  C   UNL     1     -37.491 -50.749  13.294  1.00  0.00    -0.013 C 
HETATM   11  C   UNL     1     -37.534 -49.464  14.140  1.00  0.00     0.009 C 
HETATM   12  C   UNL     1     -38.651 -51.666  13.714  1.00  0.00     0.024 C 
HETATM   13  C   UNL     1     -38.867 -48.729  13.917  1.00  0.00    -0.013 C 
HETATM   14  C   UNL     1     -40.031 -49.649  14.334  1.00  0.00     0.024 C 
ENDBRANCH   2   5
BRANCH   3  15
HETATM   15  C   UNL     1     -42.582 -53.790  13.211  1.00  0.00     0.128 C 
BRANCH  15  16
HETATM   16  C   UNL     1     -43.882 -53.436  12.498  1.00  0.00     0.076 C 
BRANCH  16  17
HETATM   17  C   UNL     1     -44.845 -52.751  13.431  1.00  0.00     0.010 A 
HETATM   18  C   UNL     1     -45.947 -52.058  12.933  1.00  0.00     0.025 A 
HETATM   19  C   UNL     1     -46.797 -51.413  13.828  1.00  0.00     0.003 A 
HETATM   20  C   UNL     1     -46.526 -51.473  15.188  1.00  0.00     0.017 A 
HETATM   21  C   UNL     1     -45.410 -52.181  15.600  1.00  0.00     0.088 A 
HETATM   22  N   UNL     1     -44.569 -52.818  14.755  1.00  0.00    -0.369 N 
ATOM     23  HN  UNL     1     -43.757 -53.330  15.101  1.00  0.00     0.165 HD
ENDBRANCH  16  17
ENDBRANCH  15  16
ENDBRANCH   3  15
TORSDOF 4
ENDMDL
MODEL 7
REMARK VINA RESULT:      -6.0      1.762      3.184
REMARK  4 active torsions:
REMARK  status: ('A' for Active; 'I' for Inactive)
REMARK       I    between atoms: C_2  and  N_3 
REMARK    1  A    between atoms: C_2  and  C_13 
REMARK    2  A    between atoms: N_3  and  C_4 
REMARK    3  A    between atoms: C_4  and  C_5 
REMARK    4  A    between atoms: C_5  and  C_6 
ROOT
HETATM    1  O   UNL     1     -41.259 -52.095  12.282  1.00  0.00    -0.273 OA
HETATM    2  C   UNL     1     -42.253 -51.397  12.473  1.00  0.00     0.226 C 
HETATM    3  N   UNL     1     -42.331 -50.098  12.012  1.00  0.00    -0.360 N 
HETATM    4  H   UNL     1     -43.091 -49.507  12.317  1.00  0.00     0.162 HD
ENDROOT
BRANCH   2   5
HETATM    5  C   UNL     1     -43.502 -51.921  13.202  1.00  0.00     0.042 C 
HETATM    6  C   UNL     1     -43.119 -52.403  14.628  1.00  0.00     0.024 C 
HETATM    7  C   UNL     1     -44.345 -52.967  15.366  1.00  0.00    -0.013 C 
HETATM    8  C   UNL     1     -44.913 -54.150  14.567  1.00  0.00     0.009 C 
HETATM    9  C   UNL     1     -45.414 -51.870  15.480  1.00  0.00     0.009 C 
HETATM   10  C   UNL     1     -45.326 -53.686  13.161  1.00  0.00    -0.013 C 
HETATM   11  C   UNL     1     -46.388 -52.579  13.283  1.00  0.00     0.009 C 
HETATM   12  C   UNL     1     -44.096 -53.124  12.429  1.00  0.00     0.024 C 
HETATM   13  C   UNL     1     -45.824 -51.389  14.078  1.00  0.00    -0.013 C 
HETATM   14  C   UNL     1     -44.588 -50.828  13.347  1.00  0.00     0.024 C 
ENDBRANCH   2   5
BRANCH   3  15
HETATM   15  C   UNL     1     -41.203 -49.495  11.317  1.00  0.00     0.128 C 
BRANCH  15  16
HETATM   16  C   UNL     1     -41.599 -48.271  10.498  1.00  0.00     0.076 C 
BRANCH  16  17
HETATM   17  C   UNL     1     -40.876 -47.039  10.976  1.00  0.00     0.010 A 
HETATM   18  C   UNL     1     -40.297 -47.002  12.242  1.00  0.00     0.025 A 
HETATM   19  C   UNL     1     -39.663 -45.833  12.658  1.00  0.00     0.003 A 
HETATM   20  C   UNL     1     -39.627 -44.738  11.806  1.00  0.00     0.017 A 
HETATM   21  C   UNL     1     -40.229 -44.857  10.565  1.00  0.00     0.088 A 
HETATM   22  N   UNL     1     -40.848 -45.979  10.134  1.00  0.00    -0.369 N 
ATOM     23  HN  UNL     1     -41.279 -46.025   9.210  1.00  0.00     0.165 HD
ENDBRANCH  16  17
ENDBRANCH  15  16
ENDBRANCH   3  15
TORSDOF 4
ENDMDL
MODEL 8
REMARK VINA RESULT:      -5.9      1.936      3.851
REMARK  4 active torsions:
REMARK  status: ('A' for Active; 'I' for Inactive)
REMARK       I    between atoms: C_2  and  N_3 
REMARK    1  A    between atoms: C_2  and  C_13 
REMARK    2  A    between atoms: N_3  and  C_4 
REMARK    3  A    between atoms: C_4  and  C_5 
REMARK    4  A    between atoms: C_5  and  C_6 
ROOT
HETATM    1  O   UNL     1     -42.817 -49.063  14.400  1.00  0.00    -0.273 OA
HETATM    2  C   UNL     1     -43.452 -49.731  13.586  1.00  0.00     0.226 C 
HETATM    3  N   UNL     1     -43.421 -49.454  12.234  1.00  0.00    -0.360 N 
HETATM    4  H   UNL     1     -44.069 -49.920  11.616  1.00  0.00     0.162 HD
ENDROOT
BRANCH   2   5
HETATM    5  C   UNL     1     -44.295 -50.951  13.997  1.00  0.00     0.042 C 
HETATM    6  C   UNL     1     -43.448 -52.247  13.870  1.00  0.00     0.024 C 
HETATM    7  C   UNL     1     -44.279 -53.486  14.241  1.00  0.00    -0.013 C 
HETATM    8  C   UNL     1     -45.492 -53.578  13.300  1.00  0.00     0.009 C 
HETATM    9  C   UNL     1     -44.770 -53.350  15.690  1.00  0.00     0.009 C 
HETATM   10  C   UNL     1     -46.358 -52.317  13.434  1.00  0.00    -0.013 C 
HETATM   11  C   UNL     1     -46.836 -52.180  14.891  1.00  0.00     0.009 C 
HETATM   12  C   UNL     1     -45.522 -51.082  13.061  1.00  0.00     0.024 C 
HETATM   13  C   UNL     1     -45.627 -52.083  15.837  1.00  0.00    -0.013 C 
HETATM   14  C   UNL     1     -44.785 -50.847  15.461  1.00  0.00     0.024 C 
ENDBRANCH   2   5
BRANCH   3  15
HETATM   15  C   UNL     1     -42.662 -48.317  11.733  1.00  0.00     0.128 C 
BRANCH  15  16
HETATM   16  C   UNL     1     -41.556 -48.725  10.766  1.00  0.00     0.076 C 
BRANCH  16  17
HETATM   17  C   UNL     1     -40.252 -48.934  11.487  1.00  0.00     0.010 A 
HETATM   18  C   UNL     1     -39.910 -48.143  12.582  1.00  0.00     0.025 A 
HETATM   19  C   UNL     1     -38.681 -48.349  13.204  1.00  0.00     0.003 A 
HETATM   20  C   UNL     1     -37.827 -49.330  12.717  1.00  0.00     0.017 A 
HETATM   21  C   UNL     1     -38.242 -50.070  11.623  1.00  0.00     0.088 A 
HETATM   22  N   UNL     1     -39.430 -49.895  11.002  1.00  0.00    -0.369 N 
ATOM     23  HN  UNL     1     -39.696 -50.464  10.198  1.00  0.00     0.165 HD
ENDBRANCH  16  17
ENDBRANCH  15  16
ENDBRANCH   3  15
TORSDOF 4
ENDMDL
MODEL 9
REMARK VINA RESULT:      -5.9      3.151      4.298
REMARK  4 active torsions:
REMARK  status: ('A' for Active; 'I' for Inactive)
REMARK       I    between atoms: C_2  and  N_3 
REMARK    1  A    between atoms: C_2  and  C_13 
REMARK    2  A    between atoms: N_3  and  C_4 
REMARK    3  A    between atoms: C_4  and  C_5 
REMARK    4  A    between atoms: C_5  and  C_6 
ROOT
HETATM    1  O   UNL     1     -42.839 -51.427  12.685  1.00  0.00    -0.273 OA
HETATM    2  C   UNL     1     -43.047 -52.352  13.468  1.00  0.00     0.226 C 
HETATM    3  N   UNL     1     -42.130 -53.367  13.655  1.00  0.00    -0.360 N 
HETATM    4  H   UNL     1     -42.396 -54.185  14.184  1.00  0.00     0.162 HD
ENDROOT
BRANCH   2   5
HETATM    5  C   UNL     1     -44.317 -52.434  14.331  1.00  0.00     0.042 C 
HETATM    6  C   UNL     1     -45.407 -51.485  13.760  1.00  0.00     0.024 C 
HETATM    7  C   UNL     1     -46.676 -51.520  14.626  1.00  0.00    -0.013 C 
HETATM    8  C   UNL     1     -46.322 -51.082  16.057  1.00  0.00     0.009 C 
HETATM    9  C   UNL     1     -47.228 -52.953  14.656  1.00  0.00     0.009 C 
HETATM   10  C   UNL     1     -45.266 -52.028  16.650  1.00  0.00    -0.013 C 
HETATM   11  C   UNL     1     -45.821 -53.464  16.665  1.00  0.00     0.009 C 
HETATM   12  C   UNL     1     -43.999 -51.988  15.780  1.00  0.00     0.024 C 
HETATM   13  C   UNL     1     -46.174 -53.909  15.236  1.00  0.00    -0.013 C 
HETATM   14  C   UNL     1     -44.905 -53.865  14.361  1.00  0.00     0.024 C 
ENDBRANCH   2   5
BRANCH   3  15
HETATM   15  C   UNL     1     -40.896 -53.396  12.883  1.00  0.00     0.128 C 
BRANCH  15  16
HETATM   16  C   UNL     1     -39.710 -52.814  13.644  1.00  0.00     0.076 C 
BRANCH  16  17
HETATM   17  C   UNL     1     -39.245 -51.523  13.024  1.00  0.00     0.010 A 
HETATM   18  C   UNL     1     -38.131 -50.854  13.524  1.00  0.00     0.025 A 
HETATM   19  C   UNL     1     -37.752 -49.647  12.941  1.00  0.00     0.003 A 
HETATM   20  C   UNL     1     -38.493 -49.141  11.881  1.00  0.00     0.017 A 
HETATM   21  C   UNL     1     -39.588 -49.868  11.445  1.00  0.00     0.088 A 
HETATM   22  N   UNL     1     -39.977 -51.042  11.990  1.00  0.00    -0.369 N 
ATOM     23  HN  UNL     1     -40.791 -51.546  11.637  1.00  0.00     0.165 HD
ENDBRANCH  16  17
ENDBRANCH  15  16
ENDBRANCH   3  15
TORSDOF 4
ENDMDL
