MODEL 1
REMARK VINA RESULT:      -5.6      0.000      0.000
REMARK  8 active torsions:
REMARK  status: ('A' for Active; 'I' for Inactive)
REMARK    1  A    between atoms: C_2  and  C_3 
REMARK    2  A    between atoms: C_3  and  C_4 
REMARK    3  A    between atoms: C_3  and  C_6 
REMARK    4  A    between atoms: C_3  and  C_20 
REMARK    5  A    between atoms: C_6  and  N_7 
REMARK       I    between atoms: N_7  and  C_8 
REMARK    6  A    between atoms: C_8  and  C_10 
REMARK    7  A    between atoms: C_10  and  C_12 
REMARK    8  A    between atoms: C_20  and  O_22 
ROOT
HETATM    1  N   UNL     1     -42.946 -52.590  12.123  1.00  0.00    -0.359 N 
HETATM    2  C   UNL     1     -43.292 -53.635  12.958  1.00  0.00     0.226 C 
HETATM    3  O   UNL     1     -42.456 -54.255  13.612  1.00  0.00    -0.273 OA
HETATM    4  H   UNL     1     -43.650 -52.222  11.486  1.00  0.00     0.162 HD
ENDROOT
BRANCH   1   5
HETATM    5  C   UNL     1     -41.553 -52.235  11.915  1.00  0.00     0.143 C 
BRANCH   5   6
HETATM    6  C   UNL     1     -41.112 -50.907  12.581  1.00  0.00     0.060 C 
BRANCH   6   7
HETATM    7  C   UNL     1     -42.349 -49.970  12.746  1.00  0.00     0.018 C 
HETATM    8  C   UNL     1     -42.813 -49.758  14.185  1.00  0.00     0.006 C 
ENDBRANCH   6   7
BRANCH   6   9
HETATM    9  C   UNL     1     -40.443 -51.204  13.956  1.00  0.00     0.018 C 
HETATM   10  C   UNL     1     -39.558 -52.445  14.023  1.00  0.00     0.006 C 
ENDBRANCH   6   9
BRANCH   6  11
HETATM   11  C   UNL     1     -40.140 -50.249  11.585  1.00  0.00     0.150 C 
HETATM   12  O   UNL     1     -39.063 -49.773  11.936  1.00  0.00    -0.649 OA
BRANCH  11  13
HETATM   13  O   UNL     1     -40.551 -50.119  10.309  1.00  0.00    -0.776 OA
HETATM   14  H   UNL     1     -41.053 -49.324  10.065  1.00  0.00     0.167 HD
ENDBRANCH  11  13
ENDBRANCH   6  11
ENDBRANCH   5   6
ENDBRANCH   1   5
BRANCH   2  15
HETATM   15  C   UNL     1     -44.793 -53.931  13.007  1.00  0.00     0.111 C 
HETATM   16  C   UNL     1     -45.073 -55.283  13.664  1.00  0.00     0.025 C 
BRANCH  15  17
HETATM   17  C   UNL     1     -45.536 -52.802  13.661  1.00  0.00     0.010 A 
HETATM   18  C   UNL     1     -45.485 -52.316  15.002  1.00  0.00     0.038 A 
HETATM   19  C   UNL     1     -44.681 -52.774  16.162  1.00  0.00     0.071 C 
HETATM   20  N   UNL     1     -46.310 -51.275  15.175  1.00  0.00    -0.265 N 
HETATM   21  O   UNL     1     -46.917 -51.063  13.958  1.00  0.00    -0.242 OA
ATOM     22  HN  UNL     1     -46.458 -50.747  16.035  1.00  0.00     0.194 HD
HETATM   23  C   UNL     1     -46.457 -51.965  13.058  1.00  0.00     0.081 A 
HETATM   24  C   UNL     1     -47.015 -51.862  11.696  1.00  0.00     0.079 C 
ENDBRANCH  15  17
ENDBRANCH   2  15
TORSDOF 8
ENDMDL
MODEL 2
REMARK VINA RESULT:      -5.5      1.723      2.291
REMARK  8 active torsions:
REMARK  status: ('A' for Active; 'I' for Inactive)
REMARK    1  A    between atoms: C_2  and  C_3 
REMARK    2  A    between atoms: C_3  and  C_4 
REMARK    3  A    between atoms: C_3  and  C_6 
REMARK    4  A    between atoms: C_3  and  C_20 
REMARK    5  A    between atoms: C_6  and  N_7 
REMARK       I    between atoms: N_7  and  C_8 
REMARK    6  A    between atoms: C_8  and  C_10 
REMARK    7  A    between atoms: C_10  and  C_12 
REMARK    8  A    between atoms: C_20  and  O_22 
ROOT
HETATM    1  N   UNL     1     -42.611 -52.753  14.211  1.00  0.00    -0.359 N 
HETATM    2  C   UNL     1     -43.369 -53.866  14.518  1.00  0.00     0.226 C 
HETATM    3  O   UNL     1     -42.975 -54.733  15.296  1.00  0.00    -0.273 OA
HETATM    4  H   UNL     1     -42.912 -52.155  13.443  1.00  0.00     0.162 HD
ENDROOT
BRANCH   1   5
HETATM    5  C   UNL     1     -41.264 -52.604  14.734  1.00  0.00     0.143 C 
BRANCH   5   6
HETATM    6  C   UNL     1     -40.132 -52.889  13.713  1.00  0.00     0.060 C 
BRANCH   6   7
HETATM    7  C   UNL     1     -38.899 -51.989  14.037  1.00  0.00     0.018 C 
HETATM    8  C   UNL     1     -39.018 -51.164  15.316  1.00  0.00     0.006 C 
ENDBRANCH   6   7
BRANCH   6   9
HETATM    9  C   UNL     1     -39.755 -54.400  13.756  1.00  0.00     0.018 C 
HETATM   10  C   UNL     1     -39.225 -54.928  15.086  1.00  0.00     0.006 C 
ENDBRANCH   6   9
BRANCH   6  11
HETATM   11  C   UNL     1     -40.692 -52.462  12.345  1.00  0.00     0.150 C 
HETATM   12  O   UNL     1     -41.135 -51.334  12.140  1.00  0.00    -0.649 OA
BRANCH  11  13
HETATM   13  O   UNL     1     -40.775 -53.403  11.385  1.00  0.00    -0.776 OA
HETATM   14  H   UNL     1     -40.715 -53.120  10.457  1.00  0.00     0.167 HD
ENDBRANCH  11  13
ENDBRANCH   6  11
ENDBRANCH   5   6
ENDBRANCH   1   5
BRANCH   2  15
HETATM   15  C   UNL     1     -44.733 -53.909  13.825  1.00  0.00     0.111 C 
HETATM   16  C   UNL     1     -45.304 -55.328  13.805  1.00  0.00     0.025 C 
BRANCH  15  17
HETATM   17  C   UNL     1     -45.674 -52.914  14.441  1.00  0.00     0.010 A 
HETATM   18  C   UNL     1     -46.051 -52.720  15.803  1.00  0.00     0.038 A 
HETATM   19  C   UNL     1     -45.630 -53.438  17.031  1.00  0.00     0.071 C 
HETATM   20  N   UNL     1     -46.919 -51.708  15.929  1.00  0.00    -0.265 N 
HETATM   21  O   UNL     1     -47.129 -51.224  14.657  1.00  0.00    -0.242 OA
ATOM     22  HN  UNL     1     -47.340 -51.364  16.792  1.00  0.00     0.194 HD
HETATM   23  C   UNL     1     -46.388 -51.937  13.774  1.00  0.00     0.081 A 
HETATM   24  C   UNL     1     -46.503 -51.532  12.359  1.00  0.00     0.079 C 
ENDBRANCH  15  17
ENDBRANCH   2  15
TORSDOF 8
ENDMDL
MODEL 3
REMARK VINA RESULT:      -5.5      2.899      6.142
REMARK  8 active torsions:
REMARK  status: ('A' for Active; 'I' for Inactive)
REMARK    1  A    between atoms: C_2  and  C_3 
REMARK    2  A    between atoms: C_3  and  C_4 
REMARK    3  A    between atoms: C_3  and  C_6 
REMARK    4  A    between atoms: C_3  and  C_20 
REMARK    5  A    between atoms: C_6  and  N_7 
REMARK       I    between atoms: N_7  and  C_8 
REMARK    6  A    between atoms: C_8  and  C_10 
REMARK    7  A    between atoms: C_10  and  C_12 
REMARK    8  A    between atoms: C_20  and  O_22 
ROOT
HETATM    1  N   UNL     1     -43.807 -53.391  15.645  1.00  0.00    -0.359 N 
HETATM    2  C   UNL     1     -42.494 -53.245  16.050  1.00  0.00     0.226 C 
HETATM    3  O   UNL     1     -42.017 -52.150  16.342  1.00  0.00    -0.273 OA
HETATM    4  H   UNL     1     -44.100 -54.288  15.261  1.00  0.00     0.162 HD
ENDROOT
BRANCH   1   5
HETATM    5  C   UNL     1     -44.661 -52.232  15.461  1.00  0.00     0.143 C 
BRANCH   5   6
HETATM    6  C   UNL     1     -45.860 -52.449  14.502  1.00  0.00     0.060 C 
BRANCH   6   7
HETATM    7  C   UNL     1     -47.157 -51.874  15.150  1.00  0.00     0.018 C 
HETATM    8  C   UNL     1     -46.977 -51.288  16.548  1.00  0.00     0.006 C 
ENDBRANCH   6   7
BRANCH   6   9
HETATM    9  C   UNL     1     -45.566 -51.771  13.131  1.00  0.00     0.018 C 
HETATM   10  C   UNL     1     -46.771 -51.514  12.231  1.00  0.00     0.006 C 
ENDBRANCH   6   9
BRANCH   6  11
HETATM   11  C   UNL     1     -46.019 -53.975  14.380  1.00  0.00     0.150 C 
HETATM   12  O   UNL     1     -46.386 -54.675  15.322  1.00  0.00    -0.649 OA
BRANCH  11  13
HETATM   13  O   UNL     1     -45.647 -54.549  13.220  1.00  0.00    -0.776 OA
HETATM   14  H   UNL     1     -44.888 -55.157  13.229  1.00  0.00     0.167 HD
ENDBRANCH  11  13
ENDBRANCH   6  11
ENDBRANCH   5   6
ENDBRANCH   1   5
BRANCH   2  15
HETATM   15  C   UNL     1     -41.707 -54.556  16.119  1.00  0.00     0.111 C 
HETATM   16  C   UNL     1     -42.629 -55.768  15.973  1.00  0.00     0.025 C 
BRANCH  15  17
HETATM   17  C   UNL     1     -40.586 -54.557  15.120  1.00  0.00     0.010 A 
HETATM   18  C   UNL     1     -39.214 -54.922  15.270  1.00  0.00     0.038 A 
HETATM   19  C   UNL     1     -38.473 -55.414  16.457  1.00  0.00     0.071 C 
HETATM   20  N   UNL     1     -38.544 -54.784  14.118  1.00  0.00    -0.265 N 
HETATM   21  O   UNL     1     -39.459 -54.325  13.198  1.00  0.00    -0.242 OA
ATOM     22  HN  UNL     1     -37.557 -54.979  13.956  1.00  0.00     0.194 HD
HETATM   23  C   UNL     1     -40.671 -54.193  13.789  1.00  0.00     0.081 A 
HETATM   24  C   UNL     1     -41.764 -53.711  12.923  1.00  0.00     0.079 C 
ENDBRANCH  15  17
ENDBRANCH   2  15
TORSDOF 8
ENDMDL
MODEL 4
REMARK VINA RESULT:      -5.4      2.043      2.968
REMARK  8 active torsions:
REMARK  status: ('A' for Active; 'I' for Inactive)
REMARK    1  A    between atoms: C_2  and  C_3 
REMARK    2  A    between atoms: C_3  and  C_4 
REMARK    3  A    between atoms: C_3  and  C_6 
REMARK    4  A    between atoms: C_3  and  C_20 
REMARK    5  A    between atoms: C_6  and  N_7 
REMARK       I    between atoms: N_7  and  C_8 
REMARK    6  A    between atoms: C_8  and  C_10 
REMARK    7  A    between atoms: C_10  and  C_12 
REMARK    8  A    between atoms: C_20  and  O_22 
ROOT
HETATM    1  N   UNL     1     -43.701 -52.110  12.708  1.00  0.00    -0.359 N 
HETATM    2  C   UNL     1     -44.482 -51.194  13.387  1.00  0.00     0.226 C 
HETATM    3  O   UNL     1     -44.038 -50.118  13.781  1.00  0.00    -0.273 OA
HETATM    4  H   UNL     1     -44.072 -53.045  12.551  1.00  0.00     0.162 HD
ENDROOT
BRANCH   1   5
HETATM    5  C   UNL     1     -42.283 -51.871  12.507  1.00  0.00     0.143 C 
BRANCH   5   6
HETATM    6  C   UNL     1     -41.359 -52.472  13.598  1.00  0.00     0.060 C 
BRANCH   6   7
HETATM    7  C   UNL     1     -40.634 -51.320  14.360  1.00  0.00     0.018 C 
HETATM    8  C   UNL     1     -40.502 -50.013  13.582  1.00  0.00     0.006 C 
ENDBRANCH   6   7
BRANCH   6   9
HETATM    9  C   UNL     1     -42.197 -53.352  14.572  1.00  0.00     0.018 C 
HETATM   10  C   UNL     1     -42.391 -52.804  15.982  1.00  0.00     0.006 C 
ENDBRANCH   6   9
BRANCH   6  11
HETATM   11  C   UNL     1     -40.298 -53.286  12.836  1.00  0.00     0.150 C 
HETATM   12  O   UNL     1     -39.248 -53.652  13.361  1.00  0.00    -0.649 OA
BRANCH  11  13
HETATM   13  O   UNL     1     -40.509 -53.511  11.525  1.00  0.00    -0.776 OA
HETATM   14  H   UNL     1     -41.068 -52.886  11.034  1.00  0.00     0.167 HD
ENDBRANCH  11  13
ENDBRANCH   6  11
ENDBRANCH   5   6
ENDBRANCH   1   5
BRANCH   2  15
HETATM   15  C   UNL     1     -45.937 -51.631  13.583  1.00  0.00     0.111 C 
HETATM   16  C   UNL     1     -46.517 -52.227  12.299  1.00  0.00     0.025 C 
BRANCH  15  17
HETATM   17  C   UNL     1     -46.060 -52.556  14.759  1.00  0.00     0.010 A 
HETATM   18  C   UNL     1     -46.411 -52.284  16.116  1.00  0.00     0.038 A 
HETATM   19  C   UNL     1     -46.761 -51.006  16.782  1.00  0.00     0.071 C 
HETATM   20  N   UNL     1     -46.413 -53.403  16.852  1.00  0.00    -0.265 N 
HETATM   21  O   UNL     1     -46.063 -54.423  15.997  1.00  0.00    -0.242 OA
ATOM     22  HN  UNL     1     -46.630 -53.483  17.845  1.00  0.00     0.194 HD
HETATM   23  C   UNL     1     -45.857 -53.923  14.754  1.00  0.00     0.081 A 
HETATM   24  C   UNL     1     -45.477 -54.903  13.718  1.00  0.00     0.079 C 
ENDBRANCH  15  17
ENDBRANCH   2  15
TORSDOF 8
ENDMDL
MODEL 5
REMARK VINA RESULT:      -5.4      2.091      3.150
REMARK  8 active torsions:
REMARK  status: ('A' for Active; 'I' for Inactive)
REMARK    1  A    between atoms: C_2  and  C_3 
REMARK    2  A    between atoms: C_3  and  C_4 
REMARK    3  A    between atoms: C_3  and  C_6 
REMARK    4  A    between atoms: C_3  and  C_20 
REMARK    5  A    between atoms: C_6  and  N_7 
REMARK       I    between atoms: N_7  and  C_8 
REMARK    6  A    between atoms: C_8  and  C_10 
REMARK    7  A    between atoms: C_10  and  C_12 
REMARK    8  A    between atoms: C_20  and  O_22 
ROOT
HETATM    1  N   UNL     1     -41.701 -50.823  14.140  1.00  0.00    -0.359 N 
HETATM    2  C   UNL     1     -43.021 -50.434  14.271  1.00  0.00     0.226 C 
HETATM    3  O   UNL     1     -43.431 -49.358  13.841  1.00  0.00    -0.273 OA
HETATM    4  H   UNL     1     -41.383 -51.643  14.653  1.00  0.00     0.162 HD
ENDROOT
BRANCH   1   5
HETATM    5  C   UNL     1     -40.717 -49.928  13.560  1.00  0.00     0.143 C 
BRANCH   5   6
HETATM    6  C   UNL     1     -39.958 -50.498  12.333  1.00  0.00     0.060 C 
BRANCH   6   7
HETATM    7  C   UNL     1     -40.419 -49.751  11.043  1.00  0.00     0.018 C 
HETATM    8  C   UNL     1     -41.000 -48.358  11.273  1.00  0.00     0.006 C 
ENDBRANCH   6   7
BRANCH   6   9
HETATM    9  C   UNL     1     -38.423 -50.354  12.550  1.00  0.00     0.018 C 
HETATM   10  C   UNL     1     -37.595 -50.009  11.316  1.00  0.00     0.006 C 
ENDBRANCH   6   9
BRANCH   6  11
HETATM   11  C   UNL     1     -40.401 -51.968  12.222  1.00  0.00     0.150 C 
HETATM   12  O   UNL     1     -39.885 -52.861  12.890  1.00  0.00    -0.649 OA
BRANCH  11  13
HETATM   13  O   UNL     1     -41.319 -52.272  11.285  1.00  0.00    -0.776 OA
HETATM   14  H   UNL     1     -41.030 -52.766  10.499  1.00  0.00     0.167 HD
ENDBRANCH  11  13
ENDBRANCH   6  11
ENDBRANCH   5   6
ENDBRANCH   1   5
BRANCH   2  15
HETATM   15  C   UNL     1     -43.913 -51.460  14.973  1.00  0.00     0.111 C 
HETATM   16  C   UNL     1     -45.111 -50.789  15.647  1.00  0.00     0.025 C 
BRANCH  15  17
HETATM   17  C   UNL     1     -44.318 -52.551  14.024  1.00  0.00     0.010 A 
HETATM   18  C   UNL     1     -43.765 -53.851  13.819  1.00  0.00     0.038 A 
HETATM   19  C   UNL     1     -42.623 -54.526  14.482  1.00  0.00     0.071 C 
HETATM   20  N   UNL     1     -44.434 -54.521  12.872  1.00  0.00    -0.265 N 
HETATM   21  O   UNL     1     -45.430 -53.676  12.437  1.00  0.00    -0.242 OA
ATOM     22  HN  UNL     1     -44.244 -55.467  12.540  1.00  0.00     0.194 HD
HETATM   23  C   UNL     1     -45.365 -52.509  13.122  1.00  0.00     0.081 A 
HETATM   24  C   UNL     1     -46.378 -51.495  12.769  1.00  0.00     0.079 C 
ENDBRANCH  15  17
ENDBRANCH   2  15
TORSDOF 8
ENDMDL
MODEL 6
REMARK VINA RESULT:      -5.4      2.231      6.274
REMARK  8 active torsions:
REMARK  status: ('A' for Active; 'I' for Inactive)
REMARK    1  A    between atoms: C_2  and  C_3 
REMARK    2  A    between atoms: C_3  and  C_4 
REMARK    3  A    between atoms: C_3  and  C_6 
REMARK    4  A    between atoms: C_3  and  C_20 
REMARK    5  A    between atoms: C_6  and  N_7 
REMARK       I    between atoms: N_7  and  C_8 
REMARK    6  A    between atoms: C_8  and  C_10 
REMARK    7  A    between atoms: C_10  and  C_12 
REMARK    8  A    between atoms: C_20  and  O_22 
ROOT
HETATM    1  N   UNL     1     -42.630 -51.844  12.168  1.00  0.00    -0.359 N 
HETATM    2  C   UNL     1     -41.262 -51.887  11.977  1.00  0.00     0.226 C 
HETATM    3  O   UNL     1     -40.629 -52.940  12.010  1.00  0.00    -0.273 OA
HETATM    4  H   UNL     1     -43.076 -50.936  12.292  1.00  0.00     0.162 HD
ENDROOT
BRANCH   1   5
HETATM    5  C   UNL     1     -43.371 -53.045  12.506  1.00  0.00     0.143 C 
BRANCH   5   6
HETATM    6  C   UNL     1     -43.993 -53.051  13.926  1.00  0.00     0.060 C 
BRANCH   6   7
HETATM    7  C   UNL     1     -42.874 -53.300  14.984  1.00  0.00     0.018 C 
HETATM    8  C   UNL     1     -42.042 -54.561  14.762  1.00  0.00     0.006 C 
ENDBRANCH   6   7
BRANCH   6   9
HETATM    9  C   UNL     1     -44.724 -51.700  14.186  1.00  0.00     0.018 C 
HETATM   10  C   UNL     1     -46.045 -51.493  13.451  1.00  0.00     0.006 C 
ENDBRANCH   6   9
BRANCH   6  11
HETATM   11  C   UNL     1     -44.954 -54.253  13.951  1.00  0.00     0.150 C 
HETATM   12  O   UNL     1     -45.283 -54.852  12.929  1.00  0.00    -0.649 OA
BRANCH  11  13
HETATM   13  O   UNL     1     -45.511 -54.580  15.132  1.00  0.00    -0.776 OA
HETATM   14  H   UNL     1     -44.937 -54.941  15.829  1.00  0.00     0.167 HD
ENDBRANCH  11  13
ENDBRANCH   6  11
ENDBRANCH   5   6
ENDBRANCH   1   5
BRANCH   2  15
HETATM   15  C   UNL     1     -40.621 -50.523  11.706  1.00  0.00     0.111 C 
HETATM   16  C   UNL     1     -41.675 -49.416  11.640  1.00  0.00     0.025 C 
BRANCH  15  17
HETATM   17  C   UNL     1     -39.540 -50.235  12.706  1.00  0.00     0.010 A 
HETATM   18  C   UNL     1     -39.602 -50.123  14.128  1.00  0.00     0.038 A 
HETATM   19  C   UNL     1     -40.752 -50.256  15.055  1.00  0.00     0.071 C 
HETATM   20  N   UNL     1     -38.396 -49.863  14.649  1.00  0.00    -0.265 N 
HETATM   21  O   UNL     1     -37.526 -49.797  13.585  1.00  0.00    -0.242 OA
ATOM     22  HN  UNL     1     -38.168 -49.739  15.636  1.00  0.00     0.194 HD
HETATM   23  C   UNL     1     -38.202 -50.022  12.432  1.00  0.00     0.081 A 
HETATM   24  C   UNL     1     -37.399 -49.987  11.195  1.00  0.00     0.079 C 
ENDBRANCH  15  17
ENDBRANCH   2  15
TORSDOF 8
ENDMDL
MODEL 7
REMARK VINA RESULT:      -5.4      2.270      6.256
REMARK  8 active torsions:
REMARK  status: ('A' for Active; 'I' for Inactive)
REMARK    1  A    between atoms: C_2  and  C_3 
REMARK    2  A    between atoms: C_3  and  C_4 
REMARK    3  A    between atoms: C_3  and  C_6 
REMARK    4  A    between atoms: C_3  and  C_20 
REMARK    5  A    between atoms: C_6  and  N_7 
REMARK       I    between atoms: N_7  and  C_8 
REMARK    6  A    between atoms: C_8  and  C_10 
REMARK    7  A    between atoms: C_10  and  C_12 
REMARK    8  A    between atoms: C_20  and  O_22 
ROOT
HETATM    1  N   UNL     1     -42.691 -52.310  12.269  1.00  0.00    -0.359 N 
HETATM    2  C   UNL     1     -41.327 -52.199  12.078  1.00  0.00     0.226 C 
HETATM    3  O   UNL     1     -40.594 -53.184  12.005  1.00  0.00    -0.273 OA
HETATM    4  H   UNL     1     -43.222 -51.468  12.484  1.00  0.00     0.162 HD
ENDROOT
BRANCH   1   5
HETATM    5  C   UNL     1     -43.309 -53.606  12.479  1.00  0.00     0.143 C 
BRANCH   5   6
HETATM    6  C   UNL     1     -43.959 -53.800  13.874  1.00  0.00     0.060 C 
BRANCH   6   7
HETATM    7  C   UNL     1     -43.149 -54.861  14.683  1.00  0.00     0.018 C 
HETATM    8  C   UNL     1     -41.729 -54.442  15.058  1.00  0.00     0.006 C 
ENDBRANCH   6   7
BRANCH   6   9
HETATM    9  C   UNL     1     -44.011 -52.437  14.625  1.00  0.00     0.018 C 
HETATM   10  C   UNL     1     -44.806 -52.412  15.927  1.00  0.00     0.006 C 
ENDBRANCH   6   9
BRANCH   6  11
HETATM   11  C   UNL     1     -45.360 -54.374  13.599  1.00  0.00     0.150 C 
HETATM   12  O   UNL     1     -45.699 -55.493  13.981  1.00  0.00    -0.649 OA
BRANCH  11  13
HETATM   13  O   UNL     1     -46.193 -53.644  12.833  1.00  0.00    -0.776 OA
HETATM   14  H   UNL     1     -46.283 -52.695  13.024  1.00  0.00     0.167 HD
ENDBRANCH  11  13
ENDBRANCH   6  11
ENDBRANCH   5   6
ENDBRANCH   1   5
BRANCH   2  15
HETATM   15  C   UNL     1     -40.824 -50.759  11.950  1.00  0.00     0.111 C 
HETATM   16  C   UNL     1     -41.960 -49.753  12.138  1.00  0.00     0.025 C 
BRANCH  15  17
HETATM   17  C   UNL     1     -39.672 -50.514  12.881  1.00  0.00     0.010 A 
HETATM   18  C   UNL     1     -38.311 -50.183  12.602  1.00  0.00     0.038 A 
HETATM   19  C   UNL     1     -37.617 -49.979  11.308  1.00  0.00     0.071 C 
HETATM   20  N   UNL     1     -37.604 -50.040  13.730  1.00  0.00    -0.265 N 
HETATM   21  O   UNL     1     -38.481 -50.275  14.764  1.00  0.00    -0.242 OA
ATOM     22  HN  UNL     1     -36.614 -49.803  13.807  1.00  0.00     0.194 HD
HETATM   23  C   UNL     1     -39.709 -50.553  14.263  1.00  0.00     0.081 A 
HETATM   24  C   UNL     1     -40.766 -50.826  15.256  1.00  0.00     0.079 C 
ENDBRANCH  15  17
ENDBRANCH   2  15
TORSDOF 8
ENDMDL
MODEL 8
REMARK VINA RESULT:      -5.3      2.155      3.268
REMARK  8 active torsions:
REMARK  status: ('A' for Active; 'I' for Inactive)
REMARK    1  A    between atoms: C_2  and  C_3 
REMARK    2  A    between atoms: C_3  and  C_4 
REMARK    3  A    between atoms: C_3  and  C_6 
REMARK    4  A    between atoms: C_3  and  C_20 
REMARK    5  A    between atoms: C_6  and  N_7 
REMARK       I    between atoms: N_7  and  C_8 
REMARK    6  A    between atoms: C_8  and  C_10 
REMARK    7  A    between atoms: C_10  and  C_12 
REMARK    8  A    between atoms: C_20  and  O_22 
ROOT
HETATM    1  N   UNL     1     -42.655 -50.582  12.096  1.00  0.00    -0.359 N 
HETATM    2  C   UNL     1     -42.920 -51.447  13.140  1.00  0.00     0.226 C 
HETATM    3  O   UNL     1     -43.045 -51.055  14.299  1.00  0.00    -0.273 OA
HETATM    4  H   UNL     1     -42.402 -50.975  11.191  1.00  0.00     0.162 HD
ENDROOT
BRANCH   1   5
HETATM    5  C   UNL     1     -42.422 -49.170  12.341  1.00  0.00     0.143 C 
BRANCH   5   6
HETATM    6  C   UNL     1     -40.963 -48.699  12.109  1.00  0.00     0.060 C 
BRANCH   6   7
HETATM    7  C   UNL     1     -40.954 -47.509  11.099  1.00  0.00     0.018 C 
HETATM    8  C   UNL     1     -42.324 -47.110  10.557  1.00  0.00     0.006 C 
ENDBRANCH   6   7
BRANCH   6   9
HETATM    9  C   UNL     1     -40.321 -48.290  13.467  1.00  0.00     0.018 C 
HETATM   10  C   UNL     1     -39.181 -47.278  13.400  1.00  0.00     0.006 C 
ENDBRANCH   6   9
BRANCH   6  11
HETATM   11  C   UNL     1     -40.244 -49.890  11.454  1.00  0.00     0.150 C 
HETATM   12  O   UNL     1     -39.561 -50.682  12.100  1.00  0.00    -0.649 OA
BRANCH  11  13
HETATM   13  O   UNL     1     -40.304 -49.992  10.112  1.00  0.00    -0.776 OA
HETATM   14  H   UNL     1     -39.711 -49.435   9.580  1.00  0.00     0.167 HD
ENDBRANCH  11  13
ENDBRANCH   6  11
ENDBRANCH   5   6
ENDBRANCH   1   5
BRANCH   2  15
HETATM   15  C   UNL     1     -43.063 -52.913  12.723  1.00  0.00     0.111 C 
HETATM   16  C   UNL     1     -41.764 -53.686  12.955  1.00  0.00     0.025 C 
BRANCH  15  17
HETATM   17  C   UNL     1     -44.244 -53.546  13.399  1.00  0.00     0.010 A 
HETATM   18  C   UNL     1     -45.642 -53.317  13.224  1.00  0.00     0.038 A 
HETATM   19  C   UNL     1     -46.358 -52.386  12.319  1.00  0.00     0.071 C 
HETATM   20  N   UNL     1     -46.369 -54.105  14.026  1.00  0.00    -0.265 N 
HETATM   21  O   UNL     1     -45.467 -54.860  14.740  1.00  0.00    -0.242 OA
ATOM     22  HN  UNL     1     -47.386 -54.141  14.093  1.00  0.00     0.194 HD
HETATM   23  C   UNL     1     -44.206 -54.532  14.368  1.00  0.00     0.081 A 
HETATM   24  C   UNL     1     -43.120 -55.263  15.048  1.00  0.00     0.079 C 
ENDBRANCH  15  17
ENDBRANCH   2  15
TORSDOF 8
ENDMDL
MODEL 9
REMARK VINA RESULT:      -5.2      2.796      6.272
REMARK  8 active torsions:
REMARK  status: ('A' for Active; 'I' for Inactive)
REMARK    1  A    between atoms: C_2  and  C_3 
REMARK    2  A    between atoms: C_3  and  C_4 
REMARK    3  A    between atoms: C_3  and  C_6 
REMARK    4  A    between atoms: C_3  and  C_20 
REMARK    5  A    between atoms: C_6  and  N_7 
REMARK       I    between atoms: N_7  and  C_8 
REMARK    6  A    between atoms: C_8  and  C_10 
REMARK    7  A    between atoms: C_10  and  C_12 
REMARK    8  A    between atoms: C_20  and  O_22 
ROOT
HETATM    1  N   UNL     1     -41.398 -50.874  12.893  1.00  0.00    -0.359 N 
HETATM    2  C   UNL     1     -41.805 -49.695  12.299  1.00  0.00     0.226 C 
HETATM    3  O   UNL     1     -42.956 -49.274  12.399  1.00  0.00    -0.273 OA
HETATM    4  H   UNL     1     -40.487 -51.255  12.645  1.00  0.00     0.162 HD
ENDROOT
BRANCH   1   5
HETATM    5  C   UNL     1     -42.348 -51.718  13.596  1.00  0.00     0.143 C 
BRANCH   5   6
HETATM    6  C   UNL     1     -42.040 -53.237  13.537  1.00  0.00     0.060 C 
BRANCH   6   7
HETATM    7  C   UNL     1     -41.839 -53.784  14.985  1.00  0.00     0.018 C 
HETATM    8  C   UNL     1     -42.596 -55.072  15.300  1.00  0.00     0.006 C 
ENDBRANCH   6   7
BRANCH   6   9
HETATM    9  C   UNL     1     -43.197 -53.981  12.808  1.00  0.00     0.018 C 
HETATM   10  C   UNL     1     -44.442 -53.155  12.495  1.00  0.00     0.006 C 
ENDBRANCH   6   9
BRANCH   6  11
HETATM   11  C   UNL     1     -40.701 -53.357  12.788  1.00  0.00     0.150 C 
HETATM   12  O   UNL     1     -39.621 -53.387  13.374  1.00  0.00    -0.649 OA
BRANCH  11  13
HETATM   13  O   UNL     1     -40.736 -53.332  11.442  1.00  0.00    -0.776 OA
HETATM   14  H   UNL     1     -41.466 -52.858  11.009  1.00  0.00     0.167 HD
ENDBRANCH  11  13
ENDBRANCH   6  11
ENDBRANCH   5   6
ENDBRANCH   1   5
BRANCH   2  15
HETATM   15  C   UNL     1     -40.701 -48.963  11.532  1.00  0.00     0.111 C 
HETATM   16  C   UNL     1     -41.256 -47.760  10.768  1.00  0.00     0.025 C 
BRANCH  15  17
HETATM   17  C   UNL     1     -39.570 -48.596  12.449  1.00  0.00     0.010 A 
HETATM   18  C   UNL     1     -39.528 -47.683  13.546  1.00  0.00     0.038 A 
HETATM   19  C   UNL     1     -40.588 -46.818  14.118  1.00  0.00     0.071 C 
HETATM   20  N   UNL     1     -38.315 -47.656  14.111  1.00  0.00    -0.265 N 
HETATM   21  O   UNL     1     -37.541 -48.543  13.397  1.00  0.00    -0.242 OA
ATOM     22  HN  UNL     1     -38.023 -47.092  14.909  1.00  0.00     0.194 HD
HETATM   23  C   UNL     1     -38.285 -49.104  12.414  1.00  0.00     0.081 A 
HETATM   24  C   UNL     1     -37.591 -50.086  11.559  1.00  0.00     0.079 C 
ENDBRANCH  15  17
ENDBRANCH   2  15
TORSDOF 8
ENDMDL
