MODEL 1
REMARK VINA RESULT:      -5.2      0.000      0.000
REMARK  1 active torsions:
REMARK  status: ('A' for Active; 'I' for Inactive)
REMARK    1  A    between atoms: C_3  and  N_10 
ROOT
HETATM    1 CL   UNL     1     -43.350 -55.324  15.091  1.00  0.00    -0.076 Cl
HETATM    2  C   UNL     1     -42.865 -54.226  13.840  1.00  0.00     0.131 A 
HETATM    3  C   UNL     1     -41.669 -53.607  13.832  1.00  0.00     0.075 A 
HETATM    4  C   UNL     1     -41.514 -52.642  12.699  1.00  0.00     0.138 A 
HETATM    5  N   UNL     1     -42.363 -52.389  11.756  1.00  0.00    -0.307 N 
ATOM      6  HN  UNL     1     -42.166 -51.713  11.018  1.00  0.00     0.186 HD
HETATM    7  N   UNL     1     -43.531 -53.078  11.807  1.00  0.00    -0.265 N 
HETATM    8  C   UNL     1     -43.883 -53.980  12.776  1.00  0.00     0.283 A 
HETATM    9  O   UNL     1     -44.970 -54.550  12.746  1.00  0.00    -0.265 OA
HETATM   10  H   UNL     1     -44.199 -52.908  11.063  1.00  0.00     0.190 HD
ENDROOT
BRANCH   3  11
HETATM   11  N   UNL     1     -40.551 -53.768  14.663  1.00  0.00    -0.374 N 
HETATM   12  C   UNL     1     -39.357 -54.532  14.235  1.00  0.00     0.149 C 
HETATM   13  C   UNL     1     -38.699 -55.217  15.445  1.00  0.00     0.187 C 
HETATM   14  O   UNL     1     -38.390 -54.280  16.488  1.00  0.00    -0.388 OA
HETATM   15  C   UNL     1     -39.582 -53.608  16.923  1.00  0.00     0.187 C 
HETATM   16  C   UNL     1     -40.233 -52.835  15.768  1.00  0.00     0.149 C 
ENDBRANCH   3  11
TORSDOF 1
ENDMDL
MODEL 2
REMARK VINA RESULT:      -5.1      2.331      4.929
REMARK  1 active torsions:
REMARK  status: ('A' for Active; 'I' for Inactive)
REMARK    1  A    between atoms: C_3  and  N_10 
ROOT
HETATM    1 CL   UNL     1     -42.180 -55.106  15.183  1.00  0.00    -0.076 Cl
HETATM    2  C   UNL     1     -42.050 -54.120  13.763  1.00  0.00     0.131 A 
HETATM    3  C   UNL     1     -43.104 -53.489  13.210  1.00  0.00     0.075 A 
HETATM    4  C   UNL     1     -42.761 -52.771  11.942  1.00  0.00     0.138 A 
HETATM    5  N   UNL     1     -41.600 -52.674  11.379  1.00  0.00    -0.307 N 
ATOM      6  HN  UNL     1     -41.461 -52.157  10.512  1.00  0.00     0.186 HD
HETATM    7  N   UNL     1     -40.578 -53.304  12.013  1.00  0.00    -0.265 N 
HETATM    8  C   UNL     1     -40.686 -54.041  13.162  1.00  0.00     0.283 A 
HETATM    9  O   UNL     1     -39.704 -54.586  13.660  1.00  0.00    -0.265 OA
HETATM   10  H   UNL     1     -39.657 -53.220  11.596  1.00  0.00     0.190 HD
ENDROOT
BRANCH   3  11
HETATM   11  N   UNL     1     -44.425 -53.352  13.659  1.00  0.00    -0.374 N 
HETATM   12  C   UNL     1     -45.114 -52.041  13.685  1.00  0.00     0.149 C 
HETATM   13  C   UNL     1     -46.112 -51.985  14.854  1.00  0.00     0.187 C 
HETATM   14  O   UNL     1     -47.042 -53.079  14.817  1.00  0.00    -0.388 OA
HETATM   15  C   UNL     1     -46.341 -54.330  14.861  1.00  0.00     0.187 C 
HETATM   16  C   UNL     1     -45.390 -54.474  13.664  1.00  0.00     0.149 C 
ENDBRANCH   3  11
TORSDOF 1
ENDMDL
MODEL 3
REMARK VINA RESULT:      -5.1      2.831      3.731
REMARK  1 active torsions:
REMARK  status: ('A' for Active; 'I' for Inactive)
REMARK    1  A    between atoms: C_3  and  N_10 
ROOT
HETATM    1 CL   UNL     1     -44.181 -50.373  13.792  1.00  0.00    -0.076 Cl
HETATM    2  C   UNL     1     -44.760 -52.007  13.750  1.00  0.00     0.131 A 
HETATM    3  C   UNL     1     -43.980 -53.053  13.420  1.00  0.00     0.075 A 
HETATM    4  C   UNL     1     -44.725 -54.351  13.369  1.00  0.00     0.138 A 
HETATM    5  N   UNL     1     -45.974 -54.554  13.635  1.00  0.00    -0.307 N 
ATOM      6  HN  UNL     1     -46.396 -55.480  13.577  1.00  0.00     0.186 HD
HETATM    7  N   UNL     1     -46.691 -53.460  13.998  1.00  0.00    -0.265 N 
HETATM    8  C   UNL     1     -46.208 -52.180  14.073  1.00  0.00     0.283 A 
HETATM    9  O   UNL     1     -46.936 -51.247  14.401  1.00  0.00    -0.265 OA
HETATM   10  H   UNL     1     -47.667 -53.605  14.231  1.00  0.00     0.190 HD
ENDROOT
BRANCH   3  11
HETATM   11  N   UNL     1     -42.599 -53.125  13.184  1.00  0.00    -0.374 N 
HETATM   12  C   UNL     1     -41.777 -54.260  13.663  1.00  0.00     0.149 C 
HETATM   13  C   UNL     1     -40.354 -53.784  14.000  1.00  0.00     0.187 C 
HETATM   14  O   UNL     1     -39.740 -53.107  12.893  1.00  0.00    -0.388 OA
HETATM   15  C   UNL     1     -40.530 -51.975  12.501  1.00  0.00     0.187 C 
HETATM   16  C   UNL     1     -41.939 -52.406  12.071  1.00  0.00     0.149 C 
ENDBRANCH   3  11
TORSDOF 1
ENDMDL
MODEL 4
REMARK VINA RESULT:      -5.0      3.711      4.781
REMARK  1 active torsions:
REMARK  status: ('A' for Active; 'I' for Inactive)
REMARK    1  A    between atoms: C_3  and  N_10 
ROOT
HETATM    1 CL   UNL     1     -43.536 -49.680  13.926  1.00  0.00    -0.076 Cl
HETATM    2  C   UNL     1     -42.660 -50.795  12.929  1.00  0.00     0.131 A 
HETATM    3  C   UNL     1     -42.816 -52.130  13.010  1.00  0.00     0.075 A 
HETATM    4  C   UNL     1     -41.890 -52.888  12.112  1.00  0.00     0.138 A 
HETATM    5  N   UNL     1     -41.024 -52.403  11.281  1.00  0.00    -0.307 N 
ATOM      6  HN  UNL     1     -40.435 -53.001  10.704  1.00  0.00     0.186 HD
HETATM    7  N   UNL     1     -40.948 -51.049  11.225  1.00  0.00    -0.265 N 
HETATM    8  C   UNL     1     -41.681 -50.177  11.986  1.00  0.00     0.283 A 
HETATM    9  O   UNL     1     -41.536 -48.962  11.874  1.00  0.00    -0.265 OA
HETATM   10  H   UNL     1     -40.289 -50.652  10.564  1.00  0.00     0.190 HD
ENDROOT
BRANCH   3  11
HETATM   11  N   UNL     1     -43.733 -52.899  13.742  1.00  0.00    -0.374 N 
HETATM   12  C   UNL     1     -43.732 -52.927  15.223  1.00  0.00     0.149 C 
HETATM   13  C   UNL     1     -44.190 -54.304  15.732  1.00  0.00     0.187 C 
HETATM   14  O   UNL     1     -45.466 -54.678  15.190  1.00  0.00    -0.388 OA
HETATM   15  C   UNL     1     -45.410 -54.706  13.756  1.00  0.00     0.187 C 
HETATM   16  C   UNL     1     -45.039 -53.327  13.191  1.00  0.00     0.149 C 
ENDBRANCH   3  11
TORSDOF 1
ENDMDL
MODEL 5
REMARK VINA RESULT:      -4.7      7.044      8.410
REMARK  1 active torsions:
REMARK  status: ('A' for Active; 'I' for Inactive)
REMARK    1  A    between atoms: C_3  and  N_10 
ROOT
HETATM    1 CL   UNL     1     -38.560 -47.854  13.565  1.00  0.00    -0.076 Cl
HETATM    2  C   UNL     1     -39.606 -48.201  12.227  1.00  0.00     0.131 A 
HETATM    3  C   UNL     1     -40.502 -47.316  11.749  1.00  0.00     0.075 A 
HETATM    4  C   UNL     1     -41.350 -47.873  10.648  1.00  0.00     0.138 A 
HETATM    5  N   UNL     1     -41.280 -49.051  10.118  1.00  0.00    -0.307 N 
ATOM      6  HN  UNL     1     -41.902 -49.342   9.365  1.00  0.00     0.186 HD
HETATM    7  N   UNL     1     -40.329 -49.876  10.625  1.00  0.00    -0.265 N 
HETATM    8  C   UNL     1     -39.476 -49.572  11.652  1.00  0.00     0.283 A 
HETATM    9  O   UNL     1     -38.651 -50.390  12.053  1.00  0.00    -0.265 OA
HETATM   10  H   UNL     1     -40.247 -50.796  10.206  1.00  0.00     0.190 HD
ENDROOT
BRANCH   3  11
HETATM   11  N   UNL     1     -40.715 -45.968  12.070  1.00  0.00    -0.374 N 
HETATM   12  C   UNL     1     -41.518 -45.557  13.245  1.00  0.00     0.149 C 
HETATM   13  C   UNL     1     -42.243 -44.231  12.960  1.00  0.00     0.187 C 
HETATM   14  O   UNL     1     -41.331 -43.201  12.549  1.00  0.00    -0.388 OA
HETATM   15  C   UNL     1     -40.620 -43.607  11.370  1.00  0.00     0.187 C 
HETATM   16  C   UNL     1     -39.809 -44.885  11.626  1.00  0.00     0.149 C 
ENDBRANCH   3  11
TORSDOF 1
ENDMDL
MODEL 6
REMARK VINA RESULT:      -4.5      3.435      4.787
REMARK  1 active torsions:
REMARK  status: ('A' for Active; 'I' for Inactive)
REMARK    1  A    between atoms: C_3  and  N_10 
ROOT
HETATM    1 CL   UNL     1     -38.224 -51.512  14.282  1.00  0.00    -0.076 Cl
HETATM    2  C   UNL     1     -39.201 -51.027  12.935  1.00  0.00     0.131 A 
HETATM    3  C   UNL     1     -40.476 -51.430  12.770  1.00  0.00     0.075 A 
HETATM    4  C   UNL     1     -41.084 -50.952  11.489  1.00  0.00     0.138 A 
HETATM    5  N   UNL     1     -40.540 -50.197  10.590  1.00  0.00    -0.307 N 
ATOM      6  HN  UNL     1     -41.037 -49.918   9.745  1.00  0.00     0.186 HD
HETATM    7  N   UNL     1     -39.267 -49.799  10.840  1.00  0.00    -0.265 N 
HETATM    8  C   UNL     1     -38.521 -50.151  11.935  1.00  0.00     0.283 A 
HETATM    9  O   UNL     1     -37.369 -49.749  12.072  1.00  0.00    -0.265 OA
HETATM   10  H   UNL     1     -38.832 -49.189  10.156  1.00  0.00     0.190 HD
ENDROOT
BRANCH   3  11
HETATM   11  N   UNL     1     -41.321 -52.156  13.622  1.00  0.00    -0.374 N 
HETATM   12  C   UNL     1     -41.199 -53.624  13.785  1.00  0.00     0.149 C 
HETATM   13  C   UNL     1     -42.579 -54.247  14.059  1.00  0.00     0.187 C 
HETATM   14  O   UNL     1     -43.229 -53.635  15.183  1.00  0.00    -0.388 OA
HETATM   15  C   UNL     1     -43.389 -52.226  14.960  1.00  0.00     0.187 C 
HETATM   16  C   UNL     1     -42.030 -51.539  14.765  1.00  0.00     0.149 C 
ENDBRANCH   3  11
TORSDOF 1
ENDMDL
MODEL 7
REMARK VINA RESULT:      -4.5      4.087      4.902
REMARK  1 active torsions:
REMARK  status: ('A' for Active; 'I' for Inactive)
REMARK    1  A    between atoms: C_3  and  N_10 
ROOT
HETATM    1 CL   UNL     1     -38.914 -52.169  15.221  1.00  0.00    -0.076 Cl
HETATM    2  C   UNL     1     -39.752 -52.207  13.704  1.00  0.00     0.131 A 
HETATM    3  C   UNL     1     -40.003 -51.101  12.977  1.00  0.00     0.075 A 
HETATM    4  C   UNL     1     -40.815 -51.374  11.750  1.00  0.00     0.138 A 
HETATM    5  N   UNL     1     -41.244 -52.518  11.326  1.00  0.00    -0.307 N 
ATOM      6  HN  UNL     1     -41.791 -52.608  10.471  1.00  0.00     0.186 HD
HETATM    7  N   UNL     1     -40.921 -53.593  12.089  1.00  0.00    -0.265 N 
HETATM    8  C   UNL     1     -40.216 -53.555  13.263  1.00  0.00     0.283 A 
HETATM    9  O   UNL     1     -39.980 -54.583  13.893  1.00  0.00    -0.265 OA
HETATM   10  H   UNL     1     -41.231 -54.501  11.760  1.00  0.00     0.190 HD
ENDROOT
BRANCH   3  11
HETATM   11  N   UNL     1     -39.578 -49.776  13.154  1.00  0.00    -0.374 N 
HETATM   12  C   UNL     1     -38.154 -49.384  13.035  1.00  0.00     0.149 C 
HETATM   13  C   UNL     1     -37.841 -48.213  13.982  1.00  0.00     0.187 C 
HETATM   14  O   UNL     1     -38.723 -47.101  13.768  1.00  0.00    -0.388 OA
HETATM   15  C   UNL     1     -40.088 -47.503  13.958  1.00  0.00     0.187 C 
HETATM   16  C   UNL     1     -40.479 -48.615  12.975  1.00  0.00     0.149 C 
ENDBRANCH   3  11
TORSDOF 1
ENDMDL
MODEL 8
REMARK VINA RESULT:      -4.5      6.257      7.087
REMARK  1 active torsions:
REMARK  status: ('A' for Active; 'I' for Inactive)
REMARK    1  A    between atoms: C_3  and  N_10 
ROOT
HETATM    1 CL   UNL     1     -39.675 -45.449  12.236  1.00  0.00    -0.076 Cl
HETATM    2  C   UNL     1     -40.661 -46.524  11.299  1.00  0.00     0.131 A 
HETATM    3  C   UNL     1     -40.571 -47.865  11.385  1.00  0.00     0.075 A 
HETATM    4  C   UNL     1     -41.461 -48.579  10.417  1.00  0.00     0.138 A 
HETATM    5  N   UNL     1     -42.292 -48.054   9.574  1.00  0.00    -0.307 N 
ATOM      6  HN  UNL     1     -42.863 -48.625   8.952  1.00  0.00     0.186 HD
HETATM    7  N   UNL     1     -42.357 -46.699   9.569  1.00  0.00    -0.265 N 
HETATM    8  C   UNL     1     -41.605 -45.862  10.350  1.00  0.00     0.283 A 
HETATM    9  O   UNL     1     -41.725 -44.642  10.268  1.00  0.00    -0.265 OA
HETATM   10  H   UNL     1     -43.018 -46.272   8.929  1.00  0.00     0.190 HD
ENDROOT
BRANCH   3  11
HETATM   11  N   UNL     1     -39.838 -48.676  12.264  1.00  0.00    -0.374 N 
HETATM   12  C   UNL     1     -40.120 -48.715  13.718  1.00  0.00     0.149 C 
HETATM   13  C   UNL     1     -38.824 -48.974  14.506  1.00  0.00     0.187 C 
HETATM   14  O   UNL     1     -38.153 -50.162  14.058  1.00  0.00    -0.388 OA
HETATM   15  C   UNL     1     -37.837 -50.058  12.661  1.00  0.00     0.187 C 
HETATM   16  C   UNL     1     -39.108 -49.884  11.818  1.00  0.00     0.149 C 
ENDBRANCH   3  11
TORSDOF 1
ENDMDL
MODEL 9
REMARK VINA RESULT:      -4.4      2.897      3.910
REMARK  1 active torsions:
REMARK  status: ('A' for Active; 'I' for Inactive)
REMARK    1  A    between atoms: C_3  and  N_10 
ROOT
HETATM    1 CL   UNL     1     -39.476 -51.488  15.245  1.00  0.00    -0.076 Cl
HETATM    2  C   UNL     1     -40.331 -51.853  13.782  1.00  0.00     0.131 A 
HETATM    3  C   UNL     1     -41.344 -52.740  13.726  1.00  0.00     0.075 A 
HETATM    4  C   UNL     1     -41.866 -52.951  12.339  1.00  0.00     0.138 A 
HETATM    5  N   UNL     1     -41.480 -52.364  11.253  1.00  0.00    -0.307 N 
ATOM      6  HN  UNL     1     -41.900 -52.572  10.347  1.00  0.00     0.186 HD
HETATM    7  N   UNL     1     -40.481 -51.456  11.390  1.00  0.00    -0.265 N 
HETATM    8  C   UNL     1     -39.846 -51.141  12.563  1.00  0.00     0.283 A 
HETATM    9  O   UNL     1     -38.941 -50.310  12.590  1.00  0.00    -0.265 OA
HETATM   10  H   UNL     1     -40.181 -50.971  10.552  1.00  0.00     0.190 HD
ENDROOT
BRANCH   3  11
HETATM   11  N   UNL     1     -42.010 -53.431  14.748  1.00  0.00    -0.374 N 
HETATM   12  C   UNL     1     -41.389 -54.572  15.460  1.00  0.00     0.149 C 
HETATM   13  C   UNL     1     -42.465 -55.586  15.884  1.00  0.00     0.187 C 
HETATM   14  O   UNL     1     -43.503 -54.971  16.662  1.00  0.00    -0.388 OA
HETATM   15  C   UNL     1     -44.126 -53.915  15.915  1.00  0.00     0.187 C 
HETATM   16  C   UNL     1     -43.108 -52.829  15.539  1.00  0.00     0.149 C 
ENDBRANCH   3  11
TORSDOF 1
ENDMDL
