MODEL 1
REMARK VINA RESULT:      -6.7      0.000      0.000
REMARK  4 active torsions:
REMARK  status: ('A' for Active; 'I' for Inactive)
REMARK    1  A    between atoms: C_4  and  N_5 
REMARK       I    between atoms: N_5  and  C_6 
REMARK       I    between atoms: C_6  and  N_8 
REMARK    2  A    between atoms: N_8  and  C_9 
REMARK    3  A    between atoms: C_9  and  C_10 
REMARK    4  A    between atoms: C_10  and  N_11 
ROOT
HETATM    1  N   UNL     1     -41.538 -47.836  10.166  1.00  0.00    -0.293 N 
HETATM    2  C   UNL     1     -41.124 -48.720  11.125  1.00  0.00     0.321 C 
HETATM    3  O   UNL     1     -39.962 -48.679  11.525  1.00  0.00    -0.247 OA
HETATM    4  N   UNL     1     -42.031 -49.640  11.541  1.00  0.00    -0.341 N 
HETATM    5  H   UNL     1     -40.820 -47.203   9.848  1.00  0.00     0.172 HD
HETATM    6  H   UNL     1     -43.008 -49.406  11.385  1.00  0.00     0.164 HD
ENDROOT
BRANCH   1   7
HETATM    7  C   UNL     1     -42.774 -47.773   9.549  1.00  0.00     0.132 A 
HETATM    8  C   UNL     1     -43.959 -47.291  10.157  1.00  0.00     0.084 A 
HETATM    9  C   UNL     1     -44.918 -47.398   9.179  1.00  0.00     0.076 A 
HETATM   10  C   UNL     1     -46.352 -47.083   9.080  1.00  0.00     0.079 C 
HETATM   11  O   UNL     1     -44.355 -47.921   8.060  1.00  0.00    -0.241 OA
HETATM   12  N   UNL     1     -43.021 -48.161   8.290  1.00  0.00    -0.245 N 
ATOM     13  HN  UNL     1     -42.350 -48.556   7.632  1.00  0.00     0.196 HD
ENDBRANCH   1   7
BRANCH   4  14
HETATM   14  C   UNL     1     -41.760 -50.664  12.526  1.00  0.00     0.154 C 
BRANCH  14  15
HETATM   15  C   UNL     1     -41.471 -52.042  11.902  1.00  0.00     0.292 C 
BRANCH  15  16
HETATM   16  N   UNL     1     -42.157 -53.182  12.553  1.00  0.00     0.090 N 
HETATM   17  C   UNL     1     -41.724 -53.390  13.944  1.00  0.00     0.272 C 
HETATM   18  C   UNL     1     -42.404 -54.622  14.553  1.00  0.00     0.030 C 
HETATM   19  C   UNL     1     -43.923 -54.556  14.437  1.00  0.00     0.003 C 
HETATM   20  C   UNL     1     -44.340 -54.222  13.011  1.00  0.00     0.030 C 
HETATM   21  C   UNL     1     -43.614 -52.978  12.504  1.00  0.00     0.272 C 
ENDBRANCH  15  16
ENDBRANCH  14  15
ENDBRANCH   4  14
TORSDOF 4
ENDMDL
MODEL 2
REMARK VINA RESULT:      -6.6      1.554      1.994
REMARK  4 active torsions:
REMARK  status: ('A' for Active; 'I' for Inactive)
REMARK    1  A    between atoms: C_4  and  N_5 
REMARK       I    between atoms: N_5  and  C_6 
REMARK       I    between atoms: C_6  and  N_8 
REMARK    2  A    between atoms: N_8  and  C_9 
REMARK    3  A    between atoms: C_9  and  C_10 
REMARK    4  A    between atoms: C_10  and  N_11 
ROOT
HETATM    1  N   UNL     1     -41.508 -47.804  10.237  1.00  0.00    -0.293 N 
HETATM    2  C   UNL     1     -41.071 -48.767  11.106  1.00  0.00     0.321 C 
HETATM    3  O   UNL     1     -39.922 -48.715  11.539  1.00  0.00    -0.247 OA
HETATM    4  N   UNL     1     -41.940 -49.768  11.397  1.00  0.00    -0.341 N 
HETATM    5  H   UNL     1     -40.816 -47.107  10.008  1.00  0.00     0.172 HD
HETATM    6  H   UNL     1     -42.924 -49.564  11.242  1.00  0.00     0.164 HD
ENDROOT
BRANCH   1   7
HETATM    7  C   UNL     1     -42.733 -47.733   9.598  1.00  0.00     0.132 A 
HETATM    8  C   UNL     1     -43.944 -47.331  10.212  1.00  0.00     0.084 A 
HETATM    9  C   UNL     1     -44.879 -47.394   9.207  1.00  0.00     0.076 A 
HETATM   10  C   UNL     1     -46.320 -47.115   9.098  1.00  0.00     0.079 C 
HETATM   11  O   UNL     1     -44.277 -47.818   8.067  1.00  0.00    -0.241 OA
HETATM   12  N   UNL     1     -42.942 -48.036   8.310  1.00  0.00    -0.245 N 
ATOM     13  HN  UNL     1     -42.245 -48.363   7.640  1.00  0.00     0.196 HD
ENDBRANCH   1   7
BRANCH   4  14
HETATM   14  C   UNL     1     -41.640 -50.878  12.274  1.00  0.00     0.154 C 
BRANCH  14  15
HETATM   15  C   UNL     1     -42.490 -50.882  13.558  1.00  0.00     0.292 C 
BRANCH  15  16
HETATM   16  N   UNL     1     -43.918 -51.223  13.364  1.00  0.00     0.090 N 
HETATM   17  C   UNL     1     -44.113 -52.575  12.816  1.00  0.00     0.272 C 
HETATM   18  C   UNL     1     -45.599 -52.858  12.563  1.00  0.00     0.030 C 
HETATM   19  C   UNL     1     -46.449 -52.624  13.807  1.00  0.00     0.003 C 
HETATM   20  C   UNL     1     -46.141 -51.264  14.421  1.00  0.00     0.030 C 
HETATM   21  C   UNL     1     -44.640 -51.088  14.639  1.00  0.00     0.272 C 
ENDBRANCH  15  16
ENDBRANCH  14  15
ENDBRANCH   4  14
TORSDOF 4
ENDMDL
MODEL 3
REMARK VINA RESULT:      -6.3      1.987      2.589
REMARK  4 active torsions:
REMARK  status: ('A' for Active; 'I' for Inactive)
REMARK    1  A    between atoms: C_4  and  N_5 
REMARK       I    between atoms: N_5  and  C_6 
REMARK       I    between atoms: C_6  and  N_8 
REMARK    2  A    between atoms: N_8  and  C_9 
REMARK    3  A    between atoms: C_9  and  C_10 
REMARK    4  A    between atoms: C_10  and  N_11 
ROOT
HETATM    1  N   UNL     1     -41.484 -48.608  11.950  1.00  0.00    -0.293 N 
HETATM    2  C   UNL     1     -41.268 -49.864  12.448  1.00  0.00     0.321 C 
HETATM    3  O   UNL     1     -40.461 -50.023  13.362  1.00  0.00    -0.247 OA
HETATM    4  N   UNL     1     -41.937 -50.882  11.850  1.00  0.00    -0.341 N 
HETATM    5  H   UNL     1     -40.931 -47.887  12.388  1.00  0.00     0.172 HD
HETATM    6  H   UNL     1     -42.775 -50.624  11.335  1.00  0.00     0.164 HD
ENDROOT
BRANCH   1   7
HETATM    7  C   UNL     1     -42.295 -48.245  10.890  1.00  0.00     0.132 A 
HETATM    8  C   UNL     1     -43.629 -47.786  11.011  1.00  0.00     0.084 A 
HETATM    9  C   UNL     1     -44.026 -47.531   9.721  1.00  0.00     0.076 A 
HETATM   10  C   UNL     1     -45.254 -47.029   9.083  1.00  0.00     0.079 C 
HETATM   11  O   UNL     1     -43.007 -47.827   8.876  1.00  0.00    -0.241 OA
HETATM   12  N   UNL     1     -41.929 -48.277   9.602  1.00  0.00    -0.245 N 
ATOM     13  HN  UNL     1     -41.027 -48.577   9.232  1.00  0.00     0.196 HD
ENDBRANCH   1   7
BRANCH   4  14
HETATM   14  C   UNL     1     -41.812 -52.273  12.228  1.00  0.00     0.154 C 
BRANCH  14  15
HETATM   15  C   UNL     1     -43.171 -52.962  12.454  1.00  0.00     0.292 C 
BRANCH  15  16
HETATM   16  N   UNL     1     -44.223 -52.098  13.037  1.00  0.00     0.090 N 
HETATM   17  C   UNL     1     -45.581 -52.505  12.641  1.00  0.00     0.272 C 
HETATM   18  C   UNL     1     -46.630 -51.541  13.206  1.00  0.00     0.030 C 
HETATM   19  C   UNL     1     -46.507 -51.378  14.718  1.00  0.00     0.003 C 
HETATM   20  C   UNL     1     -45.067 -51.074  15.111  1.00  0.00     0.030 C 
HETATM   21  C   UNL     1     -44.106 -52.095  14.504  1.00  0.00     0.272 C 
ENDBRANCH  15  16
ENDBRANCH  14  15
ENDBRANCH   4  14
TORSDOF 4
ENDMDL
MODEL 4
REMARK VINA RESULT:      -5.9      3.670      4.183
REMARK  4 active torsions:
REMARK  status: ('A' for Active; 'I' for Inactive)
REMARK    1  A    between atoms: C_4  and  N_5 
REMARK       I    between atoms: N_5  and  C_6 
REMARK       I    between atoms: C_6  and  N_8 
REMARK    2  A    between atoms: N_8  and  C_9 
REMARK    3  A    between atoms: C_9  and  C_10 
REMARK    4  A    between atoms: C_10  and  N_11 
ROOT
HETATM    1  N   UNL     1     -42.125 -46.090   9.453  1.00  0.00    -0.293 N 
HETATM    2  C   UNL     1     -41.409 -46.286  10.602  1.00  0.00     0.321 C 
HETATM    3  O   UNL     1     -40.198 -46.075  10.604  1.00  0.00    -0.247 OA
HETATM    4  N   UNL     1     -42.091 -46.762  11.674  1.00  0.00    -0.341 N 
HETATM    5  H   UNL     1     -41.573 -45.785   8.666  1.00  0.00     0.172 HD
HETATM    6  H   UNL     1     -43.097 -46.616  11.664  1.00  0.00     0.164 HD
ENDROOT
BRANCH   1   7
HETATM    7  C   UNL     1     -43.470 -46.337   9.240  1.00  0.00     0.132 A 
HETATM    8  C   UNL     1     -44.047 -47.623   9.113  1.00  0.00     0.084 A 
HETATM    9  C   UNL     1     -45.388 -47.385   8.935  1.00  0.00     0.076 A 
HETATM   10  C   UNL     1     -46.585 -48.222   8.750  1.00  0.00     0.079 C 
HETATM   11  O   UNL     1     -45.606 -46.046   8.941  1.00  0.00    -0.241 OA
HETATM   12  N   UNL     1     -44.412 -45.390   9.126  1.00  0.00    -0.245 N 
ATOM     13  HN  UNL     1     -44.270 -44.382   9.167  1.00  0.00     0.196 HD
ENDBRANCH   1   7
BRANCH   4  14
HETATM   14  C   UNL     1     -41.492 -47.051  12.959  1.00  0.00     0.154 C 
BRANCH  14  15
HETATM   15  C   UNL     1     -41.173 -48.545  13.155  1.00  0.00     0.292 C 
BRANCH  15  16
HETATM   16  N   UNL     1     -39.743 -48.904  13.016  1.00  0.00     0.090 N 
HETATM   17  C   UNL     1     -39.296 -49.872  14.030  1.00  0.00     0.272 C 
HETATM   18  C   UNL     1     -37.796 -50.158  13.894  1.00  0.00     0.030 C 
HETATM   19  C   UNL     1     -37.421 -50.602  12.484  1.00  0.00     0.003 C 
HETATM   20  C   UNL     1     -37.997 -49.647  11.447  1.00  0.00     0.030 C 
HETATM   21  C   UNL     1     -39.494 -49.437  11.667  1.00  0.00     0.272 C 
ENDBRANCH  15  16
ENDBRANCH  14  15
ENDBRANCH   4  14
TORSDOF 4
ENDMDL
MODEL 5
REMARK VINA RESULT:      -5.8      4.042      5.922
REMARK  4 active torsions:
REMARK  status: ('A' for Active; 'I' for Inactive)
REMARK    1  A    between atoms: C_4  and  N_5 
REMARK       I    between atoms: N_5  and  C_6 
REMARK       I    between atoms: C_6  and  N_8 
REMARK    2  A    between atoms: N_8  and  C_9 
REMARK    3  A    between atoms: C_9  and  C_10 
REMARK    4  A    between atoms: C_10  and  N_11 
ROOT
HETATM    1  N   UNL     1     -43.184 -53.000  11.868  1.00  0.00    -0.293 N 
HETATM    2  C   UNL     1     -43.853 -53.810  12.746  1.00  0.00     0.321 C 
HETATM    3  O   UNL     1     -44.983 -54.203  12.465  1.00  0.00    -0.247 OA
HETATM    4  N   UNL     1     -43.229 -54.088  13.918  1.00  0.00    -0.341 N 
HETATM    5  H   UNL     1     -43.702 -52.777  11.032  1.00  0.00     0.172 HD
HETATM    6  H   UNL     1     -42.218 -53.976  13.924  1.00  0.00     0.164 HD
ENDROOT
BRANCH   1   7
HETATM    7  C   UNL     1     -41.945 -52.409  12.037  1.00  0.00     0.132 A 
HETATM    8  C   UNL     1     -41.733 -51.106  12.548  1.00  0.00     0.084 A 
HETATM    9  C   UNL     1     -40.367 -50.954  12.553  1.00  0.00     0.076 A 
HETATM   10  C   UNL     1     -39.433 -49.889  12.954  1.00  0.00     0.079 C 
HETATM   11  O   UNL     1     -39.793 -52.083  12.066  1.00  0.00    -0.241 OA
HETATM   12  N   UNL     1     -40.775 -52.989  11.738  1.00  0.00    -0.245 N 
ATOM     13  HN  UNL     1     -40.639 -53.920  11.345  1.00  0.00     0.196 HD
ENDBRANCH   1   7
BRANCH   4  14
HETATM   14  C   UNL     1     -43.795 -54.903  14.970  1.00  0.00     0.154 C 
BRANCH  14  15
HETATM   15  C   UNL     1     -44.100 -54.108  16.254  1.00  0.00     0.292 C 
BRANCH  15  16
HETATM   16  N   UNL     1     -44.975 -52.928  16.067  1.00  0.00     0.090 N 
HETATM   17  C   UNL     1     -46.324 -53.285  15.599  1.00  0.00     0.272 C 
HETATM   18  C   UNL     1     -47.170 -52.030  15.349  1.00  0.00     0.030 C 
HETATM   19  C   UNL     1     -47.218 -51.118  16.570  1.00  0.00     0.003 C 
HETATM   20  C   UNL     1     -45.816 -50.860  17.105  1.00  0.00     0.030 C 
HETATM   21  C   UNL     1     -45.064 -52.170  17.326  1.00  0.00     0.272 C 
ENDBRANCH  15  16
ENDBRANCH  14  15
ENDBRANCH   4  14
TORSDOF 4
ENDMDL
MODEL 6
REMARK VINA RESULT:      -5.8      2.422      3.220
REMARK  4 active torsions:
REMARK  status: ('A' for Active; 'I' for Inactive)
REMARK    1  A    between atoms: C_4  and  N_5 
REMARK       I    between atoms: N_5  and  C_6 
REMARK       I    between atoms: C_6  and  N_8 
REMARK    2  A    between atoms: N_8  and  C_9 
REMARK    3  A    between atoms: C_9  and  C_10 
REMARK    4  A    between atoms: C_10  and  N_11 
ROOT
HETATM    1  N   UNL     1     -40.073 -49.433  11.412  1.00  0.00    -0.293 N 
HETATM    2  C   UNL     1     -40.428 -50.686  11.830  1.00  0.00     0.321 C 
HETATM    3  O   UNL     1     -39.553 -51.485  12.159  1.00  0.00    -0.247 OA
HETATM    4  N   UNL     1     -41.751 -50.988  11.803  1.00  0.00    -0.341 N 
HETATM    5  H   UNL     1     -39.078 -49.265  11.399  1.00  0.00     0.172 HD
HETATM    6  H   UNL     1     -42.390 -50.197  11.811  1.00  0.00     0.164 HD
ENDROOT
BRANCH   1   7
HETATM    7  C   UNL     1     -40.902 -48.429  10.942  1.00  0.00     0.132 A 
HETATM    8  C   UNL     1     -41.047 -47.154  11.540  1.00  0.00     0.084 A 
HETATM    9  C   UNL     1     -41.945 -46.495  10.735  1.00  0.00     0.076 A 
HETATM   10  C   UNL     1     -42.554 -45.155  10.724  1.00  0.00     0.079 C 
HETATM   11  O   UNL     1     -42.326 -47.320   9.728  1.00  0.00    -0.241 OA
HETATM   12  N   UNL     1     -41.682 -48.528   9.858  1.00  0.00    -0.245 N 
ATOM     13  HN  UNL     1     -41.779 -49.340   9.249  1.00  0.00     0.196 HD
ENDBRANCH   1   7
BRANCH   4  14
HETATM   14  C   UNL     1     -42.302 -52.270  12.185  1.00  0.00     0.154 C 
BRANCH  14  15
HETATM   15  C   UNL     1     -42.764 -52.315  13.653  1.00  0.00     0.292 C 
BRANCH  15  16
HETATM   16  N   UNL     1     -44.079 -51.687  13.917  1.00  0.00     0.090 N 
HETATM   17  C   UNL     1     -45.156 -52.247  13.085  1.00  0.00     0.272 C 
HETATM   18  C   UNL     1     -46.482 -51.518  13.338  1.00  0.00     0.030 C 
HETATM   19  C   UNL     1     -46.857 -51.504  14.816  1.00  0.00     0.003 C 
HETATM   20  C   UNL     1     -45.684 -51.032  15.665  1.00  0.00     0.030 C 
HETATM   21  C   UNL     1     -44.419 -51.825  15.342  1.00  0.00     0.272 C 
ENDBRANCH  15  16
ENDBRANCH  14  15
ENDBRANCH   4  14
TORSDOF 4
ENDMDL
MODEL 7
REMARK VINA RESULT:      -5.7      2.576      6.390
REMARK  4 active torsions:
REMARK  status: ('A' for Active; 'I' for Inactive)
REMARK    1  A    between atoms: C_4  and  N_5 
REMARK       I    between atoms: N_5  and  C_6 
REMARK       I    between atoms: C_6  and  N_8 
REMARK    2  A    between atoms: N_8  and  C_9 
REMARK    3  A    between atoms: C_9  and  C_10 
REMARK    4  A    between atoms: C_10  and  N_11 
ROOT
HETATM    1  N   UNL     1     -41.790 -52.956  12.853  1.00  0.00    -0.293 N 
HETATM    2  C   UNL     1     -40.825 -52.133  12.339  1.00  0.00     0.321 C 
HETATM    3  O   UNL     1     -39.640 -52.386  12.548  1.00  0.00    -0.247 OA
HETATM    4  N   UNL     1     -41.252 -51.038  11.662  1.00  0.00    -0.341 N 
HETATM    5  H   UNL     1     -41.432 -53.730  13.392  1.00  0.00     0.172 HD
HETATM    6  H   UNL     1     -42.200 -51.081  11.294  1.00  0.00     0.164 HD
ENDROOT
BRANCH   1   7
HETATM    7  C   UNL     1     -43.163 -52.799  12.782  1.00  0.00     0.132 A 
HETATM    8  C   UNL     1     -43.931 -51.988  13.652  1.00  0.00     0.084 A 
HETATM    9  C   UNL     1     -45.221 -52.122  13.202  1.00  0.00     0.076 A 
HETATM   10  C   UNL     1     -46.530 -51.577  13.596  1.00  0.00     0.079 C 
HETATM   11  O   UNL     1     -45.235 -52.967  12.139  1.00  0.00    -0.241 OA
HETATM   12  N   UNL     1     -43.954 -53.394  11.880  1.00  0.00    -0.245 N 
ATOM     13  HN  UNL     1     -43.663 -54.038  11.145  1.00  0.00     0.196 HD
ENDBRANCH   1   7
BRANCH   4  14
HETATM   14  C   UNL     1     -40.376 -50.049  11.074  1.00  0.00     0.154 C 
BRANCH  14  15
HETATM   15  C   UNL     1     -40.435 -48.687  11.789  1.00  0.00     0.292 C 
BRANCH  15  16
HETATM   16  N   UNL     1     -40.982 -47.575  10.977  1.00  0.00     0.090 N 
HETATM   17  C   UNL     1     -42.395 -47.774  10.616  1.00  0.00     0.272 C 
HETATM   18  C   UNL     1     -42.897 -46.638   9.716  1.00  0.00     0.030 C 
HETATM   19  C   UNL     1     -42.659 -45.265  10.336  1.00  0.00     0.003 C 
HETATM   20  C   UNL     1     -41.218 -45.130  10.809  1.00  0.00     0.030 C 
HETATM   21  C   UNL     1     -40.821 -46.304  11.702  1.00  0.00     0.272 C 
ENDBRANCH  15  16
ENDBRANCH  14  15
ENDBRANCH   4  14
TORSDOF 4
ENDMDL
MODEL 8
REMARK VINA RESULT:      -5.4      4.715      8.080
REMARK  4 active torsions:
REMARK  status: ('A' for Active; 'I' for Inactive)
REMARK    1  A    between atoms: C_4  and  N_5 
REMARK       I    between atoms: N_5  and  C_6 
REMARK       I    between atoms: C_6  and  N_8 
REMARK    2  A    between atoms: N_8  and  C_9 
REMARK    3  A    between atoms: C_9  and  C_10 
REMARK    4  A    between atoms: C_10  and  N_11 
ROOT
HETATM    1  N   UNL     1     -41.545 -47.770  10.155  1.00  0.00    -0.293 N 
HETATM    2  C   UNL     1     -40.867 -46.722  10.715  1.00  0.00     0.321 C 
HETATM    3  O   UNL     1     -39.786 -46.924  11.265  1.00  0.00    -0.247 OA
HETATM    4  N   UNL     1     -41.473 -45.508  10.672  1.00  0.00    -0.341 N 
HETATM    5  H   UNL     1     -41.084 -48.662  10.253  1.00  0.00     0.172 HD
HETATM    6  H   UNL     1     -42.187 -45.391   9.957  1.00  0.00     0.164 HD
ENDROOT
BRANCH   1   7
HETATM    7  C   UNL     1     -42.793 -47.750   9.558  1.00  0.00     0.132 A 
HETATM    8  C   UNL     1     -44.005 -47.453  10.227  1.00  0.00     0.084 A 
HETATM    9  C   UNL     1     -44.968 -47.534   9.251  1.00  0.00     0.076 A 
HETATM   10  C   UNL     1     -46.426 -47.343   9.200  1.00  0.00     0.079 C 
HETATM   11  O   UNL     1     -44.380 -47.870   8.075  1.00  0.00    -0.241 OA
HETATM   12  N   UNL     1     -43.026 -48.011   8.265  1.00  0.00    -0.245 N 
ATOM     13  HN  UNL     1     -42.334 -48.264   7.561  1.00  0.00     0.196 HD
ENDBRANCH   1   7
BRANCH   4  14
HETATM   14  C   UNL     1     -40.916 -44.298  11.234  1.00  0.00     0.154 C 
BRANCH  14  15
HETATM   15  C   UNL     1     -41.805 -43.673  12.325  1.00  0.00     0.292 C 
BRANCH  15  16
HETATM   16  N   UNL     1     -41.479 -42.271  12.673  1.00  0.00     0.090 N 
HETATM   17  C   UNL     1     -40.341 -42.162  13.599  1.00  0.00     0.272 C 
HETATM   18  C   UNL     1     -40.086 -40.701  13.988  1.00  0.00     0.030 C 
HETATM   19  C   UNL     1     -39.910 -39.803  12.768  1.00  0.00     0.003 C 
HETATM   20  C   UNL     1     -41.040 -40.022  11.771  1.00  0.00     0.030 C 
HETATM   21  C   UNL     1     -41.204 -41.505  11.446  1.00  0.00     0.272 C 
ENDBRANCH  15  16
ENDBRANCH  14  15
ENDBRANCH   4  14
TORSDOF 4
ENDMDL
MODEL 9
REMARK VINA RESULT:      -5.3      4.135      5.969
REMARK  4 active torsions:
REMARK  status: ('A' for Active; 'I' for Inactive)
REMARK    1  A    between atoms: C_4  and  N_5 
REMARK       I    between atoms: N_5  and  C_6 
REMARK       I    between atoms: C_6  and  N_8 
REMARK    2  A    between atoms: N_8  and  C_9 
REMARK    3  A    between atoms: C_9  and  C_10 
REMARK    4  A    between atoms: C_10  and  N_11 
ROOT
HETATM    1  N   UNL     1     -43.304 -52.705  12.120  1.00  0.00    -0.293 N 
HETATM    2  C   UNL     1     -41.999 -52.670  12.530  1.00  0.00     0.321 C 
HETATM    3  O   UNL     1     -41.100 -52.738  11.693  1.00  0.00    -0.247 OA
HETATM    4  N   UNL     1     -41.779 -52.616  13.868  1.00  0.00    -0.341 N 
HETATM    5  H   UNL     1     -43.424 -52.796  11.123  1.00  0.00     0.172 HD
HETATM    6  H   UNL     1     -42.549 -52.267  14.433  1.00  0.00     0.164 HD
ENDROOT
BRANCH   1   7
HETATM    7  C   UNL     1     -44.440 -52.709  12.910  1.00  0.00     0.132 A 
HETATM    8  C   UNL     1     -44.963 -51.577  13.580  1.00  0.00     0.084 A 
HETATM    9  C   UNL     1     -46.089 -52.041  14.216  1.00  0.00     0.076 A 
HETATM   10  C   UNL     1     -47.129 -51.447  15.072  1.00  0.00     0.079 C 
HETATM   11  O   UNL     1     -46.230 -53.366  13.958  1.00  0.00    -0.241 OA
HETATM   12  N   UNL     1     -45.200 -53.785  13.150  1.00  0.00    -0.245 N 
ATOM     13  HN  UNL     1     -45.046 -54.730  12.800  1.00  0.00     0.196 HD
ENDBRANCH   1   7
BRANCH   4  14
HETATM   14  C   UNL     1     -40.468 -52.598  14.478  1.00  0.00     0.154 C 
BRANCH  14  15
HETATM   15  C   UNL     1     -40.017 -51.188  14.902  1.00  0.00     0.292 C 
BRANCH  15  16
HETATM   16  N   UNL     1     -39.037 -50.545  13.997  1.00  0.00     0.090 N 
HETATM   17  C   UNL     1     -38.202 -51.518  13.275  1.00  0.00     0.272 C 
HETATM   18  C   UNL     1     -37.155 -50.808  12.408  1.00  0.00     0.030 C 
HETATM   19  C   UNL     1     -37.786 -49.791  11.462  1.00  0.00     0.003 C 
HETATM   20  C   UNL     1     -38.736 -48.871  12.217  1.00  0.00     0.030 C 
HETATM   21  C   UNL     1     -39.740 -49.675  13.040  1.00  0.00     0.272 C 
ENDBRANCH  15  16
ENDBRANCH  14  15
ENDBRANCH   4  14
TORSDOF 4
ENDMDL
