MODEL 1
REMARK VINA RESULT:      -7.0      0.000      0.000
REMARK  6 active torsions:
REMARK  status: ('A' for Active; 'I' for Inactive)
REMARK    1  A    between atoms: O_1  and  C_2 
REMARK    2  A    between atoms: C_2  and  C_3 
REMARK    3  A    between atoms: C_2  and  C_19 
REMARK    4  A    between atoms: C_3  and  N_4 
REMARK    5  A    between atoms: C_7  and  C_16 
REMARK    6  A    between atoms: C_9  and  C_12 
ROOT
HETATM    1  N   UNL     1     -41.505 -51.323  12.187  1.00  0.00    -0.254 N 
HETATM    2  N   UNL     1     -42.113 -50.169  11.746  1.00  0.00    -0.299 N 
ATOM      3  HN  UNL     1     -43.118 -50.125  11.579  1.00  0.00     0.187 HD
HETATM    4  C   UNL     1     -41.352 -49.144  11.552  1.00  0.00     0.031 A 
HETATM    5  C   UNL     1     -39.900 -49.116  11.746  1.00  0.00     0.049 A 
HETATM    6  C   UNL     1     -39.311 -50.259  12.132  1.00  0.00     0.119 A 
HETATM    7  C   UNL     1     -40.129 -51.469  12.353  1.00  0.00     0.277 A 
HETATM    8  O   UNL     1     -39.620 -52.544  12.656  1.00  0.00    -0.266 OA
ENDROOT
BRANCH   1   9
HETATM    9  C   UNL     1     -42.383 -52.492  12.352  1.00  0.00     0.189 C 
BRANCH   9  10
HETATM   10  C   UNL     1     -42.669 -52.748  13.843  1.00  0.00     0.171 C 
BRANCH  10  11
HETATM   11  O   UNL     1     -41.943 -53.904  14.287  1.00  0.00    -0.389 OA
HETATM   12  H   UNL     1     -41.612 -53.680  15.180  1.00  0.00     0.210 HD
ENDBRANCH  10  11
BRANCH  10  13
HETATM   13  C   UNL     1     -44.143 -52.936  14.137  1.00  0.00    -0.025 A 
HETATM   14  C   UNL     1     -44.657 -54.229  14.349  1.00  0.00     0.010 A 
HETATM   15  C   UNL     1     -46.024 -54.430  14.564  1.00  0.00     0.004 A 
HETATM   16  C   UNL     1     -46.894 -53.342  14.581  1.00  0.00     0.042 A 
HETATM   17  C   UNL     1     -46.389 -52.061  14.400  1.00  0.00     0.117 A 
HETATM   18  F   UNL     1     -47.225 -51.015  14.417  1.00  0.00    -0.206 F 
HETATM   19  C   UNL     1     -45.029 -51.850  14.187  1.00  0.00     0.052 A 
ENDBRANCH  10  13
ENDBRANCH   9  10
ENDBRANCH   1   9
BRANCH   4  20
HETATM   20  C   UNL     1     -41.968 -47.871  11.109  1.00  0.00     0.037 A 
HETATM   21  C   UNL     1     -43.467 -47.736  10.975  1.00  0.00     0.011 A 
HETATM   22  C   UNL     1     -42.613 -47.781   9.745  1.00  0.00     0.011 A 
ENDBRANCH   4  20
BRANCH   6  23
HETATM   23  C   UNL     1     -37.847 -50.350  12.344  1.00  0.00     0.422 C 
HETATM   24  F   UNL     1     -37.428 -50.950  13.483  1.00  0.00    -0.166 F 
HETATM   25  F   UNL     1     -37.259 -51.031  11.320  1.00  0.00    -0.166 F 
HETATM   26  F   UNL     1     -37.282 -49.111  12.333  1.00  0.00    -0.166 F 
ENDBRANCH   6  23
TORSDOF 6
ENDMDL
MODEL 2
REMARK VINA RESULT:      -6.9      3.092      4.392
REMARK  6 active torsions:
REMARK  status: ('A' for Active; 'I' for Inactive)
REMARK    1  A    between atoms: O_1  and  C_2 
REMARK    2  A    between atoms: C_2  and  C_3 
REMARK    3  A    between atoms: C_2  and  C_19 
REMARK    4  A    between atoms: C_3  and  N_4 
REMARK    5  A    between atoms: C_7  and  C_16 
REMARK    6  A    between atoms: C_9  and  C_12 
ROOT
HETATM    1  N   UNL     1     -41.553 -49.729  12.083  1.00  0.00    -0.254 N 
HETATM    2  N   UNL     1     -40.218 -50.009  12.265  1.00  0.00    -0.299 N 
ATOM      3  HN  UNL     1     -39.908 -50.895  12.666  1.00  0.00     0.187 HD
HETATM    4  C   UNL     1     -39.375 -49.099  11.907  1.00  0.00     0.031 A 
HETATM    5  C   UNL     1     -39.724 -47.794  11.341  1.00  0.00     0.049 A 
HETATM    6  C   UNL     1     -41.029 -47.512  11.209  1.00  0.00     0.119 A 
HETATM    7  C   UNL     1     -42.041 -48.508  11.619  1.00  0.00     0.277 A 
HETATM    8  O   UNL     1     -43.243 -48.266  11.561  1.00  0.00    -0.266 OA
ENDROOT
BRANCH   1   9
HETATM    9  C   UNL     1     -42.498 -50.758  12.545  1.00  0.00     0.189 C 
BRANCH   9  10
HETATM   10  C   UNL     1     -41.837 -52.149  12.521  1.00  0.00     0.171 C 
BRANCH  10  11
HETATM   11  O   UNL     1     -41.472 -52.492  11.176  1.00  0.00    -0.389 OA
HETATM   12  H   UNL     1     -41.780 -53.411  11.046  1.00  0.00     0.210 HD
ENDBRANCH  10  11
BRANCH  10  13
HETATM   13  C   UNL     1     -42.727 -53.233  13.092  1.00  0.00    -0.025 A 
HETATM   14  C   UNL     1     -44.029 -53.411  12.590  1.00  0.00     0.010 A 
HETATM   15  C   UNL     1     -44.887 -54.368  13.142  1.00  0.00     0.004 A 
HETATM   16  C   UNL     1     -44.452 -55.168  14.196  1.00  0.00     0.042 A 
HETATM   17  C   UNL     1     -43.158 -55.016  14.679  1.00  0.00     0.117 A 
HETATM   18  F   UNL     1     -42.740 -55.785  15.693  1.00  0.00    -0.206 F 
HETATM   19  C   UNL     1     -42.295 -54.068  14.134  1.00  0.00     0.052 A 
ENDBRANCH  10  13
ENDBRANCH   9  10
ENDBRANCH   1   9
BRANCH   4  20
HETATM   20  C   UNL     1     -37.925 -49.372  12.055  1.00  0.00     0.037 A 
HETATM   21  C   UNL     1     -37.142 -50.043  10.950  1.00  0.00     0.011 A 
HETATM   22  C   UNL     1     -37.438 -50.794  12.214  1.00  0.00     0.011 A 
ENDBRANCH   4  20
BRANCH   6  23
HETATM   23  C   UNL     1     -41.497 -46.217  10.664  1.00  0.00     0.422 C 
HETATM   24  F   UNL     1     -42.215 -45.425  11.494  1.00  0.00    -0.166 F 
HETATM   25  F   UNL     1     -40.440 -45.465  10.246  1.00  0.00    -0.166 F 
HETATM   26  F   UNL     1     -42.268 -46.411   9.558  1.00  0.00    -0.166 F 
ENDBRANCH   6  23
TORSDOF 6
ENDMDL
MODEL 3
REMARK VINA RESULT:      -6.8      1.477      1.861
REMARK  6 active torsions:
REMARK  status: ('A' for Active; 'I' for Inactive)
REMARK    1  A    between atoms: O_1  and  C_2 
REMARK    2  A    between atoms: C_2  and  C_3 
REMARK    3  A    between atoms: C_2  and  C_19 
REMARK    4  A    between atoms: C_3  and  N_4 
REMARK    5  A    between atoms: C_7  and  C_16 
REMARK    6  A    between atoms: C_9  and  C_12 
ROOT
HETATM    1  N   UNL     1     -41.576 -50.947  12.264  1.00  0.00    -0.254 N 
HETATM    2  N   UNL     1     -42.098 -49.821  11.668  1.00  0.00    -0.299 N 
ATOM      3  HN  UNL     1     -43.103 -49.703  11.537  1.00  0.00     0.187 HD
HETATM    4  C   UNL     1     -41.257 -48.920  11.283  1.00  0.00     0.031 A 
HETATM    5  C   UNL     1     -39.800 -49.007  11.412  1.00  0.00     0.049 A 
HETATM    6  C   UNL     1     -39.299 -50.129  11.953  1.00  0.00     0.119 A 
HETATM    7  C   UNL     1     -40.212 -51.202  12.396  1.00  0.00     0.277 A 
HETATM    8  O   UNL     1     -39.788 -52.263  12.847  1.00  0.00    -0.266 OA
ENDROOT
BRANCH   1   9
HETATM    9  C   UNL     1     -42.548 -51.983  12.649  1.00  0.00     0.189 C 
BRANCH   9  10
HETATM   10  C   UNL     1     -43.861 -51.340  13.131  1.00  0.00     0.171 C 
BRANCH  10  11
HETATM   11  O   UNL     1     -43.585 -50.379  14.160  1.00  0.00    -0.389 OA
HETATM   12  H   UNL     1     -43.233 -49.592  13.698  1.00  0.00     0.210 HD
ENDBRANCH  10  11
BRANCH  10  13
HETATM   13  C   UNL     1     -44.860 -52.356  13.646  1.00  0.00    -0.025 A 
HETATM   14  C   UNL     1     -45.972 -51.930  14.395  1.00  0.00     0.010 A 
HETATM   15  C   UNL     1     -46.874 -52.855  14.929  1.00  0.00     0.004 A 
HETATM   16  C   UNL     1     -46.684 -54.219  14.713  1.00  0.00     0.042 A 
HETATM   17  C   UNL     1     -45.603 -54.644  13.952  1.00  0.00     0.117 A 
HETATM   18  F   UNL     1     -45.420 -55.954  13.744  1.00  0.00    -0.206 F 
HETATM   19  C   UNL     1     -44.700 -53.730  13.414  1.00  0.00     0.052 A 
ENDBRANCH  10  13
ENDBRANCH   9  10
ENDBRANCH   1   9
BRANCH   4  20
HETATM   20  C   UNL     1     -41.777 -47.676  10.666  1.00  0.00     0.037 A 
HETATM   21  C   UNL     1     -43.222 -47.266  10.838  1.00  0.00     0.011 A 
HETATM   22  C   UNL     1     -42.742 -47.757   9.506  1.00  0.00     0.011 A 
ENDBRANCH   4  20
BRANCH   6  23
HETATM   23  C   UNL     1     -37.841 -50.332  12.117  1.00  0.00     0.422 C 
HETATM   24  F   UNL     1     -37.308 -51.440  11.552  1.00  0.00    -0.166 F 
HETATM   25  F   UNL     1     -37.151 -49.276  11.601  1.00  0.00    -0.166 F 
HETATM   26  F   UNL     1     -37.508 -50.377  13.437  1.00  0.00    -0.166 F 
ENDBRANCH   6  23
TORSDOF 6
ENDMDL
MODEL 4
REMARK VINA RESULT:      -6.8      2.678      6.486
REMARK  6 active torsions:
REMARK  status: ('A' for Active; 'I' for Inactive)
REMARK    1  A    between atoms: O_1  and  C_2 
REMARK    2  A    between atoms: C_2  and  C_3 
REMARK    3  A    between atoms: C_2  and  C_19 
REMARK    4  A    between atoms: C_3  and  N_4 
REMARK    5  A    between atoms: C_7  and  C_16 
REMARK    6  A    between atoms: C_9  and  C_12 
ROOT
HETATM    1  N   UNL     1     -42.042 -52.445  12.572  1.00  0.00    -0.254 N 
HETATM    2  N   UNL     1     -43.157 -51.639  12.533  1.00  0.00    -0.299 N 
ATOM      3  HN  UNL     1     -43.226 -50.854  11.884  1.00  0.00     0.187 HD
HETATM    4  C   UNL     1     -44.112 -51.921  13.354  1.00  0.00     0.031 A 
HETATM    5  C   UNL     1     -44.097 -53.013  14.331  1.00  0.00     0.049 A 
HETATM    6  C   UNL     1     -42.987 -53.765  14.393  1.00  0.00     0.119 A 
HETATM    7  C   UNL     1     -41.854 -53.478  13.489  1.00  0.00     0.277 A 
HETATM    8  O   UNL     1     -40.804 -54.111  13.552  1.00  0.00    -0.266 OA
ENDROOT
BRANCH   1   9
HETATM    9  C   UNL     1     -40.945 -52.075  11.663  1.00  0.00     0.189 C 
BRANCH   9  10
HETATM   10  C   UNL     1     -40.730 -50.550  11.669  1.00  0.00     0.171 C 
BRANCH  10  11
HETATM   11  O   UNL     1     -40.506 -50.084  10.330  1.00  0.00    -0.389 OA
HETATM   12  H   UNL     1     -40.920 -49.199  10.288  1.00  0.00     0.210 HD
ENDBRANCH  10  11
BRANCH  10  13
HETATM   13  C   UNL     1     -39.574 -50.122  12.550  1.00  0.00    -0.025 A 
HETATM   14  C   UNL     1     -38.751 -51.093  13.149  1.00  0.00     0.010 A 
HETATM   15  C   UNL     1     -37.714 -50.722  14.011  1.00  0.00     0.004 A 
HETATM   16  C   UNL     1     -37.479 -49.375  14.278  1.00  0.00     0.042 A 
HETATM   17  C   UNL     1     -38.271 -48.410  13.668  1.00  0.00     0.117 A 
HETATM   18  F   UNL     1     -38.044 -47.115  13.924  1.00  0.00    -0.206 F 
HETATM   19  C   UNL     1     -39.304 -48.770  12.806  1.00  0.00     0.052 A 
ENDBRANCH  10  13
ENDBRANCH   9  10
ENDBRANCH   1   9
BRANCH   4  20
HETATM   20  C   UNL     1     -45.346 -51.099  13.324  1.00  0.00     0.037 A 
HETATM   21  C   UNL     1     -46.576 -51.512  14.100  1.00  0.00     0.011 A 
HETATM   22  C   UNL     1     -46.573 -51.610  12.604  1.00  0.00     0.011 A 
ENDBRANCH   4  20
BRANCH   6  23
HETATM   23  C   UNL     1     -42.856 -54.885  15.353  1.00  0.00     0.422 C 
HETATM   24  F   UNL     1     -41.603 -55.203  15.756  1.00  0.00    -0.166 F 
HETATM   25  F   UNL     1     -43.563 -54.625  16.489  1.00  0.00    -0.166 F 
HETATM   26  F   UNL     1     -43.394 -56.025  14.839  1.00  0.00    -0.166 F 
ENDBRANCH   6  23
TORSDOF 6
ENDMDL
MODEL 5
REMARK VINA RESULT:      -6.7      3.061      6.604
REMARK  6 active torsions:
REMARK  status: ('A' for Active; 'I' for Inactive)
REMARK    1  A    between atoms: O_1  and  C_2 
REMARK    2  A    between atoms: C_2  and  C_3 
REMARK    3  A    between atoms: C_2  and  C_19 
REMARK    4  A    between atoms: C_3  and  N_4 
REMARK    5  A    between atoms: C_7  and  C_16 
REMARK    6  A    between atoms: C_9  and  C_12 
ROOT
HETATM    1  N   UNL     1     -41.876 -50.785  12.236  1.00  0.00    -0.254 N 
HETATM    2  N   UNL     1     -43.174 -50.464  12.566  1.00  0.00    -0.299 N 
ATOM      3  HN  UNL     1     -43.583 -49.566  12.310  1.00  0.00     0.187 HD
HETATM    4  C   UNL     1     -43.850 -51.353  13.215  1.00  0.00     0.031 A 
HETATM    5  C   UNL     1     -43.344 -52.660  13.641  1.00  0.00     0.049 A 
HETATM    6  C   UNL     1     -42.064 -52.945  13.355  1.00  0.00     0.119 A 
HETATM    7  C   UNL     1     -41.236 -51.960  12.629  1.00  0.00     0.277 A 
HETATM    8  O   UNL     1     -40.049 -52.164  12.396  1.00  0.00    -0.266 OA
ENDROOT
BRANCH   1   9
HETATM    9  C   UNL     1     -41.109 -49.739  11.543  1.00  0.00     0.189 C 
BRANCH   9  10
HETATM   10  C   UNL     1     -41.923 -48.435  11.462  1.00  0.00     0.171 C 
BRANCH  10  11
HETATM   11  O   UNL     1     -42.573 -48.343  10.185  1.00  0.00    -0.389 OA
HETATM   12  H   UNL     1     -43.078 -47.507  10.207  1.00  0.00     0.210 HD
ENDBRANCH  10  11
BRANCH  10  13
HETATM   13  C   UNL     1     -41.078 -47.198  11.685  1.00  0.00    -0.025 A 
HETATM   14  C   UNL     1     -40.682 -46.843  12.988  1.00  0.00     0.010 A 
HETATM   15  C   UNL     1     -39.951 -45.675  13.222  1.00  0.00     0.004 A 
HETATM   16  C   UNL     1     -39.594 -44.850  12.157  1.00  0.00     0.042 A 
HETATM   17  C   UNL     1     -39.958 -45.209  10.866  1.00  0.00     0.117 A 
HETATM   18  F   UNL     1     -39.615 -44.417   9.842  1.00  0.00    -0.206 F 
HETATM   19  C   UNL     1     -40.684 -46.372  10.621  1.00  0.00     0.052 A 
ENDBRANCH  10  13
ENDBRANCH   9  10
ENDBRANCH   1   9
BRANCH   4  20
HETATM   20  C   UNL     1     -45.262 -51.063  13.562  1.00  0.00     0.037 A 
HETATM   21  C   UNL     1     -46.188 -52.158  14.038  1.00  0.00     0.011 A 
HETATM   22  C   UNL     1     -46.374 -51.569  12.673  1.00  0.00     0.011 A 
ENDBRANCH   4  20
BRANCH   6  23
HETATM   23  C   UNL     1     -41.443 -54.230  13.752  1.00  0.00     0.422 C 
HETATM   24  F   UNL     1     -40.417 -54.170  14.633  1.00  0.00    -0.166 F 
HETATM   25  F   UNL     1     -42.372 -55.057  14.310  1.00  0.00    -0.166 F 
HETATM   26  F   UNL     1     -40.972 -54.893  12.660  1.00  0.00    -0.166 F 
ENDBRANCH   6  23
TORSDOF 6
ENDMDL
MODEL 6
REMARK VINA RESULT:      -6.4      2.170      6.913
REMARK  6 active torsions:
REMARK  status: ('A' for Active; 'I' for Inactive)
REMARK    1  A    between atoms: O_1  and  C_2 
REMARK    2  A    between atoms: C_2  and  C_3 
REMARK    3  A    between atoms: C_2  and  C_19 
REMARK    4  A    between atoms: C_3  and  N_4 
REMARK    5  A    between atoms: C_7  and  C_16 
REMARK    6  A    between atoms: C_9  and  C_12 
ROOT
HETATM    1  N   UNL     1     -42.716 -52.117  14.001  1.00  0.00    -0.254 N 
HETATM    2  N   UNL     1     -42.415 -51.323  15.085  1.00  0.00    -0.299 N 
ATOM      3  HN  UNL     1     -41.463 -51.251  15.446  1.00  0.00     0.187 HD
HETATM    4  C   UNL     1     -43.391 -50.673  15.624  1.00  0.00     0.031 A 
HETATM    5  C   UNL     1     -44.789 -50.726  15.189  1.00  0.00     0.049 A 
HETATM    6  C   UNL     1     -45.081 -51.538  14.161  1.00  0.00     0.119 A 
HETATM    7  C   UNL     1     -44.007 -52.321  13.515  1.00  0.00     0.277 A 
HETATM    8  O   UNL     1     -44.244 -53.112  12.606  1.00  0.00    -0.266 OA
ENDROOT
BRANCH   1   9
HETATM    9  C   UNL     1     -41.599 -52.888  13.435  1.00  0.00     0.189 C 
BRANCH   9  10
HETATM   10  C   UNL     1     -41.104 -52.242  12.128  1.00  0.00     0.171 C 
BRANCH  10  11
HETATM   11  O   UNL     1     -40.594 -53.254  11.246  1.00  0.00    -0.389 OA
HETATM   12  H   UNL     1     -41.210 -53.275  10.487  1.00  0.00     0.210 HD
ENDBRANCH  10  11
BRANCH  10  13
HETATM   13  C   UNL     1     -40.037 -51.191  12.358  1.00  0.00    -0.025 A 
HETATM   14  C   UNL     1     -40.058 -49.996  11.616  1.00  0.00     0.010 A 
HETATM   15  C   UNL     1     -39.051 -49.038  11.772  1.00  0.00     0.004 A 
HETATM   16  C   UNL     1     -38.015 -49.256  12.677  1.00  0.00     0.042 A 
HETATM   17  C   UNL     1     -38.004 -50.422  13.432  1.00  0.00     0.117 A 
HETATM   18  F   UNL     1     -37.008 -50.633  14.303  1.00  0.00    -0.206 F 
HETATM   19  C   UNL     1     -39.003 -51.381  13.287  1.00  0.00     0.052 A 
ENDBRANCH  10  13
ENDBRANCH   9  10
ENDBRANCH   1   9
BRANCH   4  20
HETATM   20  C   UNL     1     -43.106 -49.780  16.772  1.00  0.00     0.037 A 
HETATM   21  C   UNL     1     -44.142 -48.798  17.271  1.00  0.00     0.011 A 
HETATM   22  C   UNL     1     -42.929 -48.296  16.546  1.00  0.00     0.011 A 
ENDBRANCH   4  20
BRANCH   6  23
HETATM   23  C   UNL     1     -46.463 -51.682  13.648  1.00  0.00     0.422 C 
HETATM   24  F   UNL     1     -46.679 -51.327  12.359  1.00  0.00    -0.166 F 
HETATM   25  F   UNL     1     -46.881 -52.974  13.758  1.00  0.00    -0.166 F 
HETATM   26  F   UNL     1     -47.333 -50.950  14.397  1.00  0.00    -0.166 F 
ENDBRANCH   6  23
TORSDOF 6
ENDMDL
MODEL 7
REMARK VINA RESULT:      -6.3      3.995      5.395
REMARK  6 active torsions:
REMARK  status: ('A' for Active; 'I' for Inactive)
REMARK    1  A    between atoms: O_1  and  C_2 
REMARK    2  A    between atoms: C_2  and  C_3 
REMARK    3  A    between atoms: C_2  and  C_19 
REMARK    4  A    between atoms: C_3  and  N_4 
REMARK    5  A    between atoms: C_7  and  C_16 
REMARK    6  A    between atoms: C_9  and  C_12 
ROOT
HETATM    1  N   UNL     1     -43.642 -53.496  13.566  1.00  0.00    -0.254 N 
HETATM    2  N   UNL     1     -42.496 -52.951  13.030  1.00  0.00    -0.299 N 
ATOM      3  HN  UNL     1     -42.529 -52.325  12.225  1.00  0.00     0.187 HD
HETATM    4  C   UNL     1     -41.378 -53.269  13.592  1.00  0.00     0.031 A 
HETATM    5  C   UNL     1     -41.230 -54.171  14.737  1.00  0.00     0.049 A 
HETATM    6  C   UNL     1     -42.347 -54.733  15.223  1.00  0.00     0.119 A 
HETATM    7  C   UNL     1     -43.655 -54.421  14.609  1.00  0.00     0.277 A 
HETATM    8  O   UNL     1     -44.691 -54.955  14.994  1.00  0.00    -0.266 OA
ENDROOT
BRANCH   1   9
HETATM    9  C   UNL     1     -44.899 -53.161  12.878  1.00  0.00     0.189 C 
BRANCH   9  10
HETATM   10  C   UNL     1     -45.261 -51.682  13.104  1.00  0.00     0.171 C 
BRANCH  10  11
HETATM   11  O   UNL     1     -44.149 -50.847  12.749  1.00  0.00    -0.389 OA
HETATM   12  H   UNL     1     -43.989 -51.014  11.799  1.00  0.00     0.210 HD
ENDBRANCH  10  11
BRANCH  10  13
HETATM   13  C   UNL     1     -45.675 -51.388  14.532  1.00  0.00    -0.025 A 
HETATM   14  C   UNL     1     -46.970 -51.719  14.970  1.00  0.00     0.010 A 
HETATM   15  C   UNL     1     -47.391 -51.404  16.266  1.00  0.00     0.004 A 
HETATM   16  C   UNL     1     -46.520 -50.765  17.146  1.00  0.00     0.042 A 
HETATM   17  C   UNL     1     -45.231 -50.461  16.728  1.00  0.00     0.117 A 
HETATM   18  F   UNL     1     -44.393 -49.847  17.574  1.00  0.00    -0.206 F 
HETATM   19  C   UNL     1     -44.801 -50.772  15.440  1.00  0.00     0.052 A 
ENDBRANCH  10  13
ENDBRANCH   9  10
ENDBRANCH   1   9
BRANCH   4  20
HETATM   20  C   UNL     1     -40.123 -52.679  13.069  1.00  0.00     0.037 A 
HETATM   21  C   UNL     1     -38.975 -52.344  13.993  1.00  0.00     0.011 A 
HETATM   22  C   UNL     1     -39.781 -51.239  13.379  1.00  0.00     0.011 A 
ENDBRANCH   4  20
BRANCH   6  23
HETATM   23  C   UNL     1     -42.314 -55.673  16.367  1.00  0.00     0.422 C 
HETATM   24  F   UNL     1     -43.120 -55.390  17.418  1.00  0.00    -0.166 F 
HETATM   25  F   UNL     1     -42.650 -56.930  15.962  1.00  0.00    -0.166 F 
HETATM   26  F   UNL     1     -41.052 -55.774  16.869  1.00  0.00    -0.166 F 
ENDBRANCH   6  23
TORSDOF 6
ENDMDL
MODEL 8
REMARK VINA RESULT:      -6.3      3.714      6.020
REMARK  6 active torsions:
REMARK  status: ('A' for Active; 'I' for Inactive)
REMARK    1  A    between atoms: O_1  and  C_2 
REMARK    2  A    between atoms: C_2  and  C_3 
REMARK    3  A    between atoms: C_2  and  C_19 
REMARK    4  A    between atoms: C_3  and  N_4 
REMARK    5  A    between atoms: C_7  and  C_16 
REMARK    6  A    between atoms: C_9  and  C_12 
ROOT
HETATM    1  N   UNL     1     -42.522 -52.802  13.075  1.00  0.00    -0.254 N 
HETATM    2  N   UNL     1     -42.023 -51.627  13.591  1.00  0.00    -0.299 N 
ATOM      3  HN  UNL     1     -41.028 -51.509  13.782  1.00  0.00     0.187 HD
HETATM    4  C   UNL     1     -42.871 -50.682  13.822  1.00  0.00     0.031 A 
HETATM    5  C   UNL     1     -44.317 -50.765  13.597  1.00  0.00     0.049 A 
HETATM    6  C   UNL     1     -44.800 -51.929  13.137  1.00  0.00     0.119 A 
HETATM    7  C   UNL     1     -43.879 -53.053  12.870  1.00  0.00     0.277 A 
HETATM    8  O   UNL     1     -44.290 -54.149  12.499  1.00  0.00    -0.266 OA
ENDROOT
BRANCH   1   9
HETATM    9  C   UNL     1     -41.546 -53.883  12.867  1.00  0.00     0.189 C 
BRANCH   9  10
HETATM   10  C   UNL     1     -40.410 -53.792  13.902  1.00  0.00     0.171 C 
BRANCH  10  11
HETATM   11  O   UNL     1     -39.145 -54.006  13.258  1.00  0.00    -0.389 OA
HETATM   12  H   UNL     1     -39.032 -54.976  13.217  1.00  0.00     0.210 HD
ENDBRANCH  10  11
BRANCH  10  13
HETATM   13  C   UNL     1     -40.568 -54.780  15.039  1.00  0.00    -0.025 A 
HETATM   14  C   UNL     1     -41.853 -55.121  15.499  1.00  0.00     0.010 A 
HETATM   15  C   UNL     1     -42.020 -55.987  16.585  1.00  0.00     0.004 A 
HETATM   16  C   UNL     1     -40.906 -56.532  17.219  1.00  0.00     0.042 A 
HETATM   17  C   UNL     1     -39.635 -56.220  16.752  1.00  0.00     0.117 A 
HETATM   18  F   UNL     1     -38.564 -56.744  17.363  1.00  0.00    -0.206 F 
HETATM   19  C   UNL     1     -39.458 -55.361  15.671  1.00  0.00     0.052 A 
ENDBRANCH  10  13
ENDBRANCH   9  10
ENDBRANCH   1   9
BRANCH   4  20
HETATM   20  C   UNL     1     -42.372 -49.389  14.346  1.00  0.00     0.037 A 
HETATM   21  C   UNL     1     -42.957 -48.078  13.871  1.00  0.00     0.011 A 
HETATM   22  C   UNL     1     -41.573 -48.471  13.450  1.00  0.00     0.011 A 
ENDBRANCH   4  20
BRANCH   6  23
HETATM   23  C   UNL     1     -46.246 -52.130  12.889  1.00  0.00     0.422 C 
HETATM   24  F   UNL     1     -46.620 -52.386  11.613  1.00  0.00    -0.166 F 
HETATM   25  F   UNL     1     -46.719 -53.168  13.636  1.00  0.00    -0.166 F 
HETATM   26  F   UNL     1     -46.958 -51.039  13.285  1.00  0.00    -0.166 F 
ENDBRANCH   6  23
TORSDOF 6
ENDMDL
MODEL 9
REMARK VINA RESULT:      -6.3      2.745      6.329
REMARK  6 active torsions:
REMARK  status: ('A' for Active; 'I' for Inactive)
REMARK    1  A    between atoms: O_1  and  C_2 
REMARK    2  A    between atoms: C_2  and  C_3 
REMARK    3  A    between atoms: C_2  and  C_19 
REMARK    4  A    between atoms: C_3  and  N_4 
REMARK    5  A    between atoms: C_7  and  C_16 
REMARK    6  A    between atoms: C_9  and  C_12 
ROOT
HETATM    1  N   UNL     1     -41.249 -51.568  12.146  1.00  0.00    -0.254 N 
HETATM    2  N   UNL     1     -42.566 -51.953  12.031  1.00  0.00    -0.299 N 
ATOM      3  HN  UNL     1     -43.242 -51.391  11.513  1.00  0.00     0.187 HD
HETATM    4  C   UNL     1     -42.906 -53.057  12.607  1.00  0.00     0.031 A 
HETATM    5  C   UNL     1     -42.013 -53.919  13.385  1.00  0.00     0.049 A 
HETATM    6  C   UNL     1     -40.742 -53.513  13.530  1.00  0.00     0.119 A 
HETATM    7  C   UNL     1     -40.299 -52.248  12.907  1.00  0.00     0.277 A 
HETATM    8  O   UNL     1     -39.159 -51.819  13.062  1.00  0.00    -0.266 OA
ENDROOT
BRANCH   1   9
HETATM    9  C   UNL     1     -40.894 -50.283  11.525  1.00  0.00     0.189 C 
BRANCH   9  10
HETATM   10  C   UNL     1     -41.716 -49.138  12.146  1.00  0.00     0.171 C 
BRANCH  10  11
HETATM   11  O   UNL     1     -43.016 -49.084  11.538  1.00  0.00    -0.389 OA
HETATM   12  H   UNL     1     -42.852 -49.021  10.576  1.00  0.00     0.210 HD
ENDBRANCH  10  11
BRANCH  10  13
HETATM   13  C   UNL     1     -41.042 -47.788  12.011  1.00  0.00    -0.025 A 
HETATM   14  C   UNL     1     -41.175 -47.053  10.818  1.00  0.00     0.010 A 
HETATM   15  C   UNL     1     -40.514 -45.832  10.651  1.00  0.00     0.004 A 
HETATM   16  C   UNL     1     -39.720 -45.323  11.676  1.00  0.00     0.042 A 
HETATM   17  C   UNL     1     -39.606 -46.031  12.866  1.00  0.00     0.117 A 
HETATM   18  F   UNL     1     -38.843 -45.542  13.852  1.00  0.00    -0.206 F 
HETATM   19  C   UNL     1     -40.262 -47.247  13.044  1.00  0.00     0.052 A 
ENDBRANCH  10  13
ENDBRANCH   9  10
ENDBRANCH   1   9
BRANCH   4  20
HETATM   20  C   UNL     1     -44.307 -53.526  12.481  1.00  0.00     0.037 A 
HETATM   21  C   UNL     1     -45.465 -52.562  12.600  1.00  0.00     0.011 A 
HETATM   22  C   UNL     1     -45.205 -53.552  13.696  1.00  0.00     0.011 A 
ENDBRANCH   4  20
BRANCH   6  23
HETATM   23  C   UNL     1     -39.756 -54.297  14.309  1.00  0.00     0.422 C 
HETATM   24  F   UNL     1     -38.836 -54.998  13.605  1.00  0.00    -0.166 F 
HETATM   25  F   UNL     1     -39.052 -53.483  15.145  1.00  0.00    -0.166 F 
HETATM   26  F   UNL     1     -40.386 -55.195  15.116  1.00  0.00    -0.166 F 
ENDBRANCH   6  23
TORSDOF 6
ENDMDL
