MODEL 1
REMARK VINA RESULT:      -6.2      0.000      0.000
REMARK  3 active torsions:
REMARK  status: ('A' for Active; 'I' for Inactive)
REMARK    1  A    between atoms: O_2  and  C_3 
REMARK    2  A    between atoms: C_10  and  N_11 
REMARK       I    between atoms: N_11  and  C_12 
REMARK       I    between atoms: C_12  and  N_14 
REMARK    3  A    between atoms: N_14  and  C_15 
ROOT
HETATM    1  N   UNL     1     -42.594 -52.784  11.790  1.00  0.00    -0.292 N 
HETATM    2  C   UNL     1     -43.754 -52.995  12.481  1.00  0.00     0.322 C 
HETATM    3  O   UNL     1     -44.545 -53.856  12.099  1.00  0.00    -0.247 OA
HETATM    4  N   UNL     1     -43.922 -52.262  13.623  1.00  0.00    -0.334 N 
HETATM    5  H   UNL     1     -42.412 -53.454  11.053  1.00  0.00     0.172 HD
HETATM    6  H   UNL     1     -43.263 -51.489  13.702  1.00  0.00     0.165 HD
ENDROOT
BRANCH   1   7
HETATM    7  C   UNL     1     -41.611 -51.804  12.005  1.00  0.00     0.143 A 
HETATM    8  C   UNL     1     -40.394 -52.170  12.599  1.00  0.00     0.112 A 
HETATM    9  C   UNL     1     -39.474 -51.156  12.860  1.00  0.00     0.042 A 
HETATM   10  C   UNL     1     -39.741 -49.853  12.448  1.00  0.00     0.027 A 
HETATM   11  C   UNL     1     -40.935 -49.591  11.796  1.00  0.00     0.007 A 
HETATM   12  C   UNL     1     -41.242 -48.224  11.263  1.00  0.00     0.068 C 
HETATM   13  N   UNL     1     -41.879 -50.536  11.609  1.00  0.00    -0.344 N 
ATOM     14  HN  UNL     1     -42.774 -50.302  11.178  1.00  0.00     0.167 HD
BRANCH   8  15
HETATM   15  O   UNL     1     -40.191 -53.490  12.920  1.00  0.00    -0.352 OA
HETATM   16  C   UNL     1     -39.388 -53.723  14.077  1.00  0.00     0.210 C 
ENDBRANCH   8  15
ENDBRANCH   1   7
BRANCH   4  17
HETATM   17  C   UNL     1     -45.038 -52.372  14.582  1.00  0.00     0.031 C 
HETATM   18  C   UNL     1     -44.955 -53.701  15.317  1.00  0.00     0.038 C 
HETATM   19  C   UNL     1     -46.421 -52.094  13.910  1.00  0.00     0.031 C 
HETATM   20  C   UNL     1     -46.820 -51.326  15.186  1.00  0.00     0.005 C 
HETATM   21  C   UNL     1     -45.317 -51.105  15.444  1.00  0.00     0.031 C 
ENDBRANCH   4  17
TORSDOF 3
ENDMDL
MODEL 2
REMARK VINA RESULT:      -5.8      1.361      1.980
REMARK  3 active torsions:
REMARK  status: ('A' for Active; 'I' for Inactive)
REMARK    1  A    between atoms: O_2  and  C_3 
REMARK    2  A    between atoms: C_10  and  N_11 
REMARK       I    between atoms: N_11  and  C_12 
REMARK       I    between atoms: C_12  and  N_14 
REMARK    3  A    between atoms: N_14  and  C_15 
ROOT
HETATM    1  N   UNL     1     -42.897 -54.081  12.879  1.00  0.00    -0.292 N 
HETATM    2  C   UNL     1     -44.229 -53.809  13.016  1.00  0.00     0.322 C 
HETATM    3  O   UNL     1     -45.061 -54.655  12.693  1.00  0.00    -0.247 OA
HETATM    4  N   UNL     1     -44.547 -52.609  13.590  1.00  0.00    -0.334 N 
HETATM    5  H   UNL     1     -42.684 -55.035  12.616  1.00  0.00     0.172 HD
HETATM    6  H   UNL     1     -43.756 -51.970  13.643  1.00  0.00     0.165 HD
ENDROOT
BRANCH   1   7
HETATM    7  C   UNL     1     -41.801 -53.232  13.103  1.00  0.00     0.143 A 
HETATM    8  C   UNL     1     -40.932 -53.500  14.172  1.00  0.00     0.112 A 
HETATM    9  C   UNL     1     -39.898 -52.594  14.404  1.00  0.00     0.042 A 
HETATM   10  C   UNL     1     -39.703 -51.525  13.534  1.00  0.00     0.027 A 
HETATM   11  C   UNL     1     -40.561 -51.377  12.455  1.00  0.00     0.007 A 
HETATM   12  C   UNL     1     -40.352 -50.290  11.444  1.00  0.00     0.068 C 
HETATM   13  N   UNL     1     -41.619 -52.188  12.257  1.00  0.00    -0.344 N 
ATOM     14  HN  UNL     1     -42.269 -52.021  11.489  1.00  0.00     0.167 HD
BRANCH   8  15
HETATM   15  O   UNL     1     -41.166 -54.611  14.944  1.00  0.00    -0.352 OA
HETATM   16  C   UNL     1     -40.064 -55.044  15.744  1.00  0.00     0.210 C 
ENDBRANCH   8  15
ENDBRANCH   1   7
BRANCH   4  17
HETATM   17  C   UNL     1     -45.900 -52.127  13.926  1.00  0.00     0.031 C 
HETATM   18  C   UNL     1     -46.575 -51.579  12.677  1.00  0.00     0.038 C 
HETATM   19  C   UNL     1     -45.891 -51.141  15.137  1.00  0.00     0.031 C 
HETATM   20  C   UNL     1     -47.183 -51.823  15.628  1.00  0.00     0.005 C 
HETATM   21  C   UNL     1     -46.749 -53.069  14.830  1.00  0.00     0.031 C 
ENDBRANCH   4  17
TORSDOF 3
ENDMDL
MODEL 3
REMARK VINA RESULT:      -5.7      1.450      2.895
REMARK  3 active torsions:
REMARK  status: ('A' for Active; 'I' for Inactive)
REMARK    1  A    between atoms: O_2  and  C_3 
REMARK    2  A    between atoms: C_10  and  N_11 
REMARK       I    between atoms: N_11  and  C_12 
REMARK       I    between atoms: C_12  and  N_14 
REMARK    3  A    between atoms: N_14  and  C_15 
ROOT
HETATM    1  N   UNL     1     -43.242 -52.964  12.042  1.00  0.00    -0.292 N 
HETATM    2  C   UNL     1     -44.464 -52.908  12.652  1.00  0.00     0.322 C 
HETATM    3  O   UNL     1     -45.485 -53.089  11.991  1.00  0.00    -0.247 OA
HETATM    4  N   UNL     1     -44.458 -52.723  14.007  1.00  0.00    -0.334 N 
HETATM    5  H   UNL     1     -43.263 -53.272  11.078  1.00  0.00     0.172 HD
HETATM    6  H   UNL     1     -43.551 -52.429  14.365  1.00  0.00     0.165 HD
ENDROOT
BRANCH   1   7
HETATM    7  C   UNL     1     -41.976 -52.704  12.591  1.00  0.00     0.143 A 
HETATM    8  C   UNL     1     -41.485 -51.390  12.593  1.00  0.00     0.112 A 
HETATM    9  C   UNL     1     -40.195 -51.184  13.081  1.00  0.00     0.042 A 
HETATM   10  C   UNL     1     -39.482 -52.248  13.627  1.00  0.00     0.027 A 
HETATM   11  C   UNL     1     -40.072 -53.502  13.658  1.00  0.00     0.007 A 
HETATM   12  C   UNL     1     -39.382 -54.666  14.302  1.00  0.00     0.068 C 
HETATM   13  N   UNL     1     -41.282 -53.744  13.115  1.00  0.00    -0.344 N 
ATOM     14  HN  UNL     1     -41.668 -54.689  13.098  1.00  0.00     0.167 HD
BRANCH   8  15
HETATM   15  O   UNL     1     -42.281 -50.391  12.087  1.00  0.00    -0.352 OA
HETATM   16  C   UNL     1     -41.641 -49.127  11.912  1.00  0.00     0.210 C 
ENDBRANCH   8  15
ENDBRANCH   1   7
BRANCH   4  17
HETATM   17  C   UNL     1     -45.634 -52.716  14.898  1.00  0.00     0.031 C 
HETATM   18  C   UNL     1     -46.172 -54.131  15.048  1.00  0.00     0.038 C 
HETATM   19  C   UNL     1     -46.702 -51.665  14.457  1.00  0.00     0.031 C 
HETATM   20  C   UNL     1     -46.916 -51.344  15.949  1.00  0.00     0.005 C 
HETATM   21  C   UNL     1     -45.491 -51.874  16.200  1.00  0.00     0.031 C 
ENDBRANCH   4  17
TORSDOF 3
ENDMDL
MODEL 4
REMARK VINA RESULT:      -5.7      1.993      3.276
REMARK  3 active torsions:
REMARK  status: ('A' for Active; 'I' for Inactive)
REMARK    1  A    between atoms: O_2  and  C_3 
REMARK    2  A    between atoms: C_10  and  N_11 
REMARK       I    between atoms: N_11  and  C_12 
REMARK       I    between atoms: C_12  and  N_14 
REMARK    3  A    between atoms: N_14  and  C_15 
ROOT
HETATM    1  N   UNL     1     -40.556 -50.775  11.333  1.00  0.00    -0.292 N 
HETATM    2  C   UNL     1     -41.398 -51.695  11.892  1.00  0.00     0.322 C 
HETATM    3  O   UNL     1     -41.086 -52.885  11.898  1.00  0.00    -0.247 OA
HETATM    4  N   UNL     1     -42.525 -51.201  12.489  1.00  0.00    -0.334 N 
HETATM    5  H   UNL     1     -39.654 -51.141  11.054  1.00  0.00     0.172 HD
HETATM    6  H   UNL     1     -42.709 -50.228  12.251  1.00  0.00     0.165 HD
ENDROOT
BRANCH   1   7
HETATM    7  C   UNL     1     -40.759 -49.398  11.147  1.00  0.00     0.143 A 
HETATM    8  C   UNL     1     -39.854 -48.488  11.712  1.00  0.00     0.112 A 
HETATM    9  C   UNL     1     -40.131 -47.129  11.565  1.00  0.00     0.042 A 
HETATM   10  C   UNL     1     -41.220 -46.721  10.800  1.00  0.00     0.027 A 
HETATM   11  C   UNL     1     -42.021 -47.686  10.210  1.00  0.00     0.007 A 
HETATM   12  C   UNL     1     -43.160 -47.305   9.314  1.00  0.00     0.068 C 
HETATM   13  N   UNL     1     -41.826 -49.006  10.407  1.00  0.00    -0.344 N 
ATOM     14  HN  UNL     1     -42.466 -49.694  10.009  1.00  0.00     0.167 HD
BRANCH   8  15
HETATM   15  O   UNL     1     -38.773 -48.979  12.401  1.00  0.00    -0.352 OA
HETATM   16  C   UNL     1     -38.454 -48.292  13.612  1.00  0.00     0.210 C 
ENDBRANCH   8  15
ENDBRANCH   1   7
BRANCH   4  17
HETATM   17  C   UNL     1     -43.536 -51.975  13.234  1.00  0.00     0.031 C 
HETATM   18  C   UNL     1     -42.950 -52.447  14.556  1.00  0.00     0.038 C 
HETATM   19  C   UNL     1     -44.164 -53.112  12.366  1.00  0.00     0.031 C 
HETATM   20  C   UNL     1     -45.524 -52.768  13.004  1.00  0.00     0.005 C 
HETATM   21  C   UNL     1     -44.965 -51.358  13.276  1.00  0.00     0.031 C 
ENDBRANCH   4  17
TORSDOF 3
ENDMDL
MODEL 5
REMARK VINA RESULT:      -5.7      2.168      4.770
REMARK  3 active torsions:
REMARK  status: ('A' for Active; 'I' for Inactive)
REMARK    1  A    between atoms: O_2  and  C_3 
REMARK    2  A    between atoms: C_10  and  N_11 
REMARK       I    between atoms: N_11  and  C_12 
REMARK       I    between atoms: C_12  and  N_14 
REMARK    3  A    between atoms: N_14  and  C_15 
ROOT
HETATM    1  N   UNL     1     -40.867 -51.645  11.399  1.00  0.00    -0.292 N 
HETATM    2  C   UNL     1     -40.655 -50.307  11.581  1.00  0.00     0.322 C 
HETATM    3  O   UNL     1     -39.842 -49.715  10.874  1.00  0.00    -0.247 OA
HETATM    4  N   UNL     1     -41.442 -49.691  12.515  1.00  0.00    -0.334 N 
HETATM    5  H   UNL     1     -40.402 -52.041  10.591  1.00  0.00     0.172 HD
HETATM    6  H   UNL     1     -41.936 -50.348  13.116  1.00  0.00     0.165 HD
ENDROOT
BRANCH   1   7
HETATM    7  C   UNL     1     -41.676 -52.515  12.147  1.00  0.00     0.143 A 
HETATM    8  C   UNL     1     -41.081 -53.362  13.095  1.00  0.00     0.112 A 
HETATM    9  C   UNL     1     -41.910 -54.260  13.766  1.00  0.00     0.042 A 
HETATM   10  C   UNL     1     -43.285 -54.230  13.551  1.00  0.00     0.027 A 
HETATM   11  C   UNL     1     -43.801 -53.307  12.655  1.00  0.00     0.007 A 
HETATM   12  C   UNL     1     -45.279 -53.178  12.442  1.00  0.00     0.068 C 
HETATM   13  N   UNL     1     -43.014 -52.487  11.930  1.00  0.00    -0.344 N 
ATOM     14  HN  UNL     1     -43.415 -51.858  11.233  1.00  0.00     0.167 HD
BRANCH   8  15
HETATM   15  O   UNL     1     -39.723 -53.284  13.284  1.00  0.00    -0.352 OA
HETATM   16  C   UNL     1     -39.142 -54.370  14.006  1.00  0.00     0.210 C 
ENDBRANCH   8  15
ENDBRANCH   1   7
BRANCH   4  17
HETATM   17  C   UNL     1     -41.467 -48.250  12.829  1.00  0.00     0.031 C 
HETATM   18  C   UNL     1     -40.189 -47.860  13.556  1.00  0.00     0.038 C 
HETATM   19  C   UNL     1     -42.780 -47.829  13.564  1.00  0.00     0.031 C 
HETATM   20  C   UNL     1     -42.777 -46.545  12.713  1.00  0.00     0.005 C 
HETATM   21  C   UNL     1     -41.936 -47.314  11.675  1.00  0.00     0.031 C 
ENDBRANCH   4  17
TORSDOF 3
ENDMDL
MODEL 6
REMARK VINA RESULT:      -5.5      2.194      5.296
REMARK  3 active torsions:
REMARK  status: ('A' for Active; 'I' for Inactive)
REMARK    1  A    between atoms: O_2  and  C_3 
REMARK    2  A    between atoms: C_10  and  N_11 
REMARK       I    between atoms: N_11  and  C_12 
REMARK       I    between atoms: C_12  and  N_14 
REMARK    3  A    between atoms: N_14  and  C_15 
ROOT
HETATM    1  N   UNL     1     -40.791 -51.494  11.337  1.00  0.00    -0.292 N 
HETATM    2  C   UNL     1     -40.101 -50.404  11.787  1.00  0.00     0.322 C 
HETATM    3  O   UNL     1     -39.395 -49.764  11.009  1.00  0.00    -0.247 OA
HETATM    4  N   UNL     1     -40.311 -50.049  13.091  1.00  0.00    -0.334 N 
HETATM    5  H   UNL     1     -40.756 -51.634  10.335  1.00  0.00     0.172 HD
HETATM    6  H   UNL     1     -40.786 -50.771  13.629  1.00  0.00     0.165 HD
ENDROOT
BRANCH   1   7
HETATM    7  C   UNL     1     -41.573 -52.401  12.071  1.00  0.00     0.143 A 
HETATM    8  C   UNL     1     -40.944 -53.306  12.938  1.00  0.00     0.112 A 
HETATM    9  C   UNL     1     -41.749 -54.237  13.593  1.00  0.00     0.042 A 
HETATM   10  C   UNL     1     -43.133 -54.183  13.446  1.00  0.00     0.027 A 
HETATM   11  C   UNL     1     -43.680 -53.205  12.631  1.00  0.00     0.007 A 
HETATM   12  C   UNL     1     -45.166 -53.052  12.496  1.00  0.00     0.068 C 
HETATM   13  N   UNL     1     -42.919 -52.349  11.919  1.00  0.00    -0.344 N 
ATOM     14  HN  UNL     1     -43.347 -51.678  11.280  1.00  0.00     0.167 HD
BRANCH   8  15
HETATM   15  O   UNL     1     -39.578 -53.250  13.067  1.00  0.00    -0.352 OA
HETATM   16  C   UNL     1     -39.089 -53.226  14.408  1.00  0.00     0.210 C 
ENDBRANCH   8  15
ENDBRANCH   1   7
BRANCH   4  17
HETATM   17  C   UNL     1     -39.757 -48.868  13.780  1.00  0.00     0.031 C 
HETATM   18  C   UNL     1     -40.428 -47.606  13.257  1.00  0.00     0.038 C 
HETATM   19  C   UNL     1     -38.196 -48.834  13.729  1.00  0.00     0.031 C 
HETATM   20  C   UNL     1     -38.217 -48.333  15.186  1.00  0.00     0.005 C 
HETATM   21  C   UNL     1     -39.602 -48.996  15.324  1.00  0.00     0.031 C 
ENDBRANCH   4  17
TORSDOF 3
ENDMDL
MODEL 7
REMARK VINA RESULT:      -5.2      2.986      4.066
REMARK  3 active torsions:
REMARK  status: ('A' for Active; 'I' for Inactive)
REMARK    1  A    between atoms: O_2  and  C_3 
REMARK    2  A    between atoms: C_10  and  N_11 
REMARK       I    between atoms: N_11  and  C_12 
REMARK       I    between atoms: C_12  and  N_14 
REMARK    3  A    between atoms: N_14  and  C_15 
ROOT
HETATM    1  N   UNL     1     -40.842 -52.306  11.760  1.00  0.00    -0.292 N 
HETATM    2  C   UNL     1     -40.804 -53.185  12.806  1.00  0.00     0.322 C 
HETATM    3  O   UNL     1     -41.014 -54.381  12.607  1.00  0.00    -0.247 OA
HETATM    4  N   UNL     1     -40.451 -52.667  14.021  1.00  0.00    -0.334 N 
HETATM    5  H   UNL     1     -40.934 -52.736  10.848  1.00  0.00     0.172 HD
HETATM    6  H   UNL     1     -40.474 -51.649  14.043  1.00  0.00     0.165 HD
ENDROOT
BRANCH   1   7
HETATM    7  C   UNL     1     -40.719 -50.907  11.785  1.00  0.00     0.143 A 
HETATM    8  C   UNL     1     -39.454 -50.332  11.972  1.00  0.00     0.112 A 
HETATM    9  C   UNL     1     -39.384 -48.943  12.063  1.00  0.00     0.042 A 
HETATM   10  C   UNL     1     -40.532 -48.176  11.875  1.00  0.00     0.027 A 
HETATM   11  C   UNL     1     -41.731 -48.822  11.615  1.00  0.00     0.007 A 
HETATM   12  C   UNL     1     -42.981 -48.046  11.329  1.00  0.00     0.068 C 
HETATM   13  N   UNL     1     -41.841 -50.166  11.609  1.00  0.00    -0.344 N 
ATOM     14  HN  UNL     1     -42.747 -50.615  11.474  1.00  0.00     0.167 HD
BRANCH   8  15
HETATM   15  O   UNL     1     -38.367 -51.163  12.090  1.00  0.00    -0.352 OA
HETATM   16  C   UNL     1     -37.435 -50.813  13.114  1.00  0.00     0.210 C 
ENDBRANCH   8  15
ENDBRANCH   1   7
BRANCH   4  17
HETATM   17  C   UNL     1     -40.253 -53.421  15.273  1.00  0.00     0.031 C 
HETATM   18  C   UNL     1     -41.602 -53.831  15.844  1.00  0.00     0.038 C 
HETATM   19  C   UNL     1     -39.333 -52.660  16.281  1.00  0.00     0.031 C 
HETATM   20  C   UNL     1     -38.688 -54.016  16.627  1.00  0.00     0.005 C 
HETATM   21  C   UNL     1     -39.140 -54.511  15.239  1.00  0.00     0.031 C 
ENDBRANCH   4  17
TORSDOF 3
ENDMDL
MODEL 8
REMARK VINA RESULT:      -5.2      2.268      3.781
REMARK  3 active torsions:
REMARK  status: ('A' for Active; 'I' for Inactive)
REMARK    1  A    between atoms: O_2  and  C_3 
REMARK    2  A    between atoms: C_10  and  N_11 
REMARK       I    between atoms: N_11  and  C_12 
REMARK       I    between atoms: C_12  and  N_14 
REMARK    3  A    between atoms: N_14  and  C_15 
ROOT
HETATM    1  N   UNL     1     -41.846 -51.593  11.588  1.00  0.00    -0.292 N 
HETATM    2  C   UNL     1     -42.503 -52.341  12.524  1.00  0.00     0.322 C 
HETATM    3  O   UNL     1     -43.493 -52.994  12.198  1.00  0.00    -0.247 OA
HETATM    4  N   UNL     1     -41.951 -52.369  13.775  1.00  0.00    -0.334 N 
HETATM    5  H   UNL     1     -42.168 -51.724  10.638  1.00  0.00     0.172 HD
HETATM    6  H   UNL     1     -41.241 -51.652  13.914  1.00  0.00     0.165 HD
ENDROOT
BRANCH   1   7
HETATM    7  C   UNL     1     -40.762 -50.718  11.768  1.00  0.00     0.143 A 
HETATM    8  C   UNL     1     -40.969 -49.335  11.660  1.00  0.00     0.112 A 
HETATM    9  C   UNL     1     -39.855 -48.505  11.774  1.00  0.00     0.042 A 
HETATM   10  C   UNL     1     -38.611 -49.051  12.080  1.00  0.00     0.027 A 
HETATM   11  C   UNL     1     -38.507 -50.423  12.249  1.00  0.00     0.007 A 
HETATM   12  C   UNL     1     -37.210 -51.057  12.653  1.00  0.00     0.068 C 
HETATM   13  N   UNL     1     -39.551 -51.255  12.058  1.00  0.00    -0.344 N 
ATOM     14  HN  UNL     1     -39.433 -52.266  12.131  1.00  0.00     0.167 HD
BRANCH   8  15
HETATM   15  O   UNL     1     -42.242 -48.880  11.415  1.00  0.00    -0.352 OA
HETATM   16  C   UNL     1     -42.365 -47.961  10.329  1.00  0.00     0.210 C 
ENDBRANCH   8  15
ENDBRANCH   1   7
BRANCH   4  17
HETATM   17  C   UNL     1     -42.418 -53.168  14.923  1.00  0.00     0.031 C 
HETATM   18  C   UNL     1     -43.613 -52.485  15.572  1.00  0.00     0.038 C 
HETATM   19  C   UNL     1     -41.259 -53.513  15.912  1.00  0.00     0.031 C 
HETATM   20  C   UNL     1     -41.883 -54.914  16.063  1.00  0.00     0.005 C 
HETATM   21  C   UNL     1     -42.530 -54.702  14.680  1.00  0.00     0.031 C 
ENDBRANCH   4  17
TORSDOF 3
ENDMDL
MODEL 9
REMARK VINA RESULT:      -5.2      1.963      3.143
REMARK  3 active torsions:
REMARK  status: ('A' for Active; 'I' for Inactive)
REMARK    1  A    between atoms: O_2  and  C_3 
REMARK    2  A    between atoms: C_10  and  N_11 
REMARK       I    between atoms: N_11  and  C_12 
REMARK       I    between atoms: C_12  and  N_14 
REMARK    3  A    between atoms: N_14  and  C_15 
ROOT
HETATM    1  N   UNL     1     -40.398 -51.316  11.650  1.00  0.00    -0.292 N 
HETATM    2  C   UNL     1     -41.101 -52.400  12.097  1.00  0.00     0.322 C 
HETATM    3  O   UNL     1     -40.684 -53.534  11.871  1.00  0.00    -0.247 OA
HETATM    4  N   UNL     1     -42.210 -52.134  12.852  1.00  0.00    -0.334 N 
HETATM    5  H   UNL     1     -39.495 -51.533  11.247  1.00  0.00     0.172 HD
HETATM    6  H   UNL     1     -42.501 -51.159  12.803  1.00  0.00     0.165 HD
ENDROOT
BRANCH   1   7
HETATM    7  C   UNL     1     -40.741 -49.956  11.725  1.00  0.00     0.143 A 
HETATM    8  C   UNL     1     -40.181 -49.162  12.736  1.00  0.00     0.112 A 
HETATM    9  C   UNL     1     -40.602 -47.835  12.821  1.00  0.00     0.042 A 
HETATM   10  C   UNL     1     -41.474 -47.321  11.864  1.00  0.00     0.027 A 
HETATM   11  C   UNL     1     -41.919 -48.154  10.850  1.00  0.00     0.007 A 
HETATM   12  C   UNL     1     -42.797 -47.635   9.752  1.00  0.00     0.068 C 
HETATM   13  N   UNL     1     -41.596 -49.462  10.796  1.00  0.00    -0.344 N 
ATOM     14  HN  UNL     1     -41.986 -50.067  10.072  1.00  0.00     0.167 HD
BRANCH   8  15
HETATM   15  O   UNL     1     -39.283 -49.737  13.602  1.00  0.00    -0.352 OA
HETATM   16  C   UNL     1     -37.968 -49.180  13.581  1.00  0.00     0.210 C 
ENDBRANCH   8  15
ENDBRANCH   1   7
BRANCH   4  17
HETATM   17  C   UNL     1     -43.077 -53.124  13.519  1.00  0.00     0.031 C 
HETATM   18  C   UNL     1     -44.097 -53.663  12.528  1.00  0.00     0.038 C 
HETATM   19  C   UNL     1     -43.696 -52.569  14.841  1.00  0.00     0.031 C 
HETATM   20  C   UNL     1     -43.456 -53.957  15.467  1.00  0.00     0.005 C 
HETATM   21  C   UNL     1     -42.347 -54.165  14.418  1.00  0.00     0.031 C 
ENDBRANCH   4  17
TORSDOF 3
ENDMDL
