MODEL 1
REMARK VINA RESULT:      -6.1      0.000      0.000
REMARK  5 active torsions:
REMARK  status: ('A' for Active; 'I' for Inactive)
REMARK    1  A    between atoms: C_2  and  C_4 
REMARK    2  A    between atoms: C_4  and  C_5 
REMARK    3  A    between atoms: C_5  and  N_6 
REMARK    4  A    between atoms: C_10  and  N_11 
REMARK       I    between atoms: N_11  and  C_12 
REMARK       I    between atoms: C_12  and  N_14 
REMARK    5  A    between atoms: N_14  and  C_15 
ROOT
HETATM    1  N   UNL     1     -39.017 -51.606  13.504  1.00  0.00    -0.295 N 
HETATM    2  N   UNL     1     -37.913 -50.874  13.280  1.00  0.00    -0.307 N 
ATOM      3  HN  UNL     1     -37.033 -50.885  13.795  1.00  0.00     0.186 HD
HETATM    4  C   UNL     1     -38.238 -50.130  12.226  1.00  0.00     0.139 A 
HETATM    5  C   UNL     1     -39.549 -50.383  11.761  1.00  0.00     0.077 A 
HETATM    6  C   UNL     1     -40.036 -51.363  12.610  1.00  0.00     0.052 A 
HETATM    7  C   UNL     1     -41.334 -52.082  12.672  1.00  0.00     0.072 C 
ENDROOT
BRANCH   5   8
HETATM    8  N   UNL     1     -40.233 -49.804  10.701  1.00  0.00    -0.306 N 
HETATM    9  C   UNL     1     -41.202 -48.838  10.880  1.00  0.00     0.321 C 
HETATM   10  O   UNL     1     -41.559 -48.390  11.964  1.00  0.00    -0.247 OA
HETATM   11  N   UNL     1     -41.764 -48.420   9.693  1.00  0.00    -0.332 N 
HETATM   12  H   UNL     1     -41.200 -48.542   8.866  1.00  0.00     0.165 HD
HETATM   13  H   UNL     1     -40.067 -50.173   9.779  1.00  0.00     0.171 HD
BRANCH  11  14
HETATM   14  C   UNL     1     -42.807 -47.382   9.642  1.00  0.00     0.054 C 
HETATM   15  C   UNL     1     -42.193 -46.045  10.105  1.00  0.00     0.041 C 
HETATM   16  C   UNL     1     -44.034 -47.697  10.508  1.00  0.00     0.059 C 
HETATM   17  C   UNL     1     -45.223 -47.195   9.697  1.00  0.00     0.170 C 
HETATM   18  O   UNL     1     -44.711 -46.563   8.518  1.00  0.00    -0.389 OA
HETATM   19  C   UNL     1     -43.440 -47.176   8.256  1.00  0.00     0.198 C 
ENDBRANCH  11  14
ENDBRANCH   5   8
BRANCH   1  20
HETATM   20  C   UNL     1     -38.995 -52.524  14.632  1.00  0.00     0.149 C 
BRANCH  20  21
HETATM   21  C   UNL     1     -38.860 -53.977  14.178  1.00  0.00     0.025 C 
BRANCH  21  22
HETATM   22  C   UNL     1     -39.432 -54.989  15.187  1.00  0.00    -0.021 C 
HETATM   23  C   UNL     1     -38.306 -55.526  16.073  1.00  0.00     0.009 C 
HETATM   24  C   UNL     1     -40.530 -54.385  16.063  1.00  0.00     0.009 C 
ENDBRANCH  21  22
ENDBRANCH  20  21
ENDBRANCH   1  20
TORSDOF 5
ENDMDL
MODEL 2
REMARK VINA RESULT:      -5.9      3.193      7.753
REMARK  5 active torsions:
REMARK  status: ('A' for Active; 'I' for Inactive)
REMARK    1  A    between atoms: C_2  and  C_4 
REMARK    2  A    between atoms: C_4  and  C_5 
REMARK    3  A    between atoms: C_5  and  N_6 
REMARK    4  A    between atoms: C_10  and  N_11 
REMARK       I    between atoms: N_11  and  C_12 
REMARK       I    between atoms: C_12  and  N_14 
REMARK    5  A    between atoms: N_14  and  C_15 
ROOT
HETATM    1  N   UNL     1     -41.563 -48.704  11.075  1.00  0.00    -0.295 N 
HETATM    2  N   UNL     1     -40.588 -49.443  10.518  1.00  0.00    -0.307 N 
ATOM      3  HN  UNL     1     -40.062 -49.252   9.665  1.00  0.00     0.186 HD
HETATM    4  C   UNL     1     -40.471 -50.480  11.341  1.00  0.00     0.139 A 
HETATM    5  C   UNL     1     -41.362 -50.415  12.436  1.00  0.00     0.077 A 
HETATM    6  C   UNL     1     -42.062 -49.234  12.244  1.00  0.00     0.052 A 
HETATM    7  C   UNL     1     -43.131 -48.563  13.027  1.00  0.00     0.072 C 
ENDROOT
BRANCH   5   8
HETATM    8  N   UNL     1     -41.534 -51.306  13.485  1.00  0.00    -0.306 N 
HETATM    9  C   UNL     1     -42.540 -52.251  13.502  1.00  0.00     0.321 C 
HETATM   10  O   UNL     1     -43.372 -52.410  12.616  1.00  0.00    -0.247 OA
HETATM   11  N   UNL     1     -42.536 -53.015  14.649  1.00  0.00    -0.332 N 
HETATM   12  H   UNL     1     -41.654 -53.085  15.134  1.00  0.00     0.165 HD
HETATM   13  H   UNL     1     -40.950 -51.192  14.297  1.00  0.00     0.171 HD
BRANCH  11  14
HETATM   14  C   UNL     1     -43.509 -54.097  14.874  1.00  0.00     0.054 C 
HETATM   15  C   UNL     1     -42.799 -55.249  15.613  1.00  0.00     0.041 C 
HETATM   16  C   UNL     1     -44.138 -54.640  13.584  1.00  0.00     0.059 C 
HETATM   17  C   UNL     1     -45.590 -54.923  13.948  1.00  0.00     0.170 C 
HETATM   18  O   UNL     1     -45.749 -54.658  15.346  1.00  0.00    -0.389 OA
HETATM   19  C   UNL     1     -44.749 -53.686  15.684  1.00  0.00     0.198 C 
ENDBRANCH  11  14
ENDBRANCH   5   8
BRANCH   1  20
HETATM   20  C   UNL     1     -41.958 -47.485  10.387  1.00  0.00     0.149 C 
BRANCH  20  21
HETATM   21  C   UNL     1     -43.017 -47.755   9.319  1.00  0.00     0.025 C 
BRANCH  21  22
HETATM   22  C   UNL     1     -44.333 -46.993   9.556  1.00  0.00    -0.021 C 
HETATM   23  C   UNL     1     -44.228 -45.586   8.963  1.00  0.00     0.009 C 
HETATM   24  C   UNL     1     -45.542 -47.713   8.959  1.00  0.00     0.009 C 
ENDBRANCH  21  22
ENDBRANCH  20  21
ENDBRANCH   1  20
TORSDOF 5
ENDMDL
MODEL 3
REMARK VINA RESULT:      -5.8      3.602      4.901
REMARK  5 active torsions:
REMARK  status: ('A' for Active; 'I' for Inactive)
REMARK    1  A    between atoms: C_2  and  C_4 
REMARK    2  A    between atoms: C_4  and  C_5 
REMARK    3  A    between atoms: C_5  and  N_6 
REMARK    4  A    between atoms: C_10  and  N_11 
REMARK       I    between atoms: N_11  and  C_12 
REMARK       I    between atoms: C_12  and  N_14 
REMARK    5  A    between atoms: N_14  and  C_15 
ROOT
HETATM    1  N   UNL     1     -42.934 -52.021  12.975  1.00  0.00    -0.295 N 
HETATM    2  N   UNL     1     -42.237 -52.385  11.885  1.00  0.00    -0.307 N 
ATOM      3  HN  UNL     1     -42.366 -53.211  11.302  1.00  0.00     0.186 HD
HETATM    4  C   UNL     1     -41.339 -51.413  11.748  1.00  0.00     0.139 A 
HETATM    5  C   UNL     1     -41.456 -50.414  12.741  1.00  0.00     0.077 A 
HETATM    6  C   UNL     1     -42.517 -50.831  13.529  1.00  0.00     0.052 A 
HETATM    7  C   UNL     1     -43.168 -50.242  14.727  1.00  0.00     0.072 C 
ENDROOT
BRANCH   5   8
HETATM    8  N   UNL     1     -40.702 -49.264  12.925  1.00  0.00    -0.306 N 
HETATM    9  C   UNL     1     -41.036 -48.055  12.348  1.00  0.00     0.321 C 
HETATM   10  O   UNL     1     -42.010 -47.863  11.629  1.00  0.00    -0.247 OA
HETATM   11  N   UNL     1     -40.137 -47.055  12.647  1.00  0.00    -0.332 N 
HETATM   12  H   UNL     1     -39.602 -47.176  13.493  1.00  0.00     0.165 HD
HETATM   13  H   UNL     1     -39.835 -49.348  13.429  1.00  0.00     0.171 HD
BRANCH  11  14
HETATM   14  C   UNL     1     -40.304 -45.677  12.153  1.00  0.00     0.054 C 
HETATM   15  C   UNL     1     -39.239 -44.784  12.821  1.00  0.00     0.041 C 
HETATM   16  C   UNL     1     -41.695 -45.089  12.423  1.00  0.00     0.059 C 
HETATM   17  C   UNL     1     -42.017 -44.265  11.183  1.00  0.00     0.170 C 
HETATM   18  O   UNL     1     -40.871 -44.301  10.325  1.00  0.00    -0.389 OA
HETATM   19  C   UNL     1     -40.184 -45.525  10.628  1.00  0.00     0.198 C 
ENDBRANCH  11  14
ENDBRANCH   5   8
BRANCH   1  20
HETATM   20  C   UNL     1     -43.999 -52.907  13.418  1.00  0.00     0.149 C 
BRANCH  20  21
HETATM   21  C   UNL     1     -45.202 -52.862  12.478  1.00  0.00     0.025 C 
BRANCH  21  22
HETATM   22  C   UNL     1     -46.074 -51.606  12.660  1.00  0.00    -0.021 C 
HETATM   23  C   UNL     1     -47.212 -51.616  11.638  1.00  0.00     0.009 C 
HETATM   24  C   UNL     1     -46.652 -51.496  14.071  1.00  0.00     0.009 C 
ENDBRANCH  21  22
ENDBRANCH  20  21
ENDBRANCH   1  20
TORSDOF 5
ENDMDL
MODEL 4
REMARK VINA RESULT:      -5.8      3.552      7.166
REMARK  5 active torsions:
REMARK  status: ('A' for Active; 'I' for Inactive)
REMARK    1  A    between atoms: C_2  and  C_4 
REMARK    2  A    between atoms: C_4  and  C_5 
REMARK    3  A    between atoms: C_5  and  N_6 
REMARK    4  A    between atoms: C_10  and  N_11 
REMARK       I    between atoms: N_11  and  C_12 
REMARK       I    between atoms: C_12  and  N_14 
REMARK    5  A    between atoms: N_14  and  C_15 
ROOT
HETATM    1  N   UNL     1     -40.896 -47.000  10.803  1.00  0.00    -0.295 N 
HETATM    2  N   UNL     1     -39.759 -47.395  11.400  1.00  0.00    -0.307 N 
ATOM      3  HN  UNL     1     -38.907 -46.856  11.552  1.00  0.00     0.186 HD
HETATM    4  C   UNL     1     -40.007 -48.655  11.746  1.00  0.00     0.139 A 
HETATM    5  C   UNL     1     -41.306 -49.078  11.382  1.00  0.00     0.077 A 
HETATM    6  C   UNL     1     -41.873 -47.970  10.773  1.00  0.00     0.052 A 
HETATM    7  C   UNL     1     -43.212 -47.730  10.175  1.00  0.00     0.072 C 
ENDROOT
BRANCH   5   8
HETATM    8  N   UNL     1     -41.914 -50.311  11.570  1.00  0.00    -0.306 N 
HETATM    9  C   UNL     1     -42.881 -50.524  12.532  1.00  0.00     0.321 C 
HETATM   10  O   UNL     1     -43.303 -49.674  13.308  1.00  0.00    -0.247 OA
HETATM   11  N   UNL     1     -43.331 -51.826  12.556  1.00  0.00    -0.332 N 
HETATM   12  H   UNL     1     -43.227 -52.349  11.700  1.00  0.00     0.165 HD
HETATM   13  H   UNL     1     -41.568 -51.090  11.036  1.00  0.00     0.171 HD
BRANCH  11  14
HETATM   14  C   UNL     1     -44.376 -52.278  13.491  1.00  0.00     0.054 C 
HETATM   15  C   UNL     1     -44.621 -53.783  13.264  1.00  0.00     0.041 C 
HETATM   16  C   UNL     1     -45.704 -51.524  13.343  1.00  0.00     0.059 C 
HETATM   17  C   UNL     1     -46.223 -51.365  14.766  1.00  0.00     0.170 C 
HETATM   18  O   UNL     1     -45.320 -52.053  15.639  1.00  0.00    -0.389 OA
HETATM   19  C   UNL     1     -44.047 -52.054  14.976  1.00  0.00     0.198 C 
ENDBRANCH  11  14
ENDBRANCH   5   8
BRANCH   1  20
HETATM   20  C   UNL     1     -40.942 -45.646  10.274  1.00  0.00     0.149 C 
BRANCH  20  21
HETATM   21  C   UNL     1     -39.670 -44.866  10.603  1.00  0.00     0.025 C 
BRANCH  21  22
HETATM   22  C   UNL     1     -39.880 -43.774  11.667  1.00  0.00    -0.021 C 
HETATM   23  C   UNL     1     -41.378 -43.539  11.875  1.00  0.00     0.009 C 
HETATM   24  C   UNL     1     -39.226 -44.125  13.004  1.00  0.00     0.009 C 
ENDBRANCH  21  22
ENDBRANCH  20  21
ENDBRANCH   1  20
TORSDOF 5
ENDMDL
MODEL 5
REMARK VINA RESULT:      -5.7      3.682      5.992
REMARK  5 active torsions:
REMARK  status: ('A' for Active; 'I' for Inactive)
REMARK    1  A    between atoms: C_2  and  C_4 
REMARK    2  A    between atoms: C_4  and  C_5 
REMARK    3  A    between atoms: C_5  and  N_6 
REMARK    4  A    between atoms: C_10  and  N_11 
REMARK       I    between atoms: N_11  and  C_12 
REMARK       I    between atoms: C_12  and  N_14 
REMARK    5  A    between atoms: N_14  and  C_15 
ROOT
HETATM    1  N   UNL     1     -38.993 -49.956  12.227  1.00  0.00    -0.295 N 
HETATM    2  N   UNL     1     -39.611 -49.291  11.237  1.00  0.00    -0.307 N 
ATOM      3  HN  UNL     1     -39.330 -48.417  10.793  1.00  0.00     0.186 HD
HETATM    4  C   UNL     1     -40.677 -50.040  10.973  1.00  0.00     0.139 A 
HETATM    5  C   UNL     1     -40.750 -51.196  11.783  1.00  0.00     0.077 A 
HETATM    6  C   UNL     1     -39.627 -51.123  12.592  1.00  0.00     0.052 A 
HETATM    7  C   UNL     1     -39.096 -52.016  13.654  1.00  0.00     0.072 C 
ENDROOT
BRANCH   5   8
HETATM    8  N   UNL     1     -41.708 -52.200  11.801  1.00  0.00    -0.306 N 
HETATM    9  C   UNL     1     -42.792 -52.178  12.656  1.00  0.00     0.321 C 
HETATM   10  O   UNL     1     -43.029 -51.294  13.472  1.00  0.00    -0.247 OA
HETATM   11  N   UNL     1     -43.603 -53.283  12.517  1.00  0.00    -0.332 N 
HETATM   12  H   UNL     1     -43.564 -53.754  11.627  1.00  0.00     0.165 HD
HETATM   13  H   UNL     1     -41.549 -53.009  11.226  1.00  0.00     0.171 HD
BRANCH  11  14
HETATM   14  C   UNL     1     -44.828 -53.462  13.315  1.00  0.00     0.054 C 
HETATM   15  C   UNL     1     -45.965 -52.656  12.657  1.00  0.00     0.041 C 
HETATM   16  C   UNL     1     -44.681 -53.023  14.778  1.00  0.00     0.059 C 
HETATM   17  C   UNL     1     -45.484 -54.044  15.574  1.00  0.00     0.170 C 
HETATM   18  O   UNL     1     -46.112 -54.930  14.640  1.00  0.00    -0.389 OA
HETATM   19  C   UNL     1     -45.286 -54.922  13.466  1.00  0.00     0.198 C 
ENDBRANCH  11  14
ENDBRANCH   5   8
BRANCH   1  20
HETATM   20  C   UNL     1     -37.779 -49.371  12.773  1.00  0.00     0.149 C 
BRANCH  20  21
HETATM   21  C   UNL     1     -38.085 -48.219  13.729  1.00  0.00     0.025 C 
BRANCH  21  22
HETATM   22  C   UNL     1     -37.180 -48.201  14.974  1.00  0.00    -0.021 C 
HETATM   23  C   UNL     1     -37.865 -47.419  16.097  1.00  0.00     0.009 C 
HETATM   24  C   UNL     1     -36.833 -49.606  15.465  1.00  0.00     0.009 C 
ENDBRANCH  21  22
ENDBRANCH  20  21
ENDBRANCH   1  20
TORSDOF 5
ENDMDL
MODEL 6
REMARK VINA RESULT:      -5.6      2.869      7.616
REMARK  5 active torsions:
REMARK  status: ('A' for Active; 'I' for Inactive)
REMARK    1  A    between atoms: C_2  and  C_4 
REMARK    2  A    between atoms: C_4  and  C_5 
REMARK    3  A    between atoms: C_5  and  N_6 
REMARK    4  A    between atoms: C_10  and  N_11 
REMARK       I    between atoms: N_11  and  C_12 
REMARK       I    between atoms: C_12  and  N_14 
REMARK    5  A    between atoms: N_14  and  C_15 
ROOT
HETATM    1  N   UNL     1     -42.132 -45.634  11.081  1.00  0.00    -0.295 N 
HETATM    2  N   UNL     1     -41.939 -46.103   9.837  1.00  0.00    -0.307 N 
ATOM      3  HN  UNL     1     -41.618 -45.593   9.014  1.00  0.00     0.186 HD
HETATM    4  C   UNL     1     -42.264 -47.389   9.932  1.00  0.00     0.139 A 
HETATM    5  C   UNL     1     -42.661 -47.759  11.237  1.00  0.00     0.077 A 
HETATM    6  C   UNL     1     -42.556 -46.591  11.975  1.00  0.00     0.052 A 
HETATM    7  C   UNL     1     -42.809 -46.284  13.407  1.00  0.00     0.072 C 
ENDROOT
BRANCH   5   8
HETATM    8  N   UNL     1     -43.071 -48.996  11.714  1.00  0.00    -0.306 N 
HETATM    9  C   UNL     1     -42.181 -49.964  12.133  1.00  0.00     0.321 C 
HETATM   10  O   UNL     1     -40.961 -49.847  12.135  1.00  0.00    -0.247 OA
HETATM   11  N   UNL     1     -42.807 -51.120  12.547  1.00  0.00    -0.332 N 
HETATM   12  H   UNL     1     -43.761 -51.023  12.859  1.00  0.00     0.165 HD
HETATM   13  H   UNL     1     -44.053 -49.214  11.667  1.00  0.00     0.171 HD
BRANCH  11  14
HETATM   14  C   UNL     1     -42.054 -52.281  13.053  1.00  0.00     0.054 C 
HETATM   15  C   UNL     1     -43.042 -53.440  13.293  1.00  0.00     0.041 C 
HETATM   16  C   UNL     1     -41.284 -52.000  14.350  1.00  0.00     0.059 C 
HETATM   17  C   UNL     1     -39.978 -52.769  14.202  1.00  0.00     0.170 C 
HETATM   18  O   UNL     1     -40.039 -53.502  12.973  1.00  0.00    -0.389 OA
HETATM   19  C   UNL     1     -40.936 -52.775  12.120  1.00  0.00     0.198 C 
ENDBRANCH  11  14
ENDBRANCH   5   8
BRANCH   1  20
HETATM   20  C   UNL     1     -41.884 -44.220  11.311  1.00  0.00     0.149 C 
BRANCH  20  21
HETATM   21  C   UNL     1     -40.401 -43.877  11.188  1.00  0.00     0.025 C 
BRANCH  21  22
HETATM   22  C   UNL     1     -39.717 -43.621  12.543  1.00  0.00    -0.021 C 
HETATM   23  C   UNL     1     -40.720 -42.995  13.516  1.00  0.00     0.009 C 
HETATM   24  C   UNL     1     -39.136 -44.896  13.156  1.00  0.00     0.009 C 
ENDBRANCH  21  22
ENDBRANCH  20  21
ENDBRANCH   1  20
TORSDOF 5
ENDMDL
MODEL 7
REMARK VINA RESULT:      -5.5      4.788      8.818
REMARK  5 active torsions:
REMARK  status: ('A' for Active; 'I' for Inactive)
REMARK    1  A    between atoms: C_2  and  C_4 
REMARK    2  A    between atoms: C_4  and  C_5 
REMARK    3  A    between atoms: C_5  and  N_6 
REMARK    4  A    between atoms: C_10  and  N_11 
REMARK       I    between atoms: N_11  and  C_12 
REMARK       I    between atoms: C_12  and  N_14 
REMARK    5  A    between atoms: N_14  and  C_15 
ROOT
HETATM    1  N   UNL     1     -43.894 -53.107  12.696  1.00  0.00    -0.295 N 
HETATM    2  N   UNL     1     -43.104 -52.347  11.919  1.00  0.00    -0.307 N 
ATOM      3  HN  UNL     1     -43.381 -51.630  11.249  1.00  0.00     0.186 HD
HETATM    4  C   UNL     1     -41.876 -52.750  12.232  1.00  0.00     0.139 A 
HETATM    5  C   UNL     1     -41.865 -53.765  13.215  1.00  0.00     0.077 A 
HETATM    6  C   UNL     1     -43.202 -53.975  13.511  1.00  0.00     0.052 A 
HETATM    7  C   UNL     1     -43.888 -54.890  14.460  1.00  0.00     0.072 C 
ENDROOT
BRANCH   5   8
HETATM    8  N   UNL     1     -40.786 -54.429  13.782  1.00  0.00    -0.306 N 
HETATM    9  C   UNL     1     -40.391 -54.226  15.089  1.00  0.00     0.321 C 
HETATM   10  O   UNL     1     -40.933 -53.459  15.878  1.00  0.00    -0.247 OA
HETATM   11  N   UNL     1     -39.286 -54.972  15.434  1.00  0.00    -0.332 N 
HETATM   12  H   UNL     1     -39.129 -55.810  14.895  1.00  0.00     0.165 HD
HETATM   13  H   UNL     1     -40.228 -55.013  13.182  1.00  0.00     0.171 HD
BRANCH  11  14
HETATM   14  C   UNL     1     -38.701 -54.928  16.785  1.00  0.00     0.054 C 
HETATM   15  C   UNL     1     -38.323 -53.469  17.109  1.00  0.00     0.041 C 
HETATM   16  C   UNL     1     -37.462 -55.817  16.950  1.00  0.00     0.059 C 
HETATM   17  C   UNL     1     -37.581 -56.396  18.355  1.00  0.00     0.170 C 
HETATM   18  O   UNL     1     -38.735 -55.812  18.971  1.00  0.00    -0.389 OA
HETATM   19  C   UNL     1     -39.621 -55.454  17.899  1.00  0.00     0.198 C 
ENDBRANCH  11  14
ENDBRANCH   5   8
BRANCH   1  20
HETATM   20  C   UNL     1     -45.332 -52.927  12.572  1.00  0.00     0.149 C 
BRANCH  20  21
HETATM   21  C   UNL     1     -45.764 -51.521  12.987  1.00  0.00     0.025 C 
BRANCH  21  22
HETATM   22  C   UNL     1     -46.371 -51.460  14.400  1.00  0.00    -0.021 C 
HETATM   23  C   UNL     1     -46.979 -52.818  14.759  1.00  0.00     0.009 C 
HETATM   24  C   UNL     1     -45.344 -51.061  15.461  1.00  0.00     0.009 C 
ENDBRANCH  21  22
ENDBRANCH  20  21
ENDBRANCH   1  20
TORSDOF 5
ENDMDL
MODEL 8
REMARK VINA RESULT:      -5.4      4.123      7.003
REMARK  5 active torsions:
REMARK  status: ('A' for Active; 'I' for Inactive)
REMARK    1  A    between atoms: C_2  and  C_4 
REMARK    2  A    between atoms: C_4  and  C_5 
REMARK    3  A    between atoms: C_5  and  N_6 
REMARK    4  A    between atoms: C_10  and  N_11 
REMARK       I    between atoms: N_11  and  C_12 
REMARK       I    between atoms: C_12  and  N_14 
REMARK    5  A    between atoms: N_14  and  C_15 
ROOT
HETATM    1  N   UNL     1     -42.759 -53.280  12.726  1.00  0.00    -0.295 N 
HETATM    2  N   UNL     1     -42.498 -52.545  11.632  1.00  0.00    -0.307 N 
ATOM      3  HN  UNL     1     -43.095 -52.389  10.820  1.00  0.00     0.186 HD
HETATM    4  C   UNL     1     -41.277 -52.068  11.857  1.00  0.00     0.139 A 
HETATM    5  C   UNL     1     -40.746 -52.486  13.099  1.00  0.00     0.077 A 
HETATM    6  C   UNL     1     -41.742 -53.272  13.655  1.00  0.00     0.052 A 
HETATM    7  C   UNL     1     -41.839 -54.006  14.943  1.00  0.00     0.072 C 
ENDROOT
BRANCH   5   8
HETATM    8  N   UNL     1     -39.514 -52.200  13.670  1.00  0.00    -0.306 N 
HETATM    9  C   UNL     1     -39.244 -50.998  14.293  1.00  0.00     0.321 C 
HETATM   10  O   UNL     1     -40.039 -50.072  14.413  1.00  0.00    -0.247 OA
HETATM   11  N   UNL     1     -37.953 -50.922  14.769  1.00  0.00    -0.332 N 
HETATM   12  H   UNL     1     -37.498 -51.801  14.962  1.00  0.00     0.165 HD
HETATM   13  H   UNL     1     -38.773 -52.868  13.543  1.00  0.00     0.171 HD
BRANCH  11  14
HETATM   14  C   UNL     1     -37.450 -49.738  15.485  1.00  0.00     0.054 C 
HETATM   15  C   UNL     1     -37.415 -48.549  14.504  1.00  0.00     0.041 C 
HETATM   16  C   UNL     1     -36.054 -49.930  16.091  1.00  0.00     0.059 C 
HETATM   17  C   UNL     1     -36.103 -49.195  17.425  1.00  0.00     0.170 C 
HETATM   18  O   UNL     1     -37.382 -48.557  17.524  1.00  0.00    -0.389 OA
HETATM   19  C   UNL     1     -38.278 -49.333  16.715  1.00  0.00     0.198 C 
ENDBRANCH  11  14
ENDBRANCH   5   8
BRANCH   1  20
HETATM   20  C   UNL     1     -44.037 -53.972  12.780  1.00  0.00     0.149 C 
BRANCH  20  21
HETATM   21  C   UNL     1     -45.212 -52.997  12.734  1.00  0.00     0.025 C 
BRANCH  21  22
HETATM   22  C   UNL     1     -45.762 -52.636  14.126  1.00  0.00    -0.021 C 
HETATM   23  C   UNL     1     -46.661 -51.403  14.020  1.00  0.00     0.009 C 
HETATM   24  C   UNL     1     -46.542 -53.787  14.764  1.00  0.00     0.009 C 
ENDBRANCH  21  22
ENDBRANCH  20  21
ENDBRANCH   1  20
TORSDOF 5
ENDMDL
MODEL 9
REMARK VINA RESULT:      -5.4      2.545      3.334
REMARK  5 active torsions:
REMARK  status: ('A' for Active; 'I' for Inactive)
REMARK    1  A    between atoms: C_2  and  C_4 
REMARK    2  A    between atoms: C_4  and  C_5 
REMARK    3  A    between atoms: C_5  and  N_6 
REMARK    4  A    between atoms: C_10  and  N_11 
REMARK       I    between atoms: N_11  and  C_12 
REMARK       I    between atoms: C_12  and  N_14 
REMARK    5  A    between atoms: N_14  and  C_15 
ROOT
HETATM    1  N   UNL     1     -41.528 -53.310  13.893  1.00  0.00    -0.295 N 
HETATM    2  N   UNL     1     -41.346 -53.884  12.691  1.00  0.00    -0.307 N 
ATOM      3  HN  UNL     1     -41.408 -54.872  12.448  1.00  0.00     0.186 HD
HETATM    4  C   UNL     1     -41.066 -52.858  11.893  1.00  0.00     0.139 A 
HETATM    5  C   UNL     1     -41.072 -51.617  12.571  1.00  0.00     0.077 A 
HETATM    6  C   UNL     1     -41.387 -51.941  13.881  1.00  0.00     0.052 A 
HETATM    7  C   UNL     1     -41.567 -51.114  15.103  1.00  0.00     0.072 C 
ENDROOT
BRANCH   5   8
HETATM    8  N   UNL     1     -40.823 -50.344  12.079  1.00  0.00    -0.306 N 
HETATM    9  C   UNL     1     -41.822 -49.408  11.897  1.00  0.00     0.321 C 
HETATM   10  O   UNL     1     -43.009 -49.588  12.145  1.00  0.00    -0.247 OA
HETATM   11  N   UNL     1     -41.352 -48.221  11.379  1.00  0.00    -0.332 N 
HETATM   12  H   UNL     1     -40.378 -48.019  11.543  1.00  0.00     0.165 HD
HETATM   13  H   UNL     1     -39.889 -50.137  11.766  1.00  0.00     0.171 HD
BRANCH  11  14
HETATM   14  C   UNL     1     -42.239 -47.074  11.120  1.00  0.00     0.054 C 
HETATM   15  C   UNL     1     -42.791 -46.567  12.468  1.00  0.00     0.041 C 
HETATM   16  C   UNL     1     -43.411 -47.398  10.186  1.00  0.00     0.059 C 
HETATM   17  C   UNL     1     -43.580 -46.152   9.325  1.00  0.00     0.170 C 
HETATM   18  O   UNL     1     -42.649 -45.169   9.794  1.00  0.00    -0.389 OA
HETATM   19  C   UNL     1     -41.567 -45.897  10.393  1.00  0.00     0.198 C 
ENDBRANCH  11  14
ENDBRANCH   5   8
BRANCH   1  20
HETATM   20  C   UNL     1     -41.829 -54.185  15.015  1.00  0.00     0.149 C 
BRANCH  20  21
HETATM   21  C   UNL     1     -43.059 -55.050  14.744  1.00  0.00     0.025 C 
BRANCH  21  22
HETATM   22  C   UNL     1     -44.317 -54.233  14.399  1.00  0.00    -0.021 C 
HETATM   23  C   UNL     1     -45.397 -55.161  13.838  1.00  0.00     0.009 C 
HETATM   24  C   UNL     1     -44.871 -53.473  15.606  1.00  0.00     0.009 C 
ENDBRANCH  21  22
ENDBRANCH  20  21
ENDBRANCH   1  20
TORSDOF 5
ENDMDL
