MODEL 1
REMARK VINA RESULT:      -5.8      0.000      0.000
REMARK  6 active torsions:
REMARK  status: ('A' for Active; 'I' for Inactive)
REMARK    1  A    between atoms: O_2  and  C_3 
REMARK    2  A    between atoms: C_3  and  C_4 
REMARK    3  A    between atoms: C_4  and  N_5 
REMARK    4  A    between atoms: C_6  and  N_7 
REMARK    5  A    between atoms: C_8  and  S_9 
REMARK    6  A    between atoms: S_9  and  C_10 
ROOT
HETATM    1  N   UNL     1     -42.050 -53.089  13.022  1.00  0.00    -0.287 N 
HETATM    2  C   UNL     1     -43.325 -53.648  12.907  1.00  0.00     0.107 C 
HETATM    3  C   UNL     1     -43.765 -54.514  13.851  1.00  0.00     0.112 C 
HETATM    4  C   UNL     1     -42.821 -55.009  14.892  1.00  0.00     0.269 C 
HETATM    5  O   UNL     1     -43.133 -55.796  15.778  1.00  0.00    -0.266 OA
HETATM    6  N   UNL     1     -41.544 -54.536  14.791  1.00  0.00    -0.274 N 
HETATM    7  C   UNL     1     -41.129 -53.519  13.982  1.00  0.00     0.330 C 
HETATM    8  O   UNL     1     -39.999 -53.063  14.129  1.00  0.00    -0.246 OA
HETATM    9  H   UNL     1     -40.886 -54.841  15.492  1.00  0.00     0.173 HD
ENDROOT
BRANCH   3  10
HETATM   10  S   UNL     1     -45.459 -54.889  14.015  1.00  0.00    -0.082 SA
BRANCH  10  11
HETATM   11  C   UNL     1     -46.078 -53.545  14.994  1.00  0.00     0.005 A 
HETATM   12  C   UNL     1     -45.970 -53.652  16.385  1.00  0.00     0.019 A 
HETATM   13  C   UNL     1     -46.479 -52.655  17.218  1.00  0.00     0.008 A 
HETATM   14  C   UNL     1     -47.099 -51.530  16.667  1.00  0.00    -0.062 A 
HETATM   15  C   UNL     1     -47.806 -50.541  17.543  1.00  0.00     0.048 C 
HETATM   16  C   UNL     1     -47.134 -51.385  15.276  1.00  0.00     0.008 A 
HETATM   17  C   UNL     1     -46.617 -52.381  14.444  1.00  0.00     0.019 A 
ENDBRANCH  10  11
ENDBRANCH   3  10
BRANCH   2  18
HETATM   18  N   UNL     1     -44.154 -53.319  11.829  1.00  0.00    -0.287 NA
HETATM   19  H   UNL     1     -43.706 -52.663  11.206  1.00  0.00     0.125 HD
HETATM   20  H   UNL     1     -45.006 -52.868  12.170  1.00  0.00     0.125 HD
ENDBRANCH   2  18
BRANCH   1  21
HETATM   21  C   UNL     1     -41.631 -51.971  12.160  1.00  0.00     0.161 C 
BRANCH  21  22
HETATM   22  C   UNL     1     -41.968 -50.565  12.695  1.00  0.00     0.187 C 
BRANCH  22  23
HETATM   23  O   UNL     1     -43.369 -50.394  12.906  1.00  0.00    -0.394 OA
HETATM   24  C   UNL     1     -43.654 -50.092  14.269  1.00  0.00     0.201 C 
ENDBRANCH  22  23
ENDBRANCH  21  22
ENDBRANCH   1  21
TORSDOF 6
ENDMDL
MODEL 2
REMARK VINA RESULT:      -5.6      0.752      1.543
REMARK  6 active torsions:
REMARK  status: ('A' for Active; 'I' for Inactive)
REMARK    1  A    between atoms: O_2  and  C_3 
REMARK    2  A    between atoms: C_3  and  C_4 
REMARK    3  A    between atoms: C_4  and  N_5 
REMARK    4  A    between atoms: C_6  and  N_7 
REMARK    5  A    between atoms: C_8  and  S_9 
REMARK    6  A    between atoms: S_9  and  C_10 
ROOT
HETATM    1  N   UNL     1     -42.131 -53.033  12.972  1.00  0.00    -0.287 N 
HETATM    2  C   UNL     1     -43.401 -53.609  12.886  1.00  0.00     0.107 C 
HETATM    3  C   UNL     1     -43.808 -54.481  13.839  1.00  0.00     0.112 C 
HETATM    4  C   UNL     1     -42.834 -54.965  14.857  1.00  0.00     0.269 C 
HETATM    5  O   UNL     1     -43.115 -55.757  15.749  1.00  0.00    -0.266 OA
HETATM    6  N   UNL     1     -41.565 -54.475  14.727  1.00  0.00    -0.274 N 
HETATM    7  C   UNL     1     -41.183 -53.452  13.910  1.00  0.00     0.330 C 
HETATM    8  O   UNL     1     -40.055 -52.981  14.031  1.00  0.00    -0.246 OA
HETATM    9  H   UNL     1     -40.888 -54.772  15.412  1.00  0.00     0.173 HD
ENDROOT
BRANCH   3  10
HETATM   10  S   UNL     1     -45.492 -54.878  14.042  1.00  0.00    -0.082 SA
BRANCH  10  11
HETATM   11  C   UNL     1     -46.070 -53.631  15.164  1.00  0.00     0.005 A 
HETATM   12  C   UNL     1     -46.712 -52.514  14.618  1.00  0.00     0.019 A 
HETATM   13  C   UNL     1     -47.149 -51.472  15.437  1.00  0.00     0.008 A 
HETATM   14  C   UNL     1     -46.955 -51.539  16.819  1.00  0.00    -0.062 A 
HETATM   15  C   UNL     1     -47.254 -50.358  17.692  1.00  0.00     0.048 C 
HETATM   16  C   UNL     1     -46.386 -52.692  17.373  1.00  0.00     0.008 A 
HETATM   17  C   UNL     1     -45.957 -53.737  16.551  1.00  0.00     0.019 A 
ENDBRANCH  10  11
ENDBRANCH   3  10
BRANCH   2  18
HETATM   18  N   UNL     1     -44.260 -53.289  11.828  1.00  0.00    -0.287 NA
HETATM   19  H   UNL     1     -44.034 -53.817  10.998  1.00  0.00     0.125 HD
HETATM   20  H   UNL     1     -44.161 -52.300  11.586  1.00  0.00     0.125 HD
ENDBRANCH   2  18
BRANCH   1  21
HETATM   21  C   UNL     1     -41.747 -51.908  12.102  1.00  0.00     0.161 C 
BRANCH  21  22
HETATM   22  C   UNL     1     -42.161 -50.513  12.609  1.00  0.00     0.187 C 
BRANCH  22  23
HETATM   23  O   UNL     1     -41.135 -49.542  12.400  1.00  0.00    -0.394 OA
HETATM   24  C   UNL     1     -40.219 -49.965  11.396  1.00  0.00     0.201 C 
ENDBRANCH  22  23
ENDBRANCH  21  22
ENDBRANCH   1  21
TORSDOF 6
ENDMDL
MODEL 3
REMARK VINA RESULT:      -5.5      1.766      3.304
REMARK  6 active torsions:
REMARK  status: ('A' for Active; 'I' for Inactive)
REMARK    1  A    between atoms: O_2  and  C_3 
REMARK    2  A    between atoms: C_3  and  C_4 
REMARK    3  A    between atoms: C_4  and  N_5 
REMARK    4  A    between atoms: C_6  and  N_7 
REMARK    5  A    between atoms: C_8  and  S_9 
REMARK    6  A    between atoms: S_9  and  C_10 
ROOT
HETATM    1  N   UNL     1     -41.275 -53.250  13.757  1.00  0.00    -0.287 N 
HETATM    2  C   UNL     1     -42.371 -53.628  14.537  1.00  0.00     0.107 C 
HETATM    3  C   UNL     1     -43.593 -53.744  13.963  1.00  0.00     0.112 C 
HETATM    4  C   UNL     1     -43.794 -53.284  12.561  1.00  0.00     0.269 C 
HETATM    5  O   UNL     1     -44.865 -53.348  11.968  1.00  0.00    -0.266 OA
HETATM    6  N   UNL     1     -42.688 -52.755  11.958  1.00  0.00    -0.274 N 
HETATM    7  C   UNL     1     -41.413 -52.812  12.437  1.00  0.00     0.330 C 
HETATM    8  O   UNL     1     -40.486 -52.470  11.707  1.00  0.00    -0.246 OA
HETATM    9  H   UNL     1     -42.790 -52.450  11.003  1.00  0.00     0.173 HD
ENDROOT
BRANCH   3  10
HETATM   10  S   UNL     1     -44.878 -54.624  14.745  1.00  0.00    -0.082 SA
BRANCH  10  11
HETATM   11  C   UNL     1     -45.796 -53.351  15.572  1.00  0.00     0.005 A 
HETATM   12  C   UNL     1     -45.795 -53.356  16.971  1.00  0.00     0.019 A 
HETATM   13  C   UNL     1     -46.535 -52.413  17.687  1.00  0.00     0.008 A 
HETATM   14  C   UNL     1     -47.281 -51.445  17.009  1.00  0.00    -0.062 A 
HETATM   15  C   UNL     1     -48.218 -50.542  17.752  1.00  0.00     0.048 C 
HETATM   16  C   UNL     1     -47.217 -51.391  15.612  1.00  0.00     0.008 A 
HETATM   17  C   UNL     1     -46.470 -52.331  14.898  1.00  0.00     0.019 A 
ENDBRANCH  10  11
ENDBRANCH   3  10
BRANCH   2  18
HETATM   18  N   UNL     1     -42.219 -53.893  15.902  1.00  0.00    -0.287 NA
HETATM   19  H   UNL     1     -41.692 -53.165  16.362  1.00  0.00     0.125 HD
HETATM   20  H   UNL     1     -41.697 -54.763  16.032  1.00  0.00     0.125 HD
ENDBRANCH   2  18
BRANCH   1  21
HETATM   21  C   UNL     1     -39.902 -53.346  14.281  1.00  0.00     0.161 C 
BRANCH  21  22
HETATM   22  C   UNL     1     -39.227 -54.722  14.109  1.00  0.00     0.187 C 
BRANCH  22  23
HETATM   23  O   UNL     1     -39.404 -55.552  15.257  1.00  0.00    -0.394 OA
HETATM   24  C   UNL     1     -38.270 -55.494  16.117  1.00  0.00     0.201 C 
ENDBRANCH  22  23
ENDBRANCH  21  22
ENDBRANCH   1  21
TORSDOF 6
ENDMDL
MODEL 4
REMARK VINA RESULT:      -5.5      3.247      4.605
REMARK  6 active torsions:
REMARK  status: ('A' for Active; 'I' for Inactive)
REMARK    1  A    between atoms: O_2  and  C_3 
REMARK    2  A    between atoms: C_3  and  C_4 
REMARK    3  A    between atoms: C_4  and  N_5 
REMARK    4  A    between atoms: C_6  and  N_7 
REMARK    5  A    between atoms: C_8  and  S_9 
REMARK    6  A    between atoms: S_9  and  C_10 
ROOT
HETATM    1  N   UNL     1     -39.537 -48.925  12.357  1.00  0.00    -0.287 N 
HETATM    2  C   UNL     1     -40.036 -50.067  11.726  1.00  0.00     0.107 C 
HETATM    3  C   UNL     1     -40.133 -51.228  12.419  1.00  0.00     0.112 C 
HETATM    4  C   UNL     1     -39.531 -51.325  13.778  1.00  0.00     0.269 C 
HETATM    5  O   UNL     1     -39.568 -52.336  14.470  1.00  0.00    -0.266 OA
HETATM    6  N   UNL     1     -38.900 -50.196  14.217  1.00  0.00    -0.274 N 
HETATM    7  C   UNL     1     -38.963 -48.966  13.631  1.00  0.00     0.330 C 
HETATM    8  O   UNL     1     -38.511 -47.995  14.232  1.00  0.00    -0.246 OA
HETATM    9  H   UNL     1     -38.497 -50.227  15.140  1.00  0.00     0.173 HD
ENDROOT
BRANCH   3  10
HETATM   10  S   UNL     1     -41.138 -52.535  11.856  1.00  0.00    -0.082 SA
BRANCH  10  11
HETATM   11  C   UNL     1     -42.713 -52.182  12.593  1.00  0.00     0.005 A 
HETATM   12  C   UNL     1     -43.701 -53.169  12.516  1.00  0.00     0.019 A 
HETATM   13  C   UNL     1     -44.978 -52.941  13.031  1.00  0.00     0.008 A 
HETATM   14  C   UNL     1     -45.281 -51.720  13.639  1.00  0.00    -0.062 A 
HETATM   15  C   UNL     1     -46.687 -51.391  14.036  1.00  0.00     0.048 C 
HETATM   16  C   UNL     1     -44.269 -50.764  13.788  1.00  0.00     0.008 A 
HETATM   17  C   UNL     1     -42.990 -50.998  13.278  1.00  0.00     0.019 A 
ENDBRANCH  10  11
ENDBRANCH   3  10
BRANCH   2  18
HETATM   18  N   UNL     1     -40.442 -50.024  10.388  1.00  0.00    -0.287 NA
HETATM   19  H   UNL     1     -41.100 -49.275  10.226  1.00  0.00     0.125 HD
HETATM   20  H   UNL     1     -40.919 -50.894  10.140  1.00  0.00     0.125 HD
ENDBRANCH   2  18
BRANCH   1  21
HETATM   21  C   UNL     1     -39.641 -47.601  11.722  1.00  0.00     0.161 C 
BRANCH  21  22
HETATM   22  C   UNL     1     -41.021 -46.923  11.836  1.00  0.00     0.187 C 
BRANCH  22  23
HETATM   23  O   UNL     1     -41.879 -47.269  10.749  1.00  0.00    -0.394 OA
HETATM   24  C   UNL     1     -43.131 -47.764  11.215  1.00  0.00     0.201 C 
ENDBRANCH  22  23
ENDBRANCH  21  22
ENDBRANCH   1  21
TORSDOF 6
ENDMDL
MODEL 5
REMARK VINA RESULT:      -5.3      3.820      5.351
REMARK  6 active torsions:
REMARK  status: ('A' for Active; 'I' for Inactive)
REMARK    1  A    between atoms: O_2  and  C_3 
REMARK    2  A    between atoms: C_3  and  C_4 
REMARK    3  A    between atoms: C_4  and  N_5 
REMARK    4  A    between atoms: C_6  and  N_7 
REMARK    5  A    between atoms: C_8  and  S_9 
REMARK    6  A    between atoms: S_9  and  C_10 
ROOT
HETATM    1  N   UNL     1     -41.944 -48.428  11.774  1.00  0.00    -0.287 N 
HETATM    2  C   UNL     1     -41.214 -49.618  11.717  1.00  0.00     0.107 C 
HETATM    3  C   UNL     1     -41.066 -50.367  12.837  1.00  0.00     0.112 C 
HETATM    4  C   UNL     1     -41.512 -49.823  14.150  1.00  0.00     0.269 C 
HETATM    5  O   UNL     1     -41.410 -50.430  15.210  1.00  0.00    -0.266 OA
HETATM    6  N   UNL     1     -42.041 -48.565  14.108  1.00  0.00    -0.274 N 
HETATM    7  C   UNL     1     -42.385 -47.878  12.981  1.00  0.00     0.330 C 
HETATM    8  O   UNL     1     -43.029 -46.838  13.089  1.00  0.00    -0.246 OA
HETATM    9  H   UNL     1     -42.367 -48.177  14.980  1.00  0.00     0.173 HD
ENDROOT
BRANCH   3  10
HETATM   10  S   UNL     1     -40.574 -52.036  12.748  1.00  0.00    -0.082 SA
BRANCH  10  11
HETATM   11  C   UNL     1     -42.081 -52.919  13.061  1.00  0.00     0.005 A 
HETATM   12  C   UNL     1     -42.104 -53.796  14.152  1.00  0.00     0.019 A 
HETATM   13  C   UNL     1     -43.240 -54.559  14.428  1.00  0.00     0.008 A 
HETATM   14  C   UNL     1     -44.373 -54.448  13.617  1.00  0.00    -0.062 A 
HETATM   15  C   UNL     1     -45.531 -55.383  13.789  1.00  0.00     0.048 C 
HETATM   16  C   UNL     1     -44.377 -53.512  12.576  1.00  0.00     0.008 A 
HETATM   17  C   UNL     1     -43.242 -52.745  12.306  1.00  0.00     0.019 A 
ENDBRANCH  10  11
ENDBRANCH   3  10
BRANCH   2  18
HETATM   18  N   UNL     1     -40.640 -50.047  10.516  1.00  0.00    -0.287 NA
HETATM   19  H   UNL     1     -40.452 -51.039  10.530  1.00  0.00     0.125 HD
HETATM   20  H   UNL     1     -39.743 -49.578  10.370  1.00  0.00     0.125 HD
ENDBRANCH   2  18
BRANCH   1  21
HETATM   21  C   UNL     1     -42.331 -47.716  10.544  1.00  0.00     0.161 C 
BRANCH  21  22
HETATM   22  C   UNL     1     -41.602 -46.381  10.298  1.00  0.00     0.187 C 
BRANCH  22  23
HETATM   23  O   UNL     1     -42.312 -45.543   9.385  1.00  0.00    -0.394 OA
HETATM   24  C   UNL     1     -43.511 -46.167   8.936  1.00  0.00     0.201 C 
ENDBRANCH  22  23
ENDBRANCH  21  22
ENDBRANCH   1  21
TORSDOF 6
ENDMDL
MODEL 6
REMARK VINA RESULT:      -5.0      3.489      6.933
REMARK  6 active torsions:
REMARK  status: ('A' for Active; 'I' for Inactive)
REMARK    1  A    between atoms: O_2  and  C_3 
REMARK    2  A    between atoms: C_3  and  C_4 
REMARK    3  A    between atoms: C_4  and  N_5 
REMARK    4  A    between atoms: C_6  and  N_7 
REMARK    5  A    between atoms: C_8  and  S_9 
REMARK    6  A    between atoms: S_9  and  C_10 
ROOT
HETATM    1  N   UNL     1     -42.569 -52.422  13.023  1.00  0.00    -0.287 N 
HETATM    2  C   UNL     1     -41.713 -51.817  12.099  1.00  0.00     0.107 C 
HETATM    3  C   UNL     1     -41.678 -50.465  12.002  1.00  0.00     0.112 C 
HETATM    4  C   UNL     1     -42.684 -49.649  12.737  1.00  0.00     0.269 C 
HETATM    5  O   UNL     1     -42.728 -48.425  12.701  1.00  0.00    -0.266 OA
HETATM    6  N   UNL     1     -43.594 -50.364  13.463  1.00  0.00    -0.274 N 
HETATM    7  C   UNL     1     -43.528 -51.698  13.738  1.00  0.00     0.330 C 
HETATM    8  O   UNL     1     -44.303 -52.177  14.561  1.00  0.00    -0.246 OA
HETATM    9  H   UNL     1     -44.277 -49.837  13.985  1.00  0.00     0.173 HD
ENDROOT
BRANCH   3  10
HETATM   10  S   UNL     1     -40.351 -49.650  11.221  1.00  0.00    -0.082 SA
BRANCH  10  11
HETATM   11  C   UNL     1     -39.274 -49.245  12.571  1.00  0.00     0.005 A 
HETATM   12  C   UNL     1     -39.273 -47.921  13.026  1.00  0.00     0.019 A 
HETATM   13  C   UNL     1     -38.416 -47.522  14.053  1.00  0.00     0.008 A 
HETATM   14  C   UNL     1     -37.550 -48.446  14.643  1.00  0.00    -0.062 A 
HETATM   15  C   UNL     1     -36.503 -47.999  15.617  1.00  0.00     0.048 C 
HETATM   16  C   UNL     1     -37.609 -49.786  14.243  1.00  0.00     0.008 A 
HETATM   17  C   UNL     1     -38.473 -50.185  13.221  1.00  0.00     0.019 A 
ENDBRANCH  10  11
ENDBRANCH   3  10
BRANCH   2  18
HETATM   18  N   UNL     1     -40.888 -52.591  11.277  1.00  0.00    -0.287 NA
HETATM   19  H   UNL     1     -40.363 -52.016  10.634  1.00  0.00     0.125 HD
HETATM   20  H   UNL     1     -41.456 -53.225  10.710  1.00  0.00     0.125 HD
ENDBRANCH   2  18
BRANCH   1  21
HETATM   21  C   UNL     1     -42.462 -53.858  13.329  1.00  0.00     0.161 C 
BRANCH  21  22
HETATM   22  C   UNL     1     -41.342 -54.240  14.316  1.00  0.00     0.187 C 
BRANCH  22  23
HETATM   23  O   UNL     1     -40.098 -54.466  13.654  1.00  0.00    -0.394 OA
HETATM   24  C   UNL     1     -39.034 -53.770  14.298  1.00  0.00     0.201 C 
ENDBRANCH  22  23
ENDBRANCH  21  22
ENDBRANCH   1  21
TORSDOF 6
ENDMDL
MODEL 7
REMARK VINA RESULT:      -4.9      5.269      7.382
REMARK  6 active torsions:
REMARK  status: ('A' for Active; 'I' for Inactive)
REMARK    1  A    between atoms: O_2  and  C_3 
REMARK    2  A    between atoms: C_3  and  C_4 
REMARK    3  A    between atoms: C_4  and  N_5 
REMARK    4  A    between atoms: C_6  and  N_7 
REMARK    5  A    between atoms: C_8  and  S_9 
REMARK    6  A    between atoms: S_9  and  C_10 
ROOT
HETATM    1  N   UNL     1     -41.773 -45.388  11.341  1.00  0.00    -0.287 N 
HETATM    2  C   UNL     1     -42.090 -46.359  12.295  1.00  0.00     0.107 C 
HETATM    3  C   UNL     1     -41.207 -47.353  12.559  1.00  0.00     0.112 C 
HETATM    4  C   UNL     1     -40.002 -47.513  11.698  1.00  0.00     0.269 C 
HETATM    5  O   UNL     1     -39.158 -48.386  11.862  1.00  0.00    -0.266 OA
HETATM    6  N   UNL     1     -39.895 -46.616  10.674  1.00  0.00    -0.274 N 
HETATM    7  C   UNL     1     -40.654 -45.494  10.511  1.00  0.00     0.330 C 
HETATM    8  O   UNL     1     -40.328 -44.672   9.659  1.00  0.00    -0.246 OA
HETATM    9  H   UNL     1     -39.081 -46.690  10.084  1.00  0.00     0.173 HD
ENDROOT
BRANCH   3  10
HETATM   10  S   UNL     1     -41.328 -48.307  14.011  1.00  0.00    -0.082 SA
BRANCH  10  11
HETATM   11  C   UNL     1     -42.131 -49.789  13.457  1.00  0.00     0.005 A 
HETATM   12  C   UNL     1     -43.491 -49.940  13.752  1.00  0.00     0.019 A 
HETATM   13  C   UNL     1     -44.174 -51.101  13.388  1.00  0.00     0.008 A 
HETATM   14  C   UNL     1     -43.504 -52.128  12.717  1.00  0.00    -0.062 A 
HETATM   15  C   UNL     1     -44.171 -53.448  12.478  1.00  0.00     0.048 C 
HETATM   16  C   UNL     1     -42.166 -51.942  12.351  1.00  0.00     0.008 A 
HETATM   17  C   UNL     1     -41.486 -50.776  12.709  1.00  0.00     0.019 A 
ENDBRANCH  10  11
ENDBRANCH   3  10
BRANCH   2  18
HETATM   18  N   UNL     1     -43.306 -46.312  12.986  1.00  0.00    -0.287 NA
HETATM   19  H   UNL     1     -43.389 -45.464  13.527  1.00  0.00     0.125 HD
HETATM   20  H   UNL     1     -43.362 -47.091  13.646  1.00  0.00     0.125 HD
ENDBRANCH   2  18
BRANCH   1  21
HETATM   21  C   UNL     1     -42.587 -44.169  11.201  1.00  0.00     0.161 C 
BRANCH  21  22
HETATM   22  C   UNL     1     -42.279 -43.052  12.218  1.00  0.00     0.187 C 
BRANCH  22  23
HETATM   23  O   UNL     1     -43.201 -43.052  13.308  1.00  0.00    -0.394 OA
HETATM   24  C   UNL     1     -42.525 -43.156  14.558  1.00  0.00     0.201 C 
ENDBRANCH  22  23
ENDBRANCH  21  22
ENDBRANCH   1  21
TORSDOF 6
ENDMDL
MODEL 8
REMARK VINA RESULT:      -4.9      2.862      5.440
REMARK  6 active torsions:
REMARK  status: ('A' for Active; 'I' for Inactive)
REMARK    1  A    between atoms: O_2  and  C_3 
REMARK    2  A    between atoms: C_3  and  C_4 
REMARK    3  A    between atoms: C_4  and  N_5 
REMARK    4  A    between atoms: C_6  and  N_7 
REMARK    5  A    between atoms: C_8  and  S_9 
REMARK    6  A    between atoms: S_9  and  C_10 
ROOT
HETATM    1  N   UNL     1     -44.436 -54.222  13.743  1.00  0.00    -0.287 N 
HETATM    2  C   UNL     1     -43.212 -54.635  14.276  1.00  0.00     0.107 C 
HETATM    3  C   UNL     1     -42.059 -54.114  13.790  1.00  0.00     0.112 C 
HETATM    4  C   UNL     1     -42.095 -53.259  12.570  1.00  0.00     0.269 C 
HETATM    5  O   UNL     1     -41.102 -52.754  12.061  1.00  0.00    -0.266 OA
HETATM    6  N   UNL     1     -43.334 -53.079  12.023  1.00  0.00    -0.274 N 
HETATM    7  C   UNL     1     -44.521 -53.420  12.602  1.00  0.00     0.330 C 
HETATM    8  O   UNL     1     -45.568 -53.027  12.093  1.00  0.00    -0.246 OA
HETATM    9  H   UNL     1     -43.392 -52.491  11.207  1.00  0.00     0.173 HD
ENDROOT
BRANCH   3  10
HETATM   10  S   UNL     1     -40.567 -54.233  14.681  1.00  0.00    -0.082 SA
BRANCH  10  11
HETATM   11  C   UNL     1     -40.258 -52.559  15.179  1.00  0.00     0.005 A 
HETATM   12  C   UNL     1     -39.020 -52.000  14.844  1.00  0.00     0.019 A 
HETATM   13  C   UNL     1     -38.690 -50.705  15.245  1.00  0.00     0.008 A 
HETATM   14  C   UNL     1     -39.603 -49.946  15.984  1.00  0.00    -0.062 A 
HETATM   15  C   UNL     1     -39.201 -48.629  16.574  1.00  0.00     0.048 C 
HETATM   16  C   UNL     1     -40.871 -50.475  16.250  1.00  0.00     0.008 A 
HETATM   17  C   UNL     1     -41.201 -51.769  15.840  1.00  0.00     0.019 A 
ENDBRANCH  10  11
ENDBRANCH   3  10
BRANCH   2  18
HETATM   18  N   UNL     1     -43.164 -55.576  15.310  1.00  0.00    -0.287 NA
HETATM   19  H   UNL     1     -43.236 -55.134  16.215  1.00  0.00     0.125 HD
HETATM   20  H   UNL     1     -42.269 -56.069  15.292  1.00  0.00     0.125 HD
ENDBRANCH   2  18
BRANCH   1  21
HETATM   21  C   UNL     1     -45.706 -54.575  14.399  1.00  0.00     0.161 C 
BRANCH  21  22
HETATM   22  C   UNL     1     -46.170 -53.603  15.502  1.00  0.00     0.187 C 
BRANCH  22  23
HETATM   23  O   UNL     1     -47.226 -52.752  15.055  1.00  0.00    -0.394 OA
HETATM   24  C   UNL     1     -46.793 -51.399  14.954  1.00  0.00     0.201 C 
ENDBRANCH  22  23
ENDBRANCH  21  22
ENDBRANCH   1  21
TORSDOF 6
ENDMDL
MODEL 9
REMARK VINA RESULT:      -4.9      3.735      7.038
REMARK  6 active torsions:
REMARK  status: ('A' for Active; 'I' for Inactive)
REMARK    1  A    between atoms: O_2  and  C_3 
REMARK    2  A    between atoms: C_3  and  C_4 
REMARK    3  A    between atoms: C_4  and  N_5 
REMARK    4  A    between atoms: C_6  and  N_7 
REMARK    5  A    between atoms: C_8  and  S_9 
REMARK    6  A    between atoms: S_9  and  C_10 
ROOT
HETATM    1  N   UNL     1     -42.647 -51.985  12.795  1.00  0.00    -0.287 N 
HETATM    2  C   UNL     1     -41.448 -51.819  12.096  1.00  0.00     0.107 C 
HETATM    3  C   UNL     1     -40.993 -50.569  11.836  1.00  0.00     0.112 C 
HETATM    4  C   UNL     1     -41.862 -49.394  12.123  1.00  0.00     0.269 C 
HETATM    5  O   UNL     1     -41.532 -48.233  11.913  1.00  0.00    -0.266 OA
HETATM    6  N   UNL     1     -43.094 -49.693  12.632  1.00  0.00    -0.274 N 
HETATM    7  C   UNL     1     -43.496 -50.914  13.088  1.00  0.00     0.330 C 
HETATM    8  O   UNL     1     -44.558 -51.003  13.699  1.00  0.00    -0.246 OA
HETATM    9  H   UNL     1     -43.698 -48.917  12.851  1.00  0.00     0.173 HD
ENDROOT
BRANCH   3  10
HETATM   10  S   UNL     1     -39.333 -50.289  11.385  1.00  0.00    -0.082 SA
BRANCH  10  11
HETATM   11  C   UNL     1     -38.550 -49.918  12.934  1.00  0.00     0.005 A 
HETATM   12  C   UNL     1     -38.210 -48.585  13.186  1.00  0.00     0.019 A 
HETATM   13  C   UNL     1     -37.549 -48.228  14.362  1.00  0.00     0.008 A 
HETATM   14  C   UNL     1     -37.225 -49.205  15.308  1.00  0.00    -0.062 A 
HETATM   15  C   UNL     1     -36.362 -48.872  16.486  1.00  0.00     0.048 C 
HETATM   16  C   UNL     1     -37.636 -50.525  15.092  1.00  0.00     0.008 A 
HETATM   17  C   UNL     1     -38.305 -50.878  13.917  1.00  0.00     0.019 A 
ENDBRANCH  10  11
ENDBRANCH   3  10
BRANCH   2  18
HETATM   18  N   UNL     1     -40.712 -52.928  11.668  1.00  0.00    -0.287 NA
HETATM   19  H   UNL     1     -40.245 -52.745  10.792  1.00  0.00     0.125 HD
HETATM   20  H   UNL     1     -41.337 -53.722  11.510  1.00  0.00     0.125 HD
ENDBRANCH   2  18
BRANCH   1  21
HETATM   21  C   UNL     1     -43.050 -53.306  13.306  1.00  0.00     0.161 C 
BRANCH  21  22
HETATM   22  C   UNL     1     -44.055 -54.074  12.425  1.00  0.00     0.187 C 
BRANCH  22  23
HETATM   23  O   UNL     1     -45.256 -54.385  13.131  1.00  0.00    -0.394 OA
HETATM   24  C   UNL     1     -45.027 -54.458  14.536  1.00  0.00     0.201 C 
ENDBRANCH  22  23
ENDBRANCH  21  22
ENDBRANCH   1  21
TORSDOF 6
ENDMDL
