MODEL 1
REMARK VINA RESULT:      -6.7      0.000      0.000
REMARK  6 active torsions:
REMARK  status: ('A' for Active; 'I' for Inactive)
REMARK    1  A    between atoms: N_1  and  C_9 
REMARK    2  A    between atoms: C_6  and  N_8 
REMARK    3  A    between atoms: C_14  and  C_25 
REMARK    4  A    between atoms: C_14  and  C_26 
REMARK    5  A    between atoms: C_25  and  O_27 
REMARK    6  A    between atoms: C_26  and  O_28 
ROOT
HETATM    1  N   UNL     1     -42.481 -50.991  12.868  1.00  0.00    -0.322 N 
HETATM    2  C   UNL     1     -41.793 -49.074  12.054  1.00  0.00     0.122 A 
HETATM    3  C   UNL     1     -41.397 -50.399  12.279  1.00  0.00     0.140 A 
HETATM    4  N   UNL     1     -43.109 -48.894  12.449  1.00  0.00    -0.346 N 
ATOM      5  HN  UNL     1     -43.663 -48.040  12.391  1.00  0.00     0.167 HD
HETATM    6  C   UNL     1     -40.838 -48.190  11.487  1.00  0.00     0.135 A 
HETATM    7  C   UNL     1     -43.492 -50.064  12.912  1.00  0.00     0.185 A 
HETATM    8  N   UNL     1     -40.205 -50.947  11.992  1.00  0.00    -0.336 N 
ATOM      9  HN  UNL     1     -39.955 -51.918  12.181  1.00  0.00     0.168 HD
HETATM   10  N   UNL     1     -39.630 -48.751  11.167  1.00  0.00    -0.337 N 
ATOM     11  HN  UNL     1     -38.907 -48.180  10.730  1.00  0.00     0.168 HD
HETATM   12  C   UNL     1     -39.387 -50.050  11.423  1.00  0.00     0.183 A 
ENDROOT
BRANCH   6  13
HETATM   13  N   UNL     1     -40.972 -46.815  11.276  1.00  0.00    -0.360 N 
HETATM   14  C   UNL     1     -42.225 -46.211  10.762  1.00  0.00     0.164 C 
HETATM   15  C   UNL     1     -42.209 -44.661  11.002  1.00  0.00     0.098 C 
HETATM   16  O   UNL     1     -40.981 -44.081  10.484  1.00  0.00    -0.375 OA
HETATM   17  C   UNL     1     -43.353 -43.946  10.244  1.00  0.00     0.207 C 
HETATM   18  C   UNL     1     -42.404 -44.316  12.494  1.00  0.00     0.044 C 
HETATM   19  C   UNL     1     -39.808 -44.664  11.042  1.00  0.00     0.189 C 
HETATM   20  C   UNL     1     -39.748 -46.163  10.767  1.00  0.00     0.151 C 
HETATM   21  O   UNL     1     -43.307 -42.519  10.441  1.00  0.00    -0.388 OA
HETATM   22  C   UNL     1     -43.394 -42.117  11.806  1.00  0.00     0.167 C 
HETATM   23  C   UNL     1     -42.364 -42.804  12.694  1.00  0.00     0.029 C 
ENDBRANCH   6  13
BRANCH   1  24
HETATM   24  C   UNL     1     -42.638 -52.303  13.444  1.00  0.00     0.094 C 
HETATM   25  C   UNL     1     -43.638 -53.232  12.686  1.00  0.00     0.039 C 
HETATM   26  C   UNL     1     -43.949 -53.898  14.076  1.00  0.00     0.006 C 
HETATM   27  C   UNL     1     -43.614 -52.470  14.651  1.00  0.00     0.039 C 
BRANCH  26  28
HETATM   28  C   UNL     1     -45.395 -54.348  14.284  1.00  0.00     0.175 C 
BRANCH  28  29
HETATM   29  O   UNL     1     -45.527 -55.718  13.910  1.00  0.00    -0.400 OA
HETATM   30  H   UNL     1     -45.576 -55.745  12.937  1.00  0.00     0.209 HD
ENDBRANCH  28  29
ENDBRANCH  26  28
BRANCH  26  31
HETATM   31  C   UNL     1     -42.971 -54.993  14.543  1.00  0.00     0.175 C 
BRANCH  31  32
HETATM   32  O   UNL     1     -43.474 -55.640  15.705  1.00  0.00    -0.400 OA
HETATM   33  H   UNL     1     -43.587 -54.944  16.385  1.00  0.00     0.209 HD
ENDBRANCH  31  32
ENDBRANCH  26  31
ENDBRANCH   1  24
TORSDOF 6
ENDMDL
MODEL 2
REMARK VINA RESULT:      -6.3      4.578      7.995
REMARK  6 active torsions:
REMARK  status: ('A' for Active; 'I' for Inactive)
REMARK    1  A    between atoms: N_1  and  C_9 
REMARK    2  A    between atoms: C_6  and  N_8 
REMARK    3  A    between atoms: C_14  and  C_25 
REMARK    4  A    between atoms: C_14  and  C_26 
REMARK    5  A    between atoms: C_25  and  O_27 
REMARK    6  A    between atoms: C_26  and  O_28 
ROOT
HETATM    1  N   UNL     1     -41.883 -48.699  12.169  1.00  0.00    -0.322 N 
HETATM    2  C   UNL     1     -40.423 -49.740  13.430  1.00  0.00     0.122 A 
HETATM    3  C   UNL     1     -41.335 -49.933  12.384  1.00  0.00     0.140 A 
HETATM    4  N   UNL     1     -40.385 -48.402  13.792  1.00  0.00    -0.346 N 
ATOM      5  HN  UNL     1     -39.807 -47.971  14.512  1.00  0.00     0.167 HD
HETATM    6  C   UNL     1     -39.724 -50.878  13.912  1.00  0.00     0.135 A 
HETATM    7  C   UNL     1     -41.257 -47.809  13.006  1.00  0.00     0.185 A 
HETATM    8  N   UNL     1     -41.613 -51.087  11.756  1.00  0.00    -0.336 N 
ATOM      9  HN  UNL     1     -42.294 -51.185  11.003  1.00  0.00     0.168 HD
HETATM   10  N   UNL     1     -39.984 -52.052  13.255  1.00  0.00    -0.337 N 
ATOM     11  HN  UNL     1     -39.496 -52.904  13.531  1.00  0.00     0.168 HD
HETATM   12  C   UNL     1     -40.877 -52.093  12.249  1.00  0.00     0.183 A 
ENDROOT
BRANCH   6  13
HETATM   13  N   UNL     1     -38.856 -50.944  15.005  1.00  0.00    -0.360 N 
HETATM   14  C   UNL     1     -37.507 -50.329  14.983  1.00  0.00     0.164 C 
HETATM   15  C   UNL     1     -36.944 -50.223  16.444  1.00  0.00     0.098 C 
HETATM   16  O   UNL     1     -37.030 -51.510  17.114  1.00  0.00    -0.375 OA
HETATM   17  C   UNL     1     -35.442 -49.852  16.460  1.00  0.00     0.207 C 
HETATM   18  C   UNL     1     -37.666 -49.124  17.252  1.00  0.00     0.044 C 
HETATM   19  C   UNL     1     -38.353 -52.036  17.148  1.00  0.00     0.189 C 
HETATM   20  C   UNL     1     -38.913 -52.224  15.741  1.00  0.00     0.151 C 
HETATM   21  O   UNL     1     -34.926 -49.794  17.805  1.00  0.00    -0.388 OA
HETATM   22  C   UNL     1     -35.598 -48.860  18.646  1.00  0.00     0.167 C 
HETATM   23  C   UNL     1     -37.108 -49.061  18.671  1.00  0.00     0.029 C 
ENDBRANCH   6  13
BRANCH   1  24
HETATM   24  C   UNL     1     -42.968 -48.288  11.312  1.00  0.00     0.094 C 
HETATM   25  C   UNL     1     -42.545 -47.923   9.854  1.00  0.00     0.039 C 
HETATM   26  C   UNL     1     -43.743 -46.904   9.847  1.00  0.00     0.006 C 
HETATM   27  C   UNL     1     -43.456 -46.807  11.393  1.00  0.00     0.039 C 
BRANCH  26  28
HETATM   28  C   UNL     1     -43.504 -45.609   9.070  1.00  0.00     0.175 C 
BRANCH  28  29
HETATM   29  O   UNL     1     -44.663 -44.782   9.154  1.00  0.00    -0.400 OA
HETATM   30  H   UNL     1     -44.352 -43.867   9.281  1.00  0.00     0.209 HD
ENDBRANCH  28  29
ENDBRANCH  26  28
BRANCH  26  31
HETATM   31  C   UNL     1     -45.131 -47.484   9.515  1.00  0.00     0.175 C 
BRANCH  31  32
HETATM   32  O   UNL     1     -45.344 -47.479   8.109  1.00  0.00    -0.400 OA
HETATM   33  H   UNL     1     -45.999 -46.773   7.928  1.00  0.00     0.209 HD
ENDBRANCH  31  32
ENDBRANCH  26  31
ENDBRANCH   1  24
TORSDOF 6
ENDMDL
MODEL 3
REMARK VINA RESULT:      -6.3      1.855      8.948
REMARK  6 active torsions:
REMARK  status: ('A' for Active; 'I' for Inactive)
REMARK    1  A    between atoms: N_1  and  C_9 
REMARK    2  A    between atoms: C_6  and  N_8 
REMARK    3  A    between atoms: C_14  and  C_25 
REMARK    4  A    between atoms: C_14  and  C_26 
REMARK    5  A    between atoms: C_25  and  O_27 
REMARK    6  A    between atoms: C_26  and  O_28 
ROOT
HETATM    1  N   UNL     1     -41.359 -48.475  12.344  1.00  0.00    -0.322 N 
HETATM    2  C   UNL     1     -42.287 -50.335  13.043  1.00  0.00     0.122 A 
HETATM    3  C   UNL     1     -41.329 -49.830  12.154  1.00  0.00     0.140 A 
HETATM    4  N   UNL     1     -42.835 -49.306  13.792  1.00  0.00    -0.346 N 
ATOM      5  HN  UNL     1     -43.543 -49.380  14.522  1.00  0.00     0.167 HD
HETATM    6  C   UNL     1     -42.517 -51.736  13.035  1.00  0.00     0.135 A 
HETATM    7  C   UNL     1     -42.244 -48.214  13.359  1.00  0.00     0.185 A 
HETATM    8  N   UNL     1     -40.572 -50.532  11.295  1.00  0.00    -0.336 N 
ATOM      9  HN  UNL     1     -39.891 -50.121  10.656  1.00  0.00     0.168 HD
HETATM   10  N   UNL     1     -41.727 -52.459  12.180  1.00  0.00    -0.337 N 
ATOM     11  HN  UNL     1     -41.820 -53.474  12.143  1.00  0.00     0.168 HD
HETATM   12  C   UNL     1     -40.829 -51.844  11.388  1.00  0.00     0.183 A 
ENDROOT
BRANCH   6  13
HETATM   13  N   UNL     1     -43.488 -52.443  13.749  1.00  0.00    -0.360 N 
HETATM   14  C   UNL     1     -43.230 -52.996  15.101  1.00  0.00     0.164 C 
HETATM   15  C   UNL     1     -44.588 -53.375  15.790  1.00  0.00     0.098 C 
HETATM   16  O   UNL     1     -45.383 -54.220  14.914  1.00  0.00    -0.375 OA
HETATM   17  C   UNL     1     -44.371 -54.208  17.076  1.00  0.00     0.207 C 
HETATM   18  C   UNL     1     -45.375 -52.120  16.221  1.00  0.00     0.044 C 
HETATM   19  C   UNL     1     -45.640 -53.624  13.646  1.00  0.00     0.189 C 
HETATM   20  C   UNL     1     -44.343 -53.306  12.908  1.00  0.00     0.151 C 
HETATM   21  O   UNL     1     -45.624 -54.583  17.682  1.00  0.00    -0.388 OA
HETATM   22  C   UNL     1     -46.454 -53.478  18.033  1.00  0.00     0.167 C 
HETATM   23  C   UNL     1     -46.696 -52.524  16.870  1.00  0.00     0.029 C 
ENDBRANCH   6  13
BRANCH   1  24
HETATM   24  C   UNL     1     -40.695 -47.411  11.633  1.00  0.00     0.094 C 
HETATM   25  C   UNL     1     -40.591 -46.067  12.421  1.00  0.00     0.039 C 
HETATM   26  C   UNL     1     -40.652 -45.339  11.028  1.00  0.00     0.006 C 
HETATM   27  C   UNL     1     -41.521 -46.582  10.601  1.00  0.00     0.039 C 
BRANCH  26  28
HETATM   28  C   UNL     1     -41.396 -44.003  11.013  1.00  0.00     0.175 C 
BRANCH  28  29
HETATM   29  O   UNL     1     -40.498 -42.961  10.638  1.00  0.00    -0.400 OA
HETATM   30  H   UNL     1     -40.057 -43.246   9.817  1.00  0.00     0.209 HD
ENDBRANCH  28  29
ENDBRANCH  26  28
BRANCH  26  31
HETATM   31  C   UNL     1     -39.323 -45.225  10.258  1.00  0.00     0.175 C 
BRANCH  31  32
HETATM   32  O   UNL     1     -39.564 -44.831   8.913  1.00  0.00    -0.400 OA
HETATM   33  H   UNL     1     -39.099 -43.978   8.784  1.00  0.00     0.209 HD
ENDBRANCH  31  32
ENDBRANCH  26  31
ENDBRANCH   1  24
TORSDOF 6
ENDMDL
MODEL 4
REMARK VINA RESULT:      -6.3      2.375      9.246
REMARK  6 active torsions:
REMARK  status: ('A' for Active; 'I' for Inactive)
REMARK    1  A    between atoms: N_1  and  C_9 
REMARK    2  A    between atoms: C_6  and  N_8 
REMARK    3  A    between atoms: C_14  and  C_25 
REMARK    4  A    between atoms: C_14  and  C_26 
REMARK    5  A    between atoms: C_25  and  O_27 
REMARK    6  A    between atoms: C_26  and  O_28 
ROOT
HETATM    1  N   UNL     1     -40.357 -47.620  12.339  1.00  0.00    -0.322 N 
HETATM    2  C   UNL     1     -40.058 -49.726  12.872  1.00  0.00     0.122 A 
HETATM    3  C   UNL     1     -39.512 -48.674  12.125  1.00  0.00     0.140 A 
HETATM    4  N   UNL     1     -41.176 -49.291  13.566  1.00  0.00    -0.346 N 
ATOM      5  HN  UNL     1     -41.765 -49.834  14.197  1.00  0.00     0.167 HD
HETATM    6  C   UNL     1     -39.409 -50.987  12.804  1.00  0.00     0.135 A 
HETATM    7  C   UNL     1     -41.313 -48.024  13.237  1.00  0.00     0.185 A 
HETATM    8  N   UNL     1     -38.411 -48.714  11.356  1.00  0.00    -0.336 N 
ATOM      9  HN  UNL     1     -38.053 -47.923  10.820  1.00  0.00     0.168 HD
HETATM   10  N   UNL     1     -38.271 -51.025  12.042  1.00  0.00    -0.337 N 
ATOM     11  HN  UNL     1     -37.739 -51.893  11.972  1.00  0.00     0.168 HD
HETATM   12  C   UNL     1     -37.846 -49.928  11.387  1.00  0.00     0.183 A 
ENDROOT
BRANCH   6  13
HETATM   13  N   UNL     1     -39.831 -52.193  13.371  1.00  0.00    -0.360 N 
HETATM   14  C   UNL     1     -38.899 -53.103  14.080  1.00  0.00     0.164 C 
HETATM   15  C   UNL     1     -39.711 -54.144  14.927  1.00  0.00     0.098 C 
HETATM   16  O   UNL     1     -40.712 -54.799  14.101  1.00  0.00    -0.375 OA
HETATM   17  C   UNL     1     -38.810 -55.284  15.461  1.00  0.00     0.207 C 
HETATM   18  C   UNL     1     -40.353 -53.489  16.168  1.00  0.00     0.044 C 
HETATM   19  C   UNL     1     -41.609 -53.885  13.479  1.00  0.00     0.189 C 
HETATM   20  C   UNL     1     -40.865 -52.897  12.586  1.00  0.00     0.151 C 
HETATM   21  O   UNL     1     -39.571 -56.255  16.206  1.00  0.00    -0.388 OA
HETATM   22  C   UNL     1     -40.269 -55.713  17.325  1.00  0.00     0.167 C 
HETATM   23  C   UNL     1     -41.149 -54.524  16.958  1.00  0.00     0.029 C 
ENDBRANCH   6  13
BRANCH   1  24
HETATM   24  C   UNL     1     -40.394 -46.307  11.744  1.00  0.00     0.094 C 
HETATM   25  C   UNL     1     -40.960 -45.186  12.671  1.00  0.00     0.039 C 
HETATM   26  C   UNL     1     -41.479 -44.480  11.365  1.00  0.00     0.006 C 
HETATM   27  C   UNL     1     -41.594 -45.950  10.812  1.00  0.00     0.039 C 
BRANCH  26  28
HETATM   28  C   UNL     1     -42.811 -43.742  11.499  1.00  0.00     0.175 C 
BRANCH  28  29
HETATM   29  O   UNL     1     -43.343 -43.478  10.202  1.00  0.00    -0.400 OA
HETATM   30  H   UNL     1     -42.737 -42.850   9.767  1.00  0.00     0.209 HD
ENDBRANCH  28  29
ENDBRANCH  26  28
BRANCH  26  31
HETATM   31  C   UNL     1     -40.457 -43.615  10.604  1.00  0.00     0.175 C 
BRANCH  31  32
HETATM   32  O   UNL     1     -40.868 -42.253  10.602  1.00  0.00    -0.400 OA
HETATM   33  H   UNL     1     -41.845 -42.257  10.674  1.00  0.00     0.209 HD
ENDBRANCH  31  32
ENDBRANCH  26  31
ENDBRANCH   1  24
TORSDOF 6
ENDMDL
MODEL 5
REMARK VINA RESULT:      -6.2      1.665      8.978
REMARK  6 active torsions:
REMARK  status: ('A' for Active; 'I' for Inactive)
REMARK    1  A    between atoms: N_1  and  C_9 
REMARK    2  A    between atoms: C_6  and  N_8 
REMARK    3  A    between atoms: C_14  and  C_25 
REMARK    4  A    between atoms: C_14  and  C_26 
REMARK    5  A    between atoms: C_25  and  O_27 
REMARK    6  A    between atoms: C_26  and  O_28 
ROOT
HETATM    1  N   UNL     1     -41.691 -47.173  12.476  1.00  0.00    -0.322 N 
HETATM    2  C   UNL     1     -42.124 -49.299  12.800  1.00  0.00     0.122 A 
HETATM    3  C   UNL     1     -41.312 -48.423  12.067  1.00  0.00     0.140 A 
HETATM    4  N   UNL     1     -42.931 -48.586  13.673  1.00  0.00    -0.346 N 
ATOM      5  HN  UNL     1     -43.610 -48.961  14.335  1.00  0.00     0.167 HD
HETATM    6  C   UNL     1     -41.987 -50.689  12.547  1.00  0.00     0.135 A 
HETATM    7  C   UNL     1     -42.632 -47.323  13.464  1.00  0.00     0.185 A 
HETATM    8  N   UNL     1     -40.385 -48.752  11.153  1.00  0.00    -0.336 N 
ATOM      9  HN  UNL     1     -39.821 -48.079  10.635  1.00  0.00     0.168 HD
HETATM   10  N   UNL     1     -41.023 -51.031  11.635  1.00  0.00    -0.337 N 
ATOM     11  HN  UNL     1     -40.852 -52.015  11.426  1.00  0.00     0.168 HD
HETATM   12  C   UNL     1     -40.299 -50.082  11.013  1.00  0.00     0.183 A 
ENDROOT
BRANCH   6  13
HETATM   13  N   UNL     1     -42.757 -51.729  13.073  1.00  0.00    -0.360 N 
HETATM   14  C   UNL     1     -42.660 -52.147  14.493  1.00  0.00     0.164 C 
HETATM   15  C   UNL     1     -43.893 -53.039  14.873  1.00  0.00     0.098 C 
HETATM   16  O   UNL     1     -44.049 -54.122  13.916  1.00  0.00    -0.375 OA
HETATM   17  C   UNL     1     -43.707 -53.729  16.246  1.00  0.00     0.207 C 
HETATM   18  C   UNL     1     -45.185 -52.203  14.986  1.00  0.00     0.044 C 
HETATM   19  C   UNL     1     -44.183 -53.667  12.574  1.00  0.00     0.189 C 
HETATM   20  C   UNL     1     -42.968 -52.853  12.138  1.00  0.00     0.151 C 
HETATM   21  O   UNL     1     -44.827 -54.576  16.569  1.00  0.00    -0.388 OA
HETATM   22  C   UNL     1     -46.079 -53.894  16.609  1.00  0.00     0.167 C 
HETATM   23  C   UNL     1     -46.366 -53.104  15.338  1.00  0.00     0.029 C 
ENDBRANCH   6  13
BRANCH   1  24
HETATM   24  C   UNL     1     -41.309 -45.870  11.993  1.00  0.00     0.094 C 
HETATM   25  C   UNL     1     -40.062 -45.252  12.700  1.00  0.00     0.039 C 
HETATM   26  C   UNL     1     -40.705 -43.843  12.426  1.00  0.00     0.006 C 
HETATM   27  C   UNL     1     -42.068 -44.623  12.547  1.00  0.00     0.039 C 
BRANCH  26  28
HETATM   28  C   UNL     1     -40.473 -42.789  13.510  1.00  0.00     0.175 C 
BRANCH  28  29
HETATM   29  O   UNL     1     -39.241 -42.114  13.263  1.00  0.00    -0.400 OA
HETATM   30  H   UNL     1     -39.204 -41.929  12.307  1.00  0.00     0.209 HD
ENDBRANCH  28  29
ENDBRANCH  26  28
BRANCH  26  31
HETATM   31  C   UNL     1     -40.463 -43.241  11.029  1.00  0.00     0.175 C 
BRANCH  31  32
HETATM   32  O   UNL     1     -40.829 -41.867  11.013  1.00  0.00    -0.400 OA
HETATM   33  H   UNL     1     -41.777 -41.829  11.259  1.00  0.00     0.209 HD
ENDBRANCH  31  32
ENDBRANCH  26  31
ENDBRANCH   1  24
TORSDOF 6
ENDMDL
MODEL 6
REMARK VINA RESULT:      -6.2      2.692      3.308
REMARK  6 active torsions:
REMARK  status: ('A' for Active; 'I' for Inactive)
REMARK    1  A    between atoms: N_1  and  C_9 
REMARK    2  A    between atoms: C_6  and  N_8 
REMARK    3  A    between atoms: C_14  and  C_25 
REMARK    4  A    between atoms: C_14  and  C_26 
REMARK    5  A    between atoms: C_25  and  O_27 
REMARK    6  A    between atoms: C_26  and  O_28 
ROOT
HETATM    1  N   UNL     1     -39.815 -51.627  14.246  1.00  0.00    -0.322 N 
HETATM    2  C   UNL     1     -40.178 -49.824  13.051  1.00  0.00     0.122 A 
HETATM    3  C   UNL     1     -39.238 -50.836  13.290  1.00  0.00     0.140 A 
HETATM    4  N   UNL     1     -41.319 -50.042  13.807  1.00  0.00    -0.346 N 
ATOM      5  HN  UNL     1     -42.167 -49.476  13.827  1.00  0.00     0.167 HD
HETATM    6  C   UNL     1     -39.829 -48.809  12.122  1.00  0.00     0.135 A 
HETATM    7  C   UNL     1     -41.072 -51.136  14.494  1.00  0.00     0.185 A 
HETATM    8  N   UNL     1     -38.032 -50.973  12.715  1.00  0.00    -0.336 N 
ATOM      9  HN  UNL     1     -37.373 -51.722  12.927  1.00  0.00     0.168 HD
HETATM   10  N   UNL     1     -38.611 -48.960  11.512  1.00  0.00    -0.337 N 
ATOM     11  HN  UNL     1     -38.309 -48.281  10.813  1.00  0.00     0.168 HD
HETATM   12  C   UNL     1     -37.809 -49.995  11.826  1.00  0.00     0.183 A 
ENDROOT
BRANCH   6  13
HETATM   13  N   UNL     1     -40.554 -47.656  11.809  1.00  0.00    -0.360 N 
HETATM   14  C   UNL     1     -41.008 -46.700  12.848  1.00  0.00     0.164 C 
HETATM   15  C   UNL     1     -41.434 -45.347  12.178  1.00  0.00     0.098 C 
HETATM   16  O   UNL     1     -42.380 -45.590  11.101  1.00  0.00    -0.375 OA
HETATM   17  C   UNL     1     -42.173 -44.418  13.170  1.00  0.00     0.207 C 
HETATM   18  C   UNL     1     -40.210 -44.551  11.678  1.00  0.00     0.044 C 
HETATM   19  C   UNL     1     -41.879 -46.479  10.107  1.00  0.00     0.189 C 
HETATM   20  C   UNL     1     -41.520 -47.836  10.705  1.00  0.00     0.151 C 
HETATM   21  O   UNL     1     -42.594 -43.193  12.536  1.00  0.00    -0.388 OA
HETATM   22  C   UNL     1     -41.527 -42.437  11.969  1.00  0.00     0.167 C 
HETATM   23  C   UNL     1     -40.661 -43.252  11.016  1.00  0.00     0.029 C 
ENDBRANCH   6  13
BRANCH   1  24
HETATM   24  C   UNL     1     -39.285 -52.745  14.986  1.00  0.00     0.094 C 
HETATM   25  C   UNL     1     -39.729 -54.145  14.459  1.00  0.00     0.039 C 
HETATM   26  C   UNL     1     -39.618 -54.651  15.944  1.00  0.00     0.006 C 
HETATM   27  C   UNL     1     -40.005 -53.168  16.305  1.00  0.00     0.039 C 
BRANCH  26  28
HETATM   28  C   UNL     1     -40.648 -55.701  16.363  1.00  0.00     0.175 C 
BRANCH  28  29
HETATM   29  O   UNL     1     -39.984 -56.927  16.662  1.00  0.00    -0.400 OA
HETATM   30  H   UNL     1     -39.593 -57.250  15.830  1.00  0.00     0.209 HD
ENDBRANCH  28  29
ENDBRANCH  26  28
BRANCH  26  31
HETATM   31  C   UNL     1     -38.211 -55.054  16.424  1.00  0.00     0.175 C 
BRANCH  31  32
HETATM   32  O   UNL     1     -37.661 -56.045  15.564  1.00  0.00    -0.400 OA
HETATM   33  H   UNL     1     -38.404 -56.392  15.029  1.00  0.00     0.209 HD
ENDBRANCH  31  32
ENDBRANCH  26  31
ENDBRANCH   1  24
TORSDOF 6
ENDMDL
MODEL 7
REMARK VINA RESULT:      -6.1      1.801      2.232
REMARK  6 active torsions:
REMARK  status: ('A' for Active; 'I' for Inactive)
REMARK    1  A    between atoms: N_1  and  C_9 
REMARK    2  A    between atoms: C_6  and  N_8 
REMARK    3  A    between atoms: C_14  and  C_25 
REMARK    4  A    between atoms: C_14  and  C_26 
REMARK    5  A    between atoms: C_25  and  O_27 
REMARK    6  A    between atoms: C_26  and  O_28 
ROOT
HETATM    1  N   UNL     1     -43.007 -50.595  13.183  1.00  0.00    -0.322 N 
HETATM    2  C   UNL     1     -41.806 -48.776  12.950  1.00  0.00     0.122 A 
HETATM    3  C   UNL     1     -41.975 -50.074  12.451  1.00  0.00     0.140 A 
HETATM    4  N   UNL     1     -42.757 -48.507  13.921  1.00  0.00    -0.346 N 
ATOM      5  HN  UNL     1     -42.881 -47.641  14.445  1.00  0.00     0.167 HD
HETATM    6  C   UNL     1     -40.753 -47.994  12.403  1.00  0.00     0.135 A 
HETATM    7  C   UNL     1     -43.467 -49.610  14.020  1.00  0.00     0.185 A 
HETATM    8  N   UNL     1     -41.261 -50.669  11.482  1.00  0.00    -0.336 N 
ATOM      9  HN  UNL     1     -41.413 -51.623  11.155  1.00  0.00     0.168 HD
HETATM   10  N   UNL     1     -40.040 -48.587  11.395  1.00  0.00    -0.337 N 
ATOM     11  HN  UNL     1     -39.287 -48.072  10.939  1.00  0.00     0.168 HD
HETATM   12  C   UNL     1     -40.322 -49.843  11.000  1.00  0.00     0.183 A 
ENDROOT
BRANCH   6  13
HETATM   13  N   UNL     1     -40.333 -46.727  12.815  1.00  0.00    -0.360 N 
HETATM   14  C   UNL     1     -40.492 -45.524  11.963  1.00  0.00     0.164 C 
HETATM   15  C   UNL     1     -40.300 -44.228  12.827  1.00  0.00     0.098 C 
HETATM   16  O   UNL     1     -39.057 -44.299  13.577  1.00  0.00    -0.375 OA
HETATM   17  C   UNL     1     -40.177 -42.960  11.948  1.00  0.00     0.207 C 
HETATM   18  C   UNL     1     -41.504 -43.987  13.761  1.00  0.00     0.044 C 
HETATM   19  C   UNL     1     -38.974 -45.448  14.414  1.00  0.00     0.189 C 
HETATM   20  C   UNL     1     -39.082 -46.735  13.602  1.00  0.00     0.151 C 
HETATM   21  O   UNL     1     -39.964 -41.781  12.748  1.00  0.00    -0.388 OA
HETATM   22  C   UNL     1     -40.994 -41.532  13.703  1.00  0.00     0.167 C 
HETATM   23  C   UNL     1     -41.277 -42.731  14.599  1.00  0.00     0.029 C 
ENDBRANCH   6  13
BRANCH   1  24
HETATM   24  C   UNL     1     -43.554 -51.929  13.220  1.00  0.00     0.094 C 
HETATM   25  C   UNL     1     -44.356 -52.268  14.516  1.00  0.00     0.039 C 
HETATM   26  C   UNL     1     -43.892 -53.757  14.317  1.00  0.00     0.006 C 
HETATM   27  C   UNL     1     -42.621 -53.101  13.658  1.00  0.00     0.039 C 
BRANCH  26  28
HETATM   28  C   UNL     1     -43.614 -54.540  15.601  1.00  0.00     0.175 C 
BRANCH  28  29
HETATM   29  O   UNL     1     -43.344 -55.903  15.281  1.00  0.00    -0.400 OA
HETATM   30  H   UNL     1     -42.380 -55.983  15.162  1.00  0.00     0.209 HD
ENDBRANCH  28  29
ENDBRANCH  26  28
BRANCH  26  31
HETATM   31  C   UNL     1     -44.723 -54.607  13.337  1.00  0.00     0.175 C 
BRANCH  31  32
HETATM   32  O   UNL     1     -45.688 -55.375  14.046  1.00  0.00    -0.400 OA
HETATM   33  H   UNL     1     -45.418 -55.360  14.988  1.00  0.00     0.209 HD
ENDBRANCH  31  32
ENDBRANCH  26  31
ENDBRANCH   1  24
TORSDOF 6
ENDMDL
MODEL 8
REMARK VINA RESULT:      -6.0      3.033      9.237
REMARK  6 active torsions:
REMARK  status: ('A' for Active; 'I' for Inactive)
REMARK    1  A    between atoms: N_1  and  C_9 
REMARK    2  A    between atoms: C_6  and  N_8 
REMARK    3  A    between atoms: C_14  and  C_25 
REMARK    4  A    between atoms: C_14  and  C_26 
REMARK    5  A    between atoms: C_25  and  O_27 
REMARK    6  A    between atoms: C_26  and  O_28 
ROOT
HETATM    1  N   UNL     1     -41.674 -49.270  11.525  1.00  0.00    -0.322 N 
HETATM    2  C   UNL     1     -41.223 -51.002  12.792  1.00  0.00     0.122 A 
HETATM    3  C   UNL     1     -42.276 -50.209  12.316  1.00  0.00     0.140 A 
HETATM    4  N   UNL     1     -40.021 -50.580  12.246  1.00  0.00    -0.346 N 
ATOM      5  HN  UNL     1     -39.096 -50.977  12.403  1.00  0.00     0.167 HD
HETATM    6  C   UNL     1     -41.545 -52.050  13.694  1.00  0.00     0.135 A 
HETATM    7  C   UNL     1     -40.332 -49.556  11.482  1.00  0.00     0.185 A 
HETATM    8  N   UNL     1     -43.582 -50.342  12.601  1.00  0.00    -0.336 N 
ATOM      9  HN  UNL     1     -44.316 -49.734  12.239  1.00  0.00     0.168 HD
HETATM   10  N   UNL     1     -42.879 -52.207  13.966  1.00  0.00    -0.337 N 
ATOM     11  HN  UNL     1     -43.184 -52.958  14.584  1.00  0.00     0.168 HD
HETATM   12  C   UNL     1     -43.792 -51.379  13.423  1.00  0.00     0.183 A 
ENDROOT
BRANCH   6  13
HETATM   13  N   UNL     1     -40.659 -52.891  14.373  1.00  0.00    -0.360 N 
HETATM   14  C   UNL     1     -39.922 -52.452  15.583  1.00  0.00     0.164 C 
HETATM   15  C   UNL     1     -39.331 -53.699  16.329  1.00  0.00     0.098 C 
HETATM   16  O   UNL     1     -38.574 -54.530  15.407  1.00  0.00    -0.375 OA
HETATM   17  C   UNL     1     -38.326 -53.291  17.432  1.00  0.00     0.207 C 
HETATM   18  C   UNL     1     -40.435 -54.513  17.036  1.00  0.00     0.044 C 
HETATM   19  C   UNL     1     -39.339 -54.961  14.286  1.00  0.00     0.189 C 
HETATM   20  C   UNL     1     -39.873 -53.776  13.488  1.00  0.00     0.151 C 
HETATM   21  O   UNL     1     -37.760 -54.444  18.087  1.00  0.00    -0.388 OA
HETATM   22  C   UNL     1     -38.726 -55.299  18.695  1.00  0.00     0.167 C 
HETATM   23  C   UNL     1     -39.829 -55.727  17.735  1.00  0.00     0.029 C 
ENDBRANCH   6  13
BRANCH   1  24
HETATM   24  C   UNL     1     -42.216 -48.108  10.865  1.00  0.00     0.094 C 
HETATM   25  C   UNL     1     -41.206 -46.931  10.684  1.00  0.00     0.039 C 
HETATM   26  C   UNL     1     -42.441 -45.963  10.791  1.00  0.00     0.006 C 
HETATM   27  C   UNL     1     -43.038 -47.089  11.715  1.00  0.00     0.039 C 
BRANCH  26  28
HETATM   28  C   UNL     1     -42.176 -44.631  11.495  1.00  0.00     0.175 C 
BRANCH  28  29
HETATM   29  O   UNL     1     -41.421 -43.779  10.636  1.00  0.00    -0.400 OA
HETATM   30  H   UNL     1     -42.036 -43.435   9.963  1.00  0.00     0.209 HD
ENDBRANCH  28  29
ENDBRANCH  26  28
BRANCH  26  31
HETATM   31  C   UNL     1     -43.246 -45.738   9.497  1.00  0.00     0.175 C 
BRANCH  31  32
HETATM   32  O   UNL     1     -43.857 -44.453   9.514  1.00  0.00    -0.400 OA
HETATM   33  H   UNL     1     -44.825 -44.604   9.514  1.00  0.00     0.209 HD
ENDBRANCH  31  32
ENDBRANCH  26  31
ENDBRANCH   1  24
TORSDOF 6
ENDMDL
MODEL 9
REMARK VINA RESULT:      -6.0      3.437      9.649
REMARK  6 active torsions:
REMARK  status: ('A' for Active; 'I' for Inactive)
REMARK    1  A    between atoms: N_1  and  C_9 
REMARK    2  A    between atoms: C_6  and  N_8 
REMARK    3  A    between atoms: C_14  and  C_25 
REMARK    4  A    between atoms: C_14  and  C_26 
REMARK    5  A    between atoms: C_25  and  O_27 
REMARK    6  A    between atoms: C_26  and  O_28 
ROOT
HETATM    1  N   UNL     1     -41.559 -50.506  12.588  1.00  0.00    -0.322 N 
HETATM    2  C   UNL     1     -41.268 -52.316  13.792  1.00  0.00     0.122 A 
HETATM    3  C   UNL     1     -42.094 -51.744  12.815  1.00  0.00     0.140 A 
HETATM    4  N   UNL     1     -40.225 -51.456  14.098  1.00  0.00    -0.346 N 
ATOM      5  HN  UNL     1     -39.467 -51.613  14.762  1.00  0.00     0.167 HD
HETATM    6  C   UNL     1     -41.613 -53.607  14.271  1.00  0.00     0.135 A 
HETATM    7  C   UNL     1     -40.422 -50.395  13.348  1.00  0.00     0.185 A 
HETATM    8  N   UNL     1     -43.181 -52.296  12.250  1.00  0.00    -0.336 N 
ATOM      9  HN  UNL     1     -43.761 -51.839  11.547  1.00  0.00     0.168 HD
HETATM   10  N   UNL     1     -42.704 -54.185  13.678  1.00  0.00    -0.337 N 
ATOM     11  HN  UNL     1     -42.992 -55.124  13.955  1.00  0.00     0.168 HD
HETATM   12  C   UNL     1     -43.402 -53.526  12.733  1.00  0.00     0.183 A 
ENDROOT
BRANCH   6  13
HETATM   13  N   UNL     1     -41.005 -54.320  15.308  1.00  0.00    -0.360 N 
HETATM   14  C   UNL     1     -39.590 -54.758  15.244  1.00  0.00     0.164 C 
HETATM   15  C   UNL     1     -39.093 -55.170  16.674  1.00  0.00     0.098 C 
HETATM   16  O   UNL     1     -40.012 -56.122  17.274  1.00  0.00    -0.375 OA
HETATM   17  C   UNL     1     -37.726 -55.894  16.626  1.00  0.00     0.207 C 
HETATM   18  C   UNL     1     -38.893 -53.938  17.582  1.00  0.00     0.044 C 
HETATM   19  C   UNL     1     -41.349 -55.636  17.353  1.00  0.00     0.189 C 
HETATM   20  C   UNL     1     -41.897 -55.292  15.972  1.00  0.00     0.151 C 
HETATM   21  O   UNL     1     -37.296 -56.301  17.940  1.00  0.00    -0.388 OA
HETATM   22  C   UNL     1     -37.170 -55.227  18.869  1.00  0.00     0.167 C 
HETATM   23  C   UNL     1     -38.429 -54.376  18.968  1.00  0.00     0.029 C 
ENDBRANCH   6  13
BRANCH   1  24
HETATM   24  C   UNL     1     -42.039 -49.406  11.787  1.00  0.00     0.094 C 
HETATM   25  C   UNL     1     -41.052 -48.931  10.675  1.00  0.00     0.039 C 
HETATM   26  C   UNL     1     -41.661 -47.493  10.861  1.00  0.00     0.006 C 
HETATM   27  C   UNL     1     -41.884 -47.958  12.349  1.00  0.00     0.039 C 
BRANCH  26  28
HETATM   28  C   UNL     1     -40.679 -46.333  10.694  1.00  0.00     0.175 C 
BRANCH  28  29
HETATM   29  O   UNL     1     -41.206 -45.393   9.760  1.00  0.00    -0.400 OA
HETATM   30  H   UNL     1     -40.757 -44.544   9.925  1.00  0.00     0.209 HD
ENDBRANCH  28  29
ENDBRANCH  26  28
BRANCH  26  31
HETATM   31  C   UNL     1     -42.972 -47.204  10.105  1.00  0.00     0.175 C 
BRANCH  31  32
HETATM   32  O   UNL     1     -42.781 -47.372   8.705  1.00  0.00    -0.400 OA
HETATM   33  H   UNL     1     -42.951 -48.318   8.513  1.00  0.00     0.209 HD
ENDBRANCH  31  32
ENDBRANCH  26  31
ENDBRANCH   1  24
TORSDOF 6
ENDMDL
