MODEL 1
REMARK VINA RESULT:      -5.1      0.000      0.000
REMARK  8 active torsions:
REMARK  status: ('A' for Active; 'I' for Inactive)
REMARK    1  A    between atoms: C_2  and  C_3 
REMARK    2  A    between atoms: C_2  and  N_11 
REMARK    3  A    between atoms: C_3  and  N_4 
REMARK    4  A    between atoms: N_11  and  C_12 
REMARK    5  A    between atoms: C_12  and  C_13 
REMARK    6  A    between atoms: C_13  and  C_14 
REMARK    7  A    between atoms: C_14  and  S_15 
REMARK    8  A    between atoms: S_15  and  N_18 
ROOT
HETATM    1  N   UNL     1     -40.778 -48.644  12.297  1.00  0.00     0.089 N 
HETATM    2  H   UNL     1     -40.141 -48.793  11.514  1.00  0.00     0.316 HD
ENDROOT
BRANCH   1   3
HETATM    3  C   UNL     1     -41.887 -47.755  11.871  1.00  0.00     0.236 C 
HETATM    4  C   UNL     1     -41.962 -46.499  12.749  1.00  0.00     0.044 C 
BRANCH   3   5
HETATM    5  C   UNL     1     -41.703 -47.388  10.380  1.00  0.00     0.183 C 
BRANCH   5   6
HETATM    6  N   UNL     1     -42.935 -47.486   9.616  1.00  0.00    -0.301 N 
HETATM    7  C   UNL     1     -44.201 -47.253  10.072  1.00  0.00     0.118 A 
HETATM    8  C   UNL     1     -45.053 -47.556   9.031  1.00  0.00    -0.028 A 
HETATM    9  C   UNL     1     -46.530 -47.495   9.006  1.00  0.00     0.051 C 
HETATM   10  C   UNL     1     -44.189 -47.946   7.984  1.00  0.00     0.115 A 
HETATM   11  N   UNL     1     -42.902 -47.895   8.333  1.00  0.00    -0.310 N 
ATOM     12  HN  UNL     1     -42.085 -48.114   7.762  1.00  0.00     0.186 HD
ENDBRANCH   5   6
ENDBRANCH   3   5
ENDBRANCH   1   3
BRANCH   1  13
HETATM   13  C   UNL     1     -40.001 -48.159  13.443  1.00  0.00     0.271 C 
BRANCH  13  14
HETATM   14  C   UNL     1     -39.214 -49.241  14.181  1.00  0.00     0.046 C 
BRANCH  14  15
HETATM   15  C   UNL     1     -37.877 -49.523  13.510  1.00  0.00     0.159 C 
BRANCH  15  16
HETATM   16  S   UNL     1     -38.004 -50.845  12.320  1.00  0.00     0.207 S 
HETATM   17  O   UNL     1     -36.766 -51.592  12.304  1.00  0.00    -0.212 OA
HETATM   18  O   UNL     1     -39.288 -51.491  12.438  1.00  0.00    -0.212 OA
BRANCH  16  19
HETATM   19  N   UNL     1     -38.036 -49.979  10.892  1.00  0.00    -0.229 NA
HETATM   20  H   UNL     1     -38.867 -50.175  10.335  1.00  0.00     0.136 HD
HETATM   21  H   UNL     1     -37.807 -48.996  11.021  1.00  0.00     0.136 HD
ENDBRANCH  16  19
ENDBRANCH  15  16
ENDBRANCH  14  15
ENDBRANCH  13  14
ENDBRANCH   1  13
TORSDOF 8
ENDMDL
MODEL 2
REMARK VINA RESULT:      -5.0      4.767      7.117
REMARK  8 active torsions:
REMARK  status: ('A' for Active; 'I' for Inactive)
REMARK    1  A    between atoms: C_2  and  C_3 
REMARK    2  A    between atoms: C_2  and  N_11 
REMARK    3  A    between atoms: C_3  and  N_4 
REMARK    4  A    between atoms: N_11  and  C_12 
REMARK    5  A    between atoms: C_12  and  C_13 
REMARK    6  A    between atoms: C_13  and  C_14 
REMARK    7  A    between atoms: C_14  and  S_15 
REMARK    8  A    between atoms: S_15  and  N_18 
ROOT
HETATM    1  N   UNL     1     -41.516 -48.596   9.850  1.00  0.00     0.089 N 
HETATM    2  H   UNL     1     -42.017 -49.368   9.409  1.00  0.00     0.316 HD
ENDROOT
BRANCH   1   3
HETATM    3  C   UNL     1     -40.848 -49.080  11.083  1.00  0.00     0.236 C 
HETATM    4  C   UNL     1     -40.118 -47.939  11.805  1.00  0.00     0.044 C 
BRANCH   3   5
HETATM    5  C   UNL     1     -41.895 -49.747  12.004  1.00  0.00     0.183 C 
BRANCH   5   6
HETATM    6  N   UNL     1     -41.539 -51.106  12.377  1.00  0.00    -0.301 N 
HETATM    7  C   UNL     1     -41.407 -51.597  13.645  1.00  0.00     0.118 A 
HETATM    8  C   UNL     1     -40.971 -52.898  13.516  1.00  0.00    -0.028 A 
HETATM    9  C   UNL     1     -40.654 -53.871  14.584  1.00  0.00     0.051 C 
HETATM   10  C   UNL     1     -40.890 -53.095  12.119  1.00  0.00     0.115 A 
HETATM   11  N   UNL     1     -41.244 -52.012  11.425  1.00  0.00    -0.310 N 
ATOM     12  HN  UNL     1     -41.283 -51.897  10.412  1.00  0.00     0.186 HD
ENDBRANCH   5   6
ENDBRANCH   3   5
ENDBRANCH   1   3
BRANCH   1  13
HETATM   13  C   UNL     1     -42.455 -47.486  10.050  1.00  0.00     0.271 C 
BRANCH  13  14
HETATM   14  C   UNL     1     -43.644 -47.481   9.090  1.00  0.00     0.046 C 
BRANCH  14  15
HETATM   15  C   UNL     1     -44.968 -47.620   9.830  1.00  0.00     0.159 C 
BRANCH  15  16
HETATM   16  S   UNL     1     -46.273 -48.167   8.745  1.00  0.00     0.207 S 
HETATM   17  O   UNL     1     -47.353 -47.205   8.776  1.00  0.00    -0.212 OA
HETATM   18  O   UNL     1     -45.713 -48.652   7.507  1.00  0.00    -0.212 OA
BRANCH  16  19
HETATM   19  N   UNL     1     -46.828 -49.507   9.573  1.00  0.00    -0.229 NA
HETATM   20  H   UNL     1     -47.128 -49.283  10.521  1.00  0.00     0.136 HD
HETATM   21  H   UNL     1     -47.471 -50.073   9.023  1.00  0.00     0.136 HD
ENDBRANCH  16  19
ENDBRANCH  15  16
ENDBRANCH  14  15
ENDBRANCH  13  14
ENDBRANCH   1  13
TORSDOF 8
ENDMDL
MODEL 3
REMARK VINA RESULT:      -5.0      4.611      5.901
REMARK  8 active torsions:
REMARK  status: ('A' for Active; 'I' for Inactive)
REMARK    1  A    between atoms: C_2  and  C_3 
REMARK    2  A    between atoms: C_2  and  N_11 
REMARK    3  A    between atoms: C_3  and  N_4 
REMARK    4  A    between atoms: N_11  and  C_12 
REMARK    5  A    between atoms: C_12  and  C_13 
REMARK    6  A    between atoms: C_13  and  C_14 
REMARK    7  A    between atoms: C_14  and  S_15 
REMARK    8  A    between atoms: S_15  and  N_18 
ROOT
HETATM    1  N   UNL     1     -41.619 -49.315  10.826  1.00  0.00     0.089 N 
HETATM    2  H   UNL     1     -42.629 -49.361  10.966  1.00  0.00     0.316 HD
ENDROOT
BRANCH   1   3
HETATM    3  C   UNL     1     -40.958 -50.360  11.648  1.00  0.00     0.236 C 
HETATM    4  C   UNL     1     -39.452 -50.097  11.775  1.00  0.00     0.044 C 
BRANCH   3   5
HETATM    5  C   UNL     1     -41.636 -50.423  13.036  1.00  0.00     0.183 C 
BRANCH   5   6
HETATM    6  N   UNL     1     -42.948 -51.047  12.999  1.00  0.00    -0.301 N 
HETATM    7  C   UNL     1     -44.100 -50.562  13.551  1.00  0.00     0.118 A 
HETATM    8  C   UNL     1     -45.065 -51.525  13.349  1.00  0.00    -0.028 A 
HETATM    9  C   UNL     1     -46.483 -51.507  13.769  1.00  0.00     0.051 C 
HETATM   10  C   UNL     1     -44.388 -52.546  12.645  1.00  0.00     0.115 A 
HETATM   11  N   UNL     1     -43.105 -52.254  12.423  1.00  0.00    -0.310 N 
ATOM     12  HN  UNL     1     -42.407 -52.813  11.931  1.00  0.00     0.186 HD
ENDBRANCH   5   6
ENDBRANCH   3   5
ENDBRANCH   1   3
BRANCH   1  13
HETATM   13  C   UNL     1     -41.175 -47.943  11.095  1.00  0.00     0.271 C 
BRANCH  13  14
HETATM   14  C   UNL     1     -42.284 -46.894  11.035  1.00  0.00     0.046 C 
BRANCH  14  15
HETATM   15  C   UNL     1     -43.602 -47.493  10.564  1.00  0.00     0.159 C 
BRANCH  15  16
HETATM   16  S   UNL     1     -43.968 -47.035   8.879  1.00  0.00     0.207 S 
HETATM   17  O   UNL     1     -45.321 -47.434   8.560  1.00  0.00    -0.212 OA
HETATM   18  O   UNL     1     -43.478 -45.704   8.614  1.00  0.00    -0.212 OA
BRANCH  16  19
HETATM   19  N   UNL     1     -42.971 -48.084   8.046  1.00  0.00    -0.229 NA
HETATM   20  H   UNL     1     -43.253 -49.058   8.151  1.00  0.00     0.136 HD
HETATM   21  H   UNL     1     -42.780 -47.775   7.094  1.00  0.00     0.136 HD
ENDBRANCH  16  19
ENDBRANCH  15  16
ENDBRANCH  14  15
ENDBRANCH  13  14
ENDBRANCH   1  13
TORSDOF 8
ENDMDL
MODEL 4
REMARK VINA RESULT:      -5.0      1.858      2.027
REMARK  8 active torsions:
REMARK  status: ('A' for Active; 'I' for Inactive)
REMARK    1  A    between atoms: C_2  and  C_3 
REMARK    2  A    between atoms: C_2  and  N_11 
REMARK    3  A    between atoms: C_3  and  N_4 
REMARK    4  A    between atoms: N_11  and  C_12 
REMARK    5  A    between atoms: C_12  and  C_13 
REMARK    6  A    between atoms: C_13  and  C_14 
REMARK    7  A    between atoms: C_14  and  S_15 
REMARK    8  A    between atoms: S_15  and  N_18 
ROOT
HETATM    1  N   UNL     1     -41.584 -48.340  12.989  1.00  0.00     0.089 N 
HETATM    2  H   UNL     1     -42.043 -49.200  12.686  1.00  0.00     0.316 HD
ENDROOT
BRANCH   1   3
HETATM    3  C   UNL     1     -41.595 -47.355  11.879  1.00  0.00     0.236 C 
HETATM    4  C   UNL     1     -40.390 -46.409  11.963  1.00  0.00     0.044 C 
BRANCH   3   5
HETATM    5  C   UNL     1     -41.623 -48.108  10.529  1.00  0.00     0.183 C 
BRANCH   5   6
HETATM    6  N   UNL     1     -42.822 -47.838   9.753  1.00  0.00    -0.301 N 
HETATM    7  C   UNL     1     -44.044 -47.468  10.239  1.00  0.00     0.118 A 
HETATM    8  C   UNL     1     -44.895 -47.413   9.155  1.00  0.00    -0.028 A 
HETATM    9  C   UNL     1     -46.335 -47.080   9.135  1.00  0.00     0.051 C 
HETATM   10  C   UNL     1     -44.072 -47.752   8.058  1.00  0.00     0.115 A 
HETATM   11  N   UNL     1     -42.812 -48.001   8.416  1.00  0.00    -0.310 N 
ATOM     12  HN  UNL     1     -42.025 -48.255   7.819  1.00  0.00     0.186 HD
ENDBRANCH   5   6
ENDBRANCH   3   5
ENDBRANCH   1   3
BRANCH   1  13
HETATM   13  C   UNL     1     -40.252 -48.679  13.503  1.00  0.00     0.271 C 
BRANCH  13  14
HETATM   14  C   UNL     1     -39.875 -50.153  13.361  1.00  0.00     0.046 C 
BRANCH  14  15
HETATM   15  C   UNL     1     -41.068 -51.003  12.946  1.00  0.00     0.159 C 
BRANCH  15  16
HETATM   16  S   UNL     1     -40.679 -52.744  12.985  1.00  0.00     0.207 S 
HETATM   17  O   UNL     1     -39.312 -52.917  13.421  1.00  0.00    -0.212 OA
HETATM   18  O   UNL     1     -41.772 -53.479  13.574  1.00  0.00    -0.212 OA
BRANCH  16  19
HETATM   19  N   UNL     1     -40.690 -53.103  11.353  1.00  0.00    -0.229 NA
HETATM   20  H   UNL     1     -40.721 -52.268  10.770  1.00  0.00     0.136 HD
HETATM   21  H   UNL     1     -39.994 -53.800  11.098  1.00  0.00     0.136 HD
ENDBRANCH  16  19
ENDBRANCH  15  16
ENDBRANCH  14  15
ENDBRANCH  13  14
ENDBRANCH   1  13
TORSDOF 8
ENDMDL
MODEL 5
REMARK VINA RESULT:      -4.8      4.928      6.570
REMARK  8 active torsions:
REMARK  status: ('A' for Active; 'I' for Inactive)
REMARK    1  A    between atoms: C_2  and  C_3 
REMARK    2  A    between atoms: C_2  and  N_11 
REMARK    3  A    between atoms: C_3  and  N_4 
REMARK    4  A    between atoms: N_11  and  C_12 
REMARK    5  A    between atoms: C_12  and  C_13 
REMARK    6  A    between atoms: C_13  and  C_14 
REMARK    7  A    between atoms: C_14  and  S_15 
REMARK    8  A    between atoms: S_15  and  N_18 
ROOT
HETATM    1  N   UNL     1     -44.277 -50.920  12.727  1.00  0.00     0.089 N 
HETATM    2  H   UNL     1     -44.726 -50.250  12.102  1.00  0.00     0.316 HD
ENDROOT
BRANCH   1   3
HETATM    3  C   UNL     1     -45.239 -51.994  13.077  1.00  0.00     0.236 C 
HETATM    4  C   UNL     1     -46.651 -51.661  12.576  1.00  0.00     0.044 C 
BRANCH   3   5
HETATM    5  C   UNL     1     -44.740 -53.337  12.495  1.00  0.00     0.183 C 
BRANCH   5   6
HETATM    6  N   UNL     1     -43.709 -53.959  13.308  1.00  0.00    -0.301 N 
HETATM    7  C   UNL     1     -43.883 -54.591  14.507  1.00  0.00     0.118 A 
HETATM    8  C   UNL     1     -42.625 -54.940  14.951  1.00  0.00    -0.028 A 
HETATM    9  C   UNL     1     -42.252 -55.628  16.205  1.00  0.00     0.051 C 
HETATM   10  C   UNL     1     -41.763 -54.484  13.928  1.00  0.00     0.115 A 
HETATM   11  N   UNL     1     -42.419 -53.897  12.926  1.00  0.00    -0.310 N 
ATOM     12  HN  UNL     1     -42.034 -53.495  12.070  1.00  0.00     0.186 HD
ENDBRANCH   5   6
ENDBRANCH   3   5
ENDBRANCH   1   3
BRANCH   1  13
HETATM   13  C   UNL     1     -43.723 -50.188  13.872  1.00  0.00     0.271 C 
BRANCH  13  14
HETATM   14  C   UNL     1     -42.736 -49.083  13.501  1.00  0.00     0.046 C 
BRANCH  14  15
HETATM   15  C   UNL     1     -42.308 -49.176  12.043  1.00  0.00     0.159 C 
BRANCH  15  16
HETATM   16  S   UNL     1     -40.855 -50.192  11.847  1.00  0.00     0.207 S 
HETATM   17  O   UNL     1     -39.788 -49.660  12.665  1.00  0.00    -0.212 OA
HETATM   18  O   UNL     1     -41.222 -51.587  11.878  1.00  0.00    -0.212 OA
BRANCH  16  19
HETATM   19  N   UNL     1     -40.440 -49.844  10.267  1.00  0.00    -0.229 NA
HETATM   20  H   UNL     1     -41.208 -49.425   9.745  1.00  0.00     0.136 HD
HETATM   21  H   UNL     1     -39.539 -49.375  10.189  1.00  0.00     0.136 HD
ENDBRANCH  16  19
ENDBRANCH  15  16
ENDBRANCH  14  15
ENDBRANCH  13  14
ENDBRANCH   1  13
TORSDOF 8
ENDMDL
MODEL 6
REMARK VINA RESULT:      -4.8      4.145      6.907
REMARK  8 active torsions:
REMARK  status: ('A' for Active; 'I' for Inactive)
REMARK    1  A    between atoms: C_2  and  C_3 
REMARK    2  A    between atoms: C_2  and  N_11 
REMARK    3  A    between atoms: C_3  and  N_4 
REMARK    4  A    between atoms: N_11  and  C_12 
REMARK    5  A    between atoms: C_12  and  C_13 
REMARK    6  A    between atoms: C_13  and  C_14 
REMARK    7  A    between atoms: C_14  and  S_15 
REMARK    8  A    between atoms: S_15  and  N_18 
ROOT
HETATM    1  N   UNL     1     -39.401 -48.107  11.321  1.00  0.00     0.089 N 
HETATM    2  H   UNL     1     -39.244 -47.915  10.330  1.00  0.00     0.316 HD
ENDROOT
BRANCH   1   3
HETATM    3  C   UNL     1     -39.106 -49.535  11.600  1.00  0.00     0.236 C 
HETATM    4  C   UNL     1     -37.626 -49.856  11.355  1.00  0.00     0.044 C 
BRANCH   3   5
HETATM    5  C   UNL     1     -39.519 -49.867  13.052  1.00  0.00     0.183 C 
BRANCH   5   6
HETATM    6  N   UNL     1     -39.788 -51.280  13.256  1.00  0.00    -0.301 N 
HETATM    7  C   UNL     1     -39.101 -52.134  14.072  1.00  0.00     0.118 A 
HETATM    8  C   UNL     1     -39.647 -53.385  13.877  1.00  0.00    -0.028 A 
HETATM    9  C   UNL     1     -39.255 -54.666  14.503  1.00  0.00     0.051 C 
HETATM   10  C   UNL     1     -40.675 -53.165  12.933  1.00  0.00     0.115 A 
HETATM   11  N   UNL     1     -40.769 -51.888  12.562  1.00  0.00    -0.310 N 
ATOM     12  HN  UNL     1     -41.429 -51.469  11.906  1.00  0.00     0.186 HD
ENDBRANCH   5   6
ENDBRANCH   3   5
ENDBRANCH   1   3
BRANCH   1  13
HETATM   13  C   UNL     1     -40.760 -47.676  11.668  1.00  0.00     0.271 C 
BRANCH  13  14
HETATM   14  C   UNL     1     -41.538 -47.041  10.517  1.00  0.00     0.046 C 
BRANCH  14  15
HETATM   15  C   UNL     1     -42.612 -47.976   9.977  1.00  0.00     0.159 C 
BRANCH  15  16
HETATM   16  S   UNL     1     -43.525 -47.227   8.641  1.00  0.00     0.207 S 
HETATM   17  O   UNL     1     -44.928 -47.544   8.786  1.00  0.00    -0.212 OA
HETATM   18  O   UNL     1     -43.061 -45.878   8.423  1.00  0.00    -0.212 OA
BRANCH  16  19
HETATM   19  N   UNL     1     -42.982 -48.131   7.345  1.00  0.00    -0.229 NA
HETATM   20  H   UNL     1     -43.722 -48.686   6.918  1.00  0.00     0.136 HD
HETATM   21  H   UNL     1     -42.401 -47.594   6.704  1.00  0.00     0.136 HD
ENDBRANCH  16  19
ENDBRANCH  15  16
ENDBRANCH  14  15
ENDBRANCH  13  14
ENDBRANCH   1  13
TORSDOF 8
ENDMDL
MODEL 7
REMARK VINA RESULT:      -4.8      3.079      4.225
REMARK  8 active torsions:
REMARK  status: ('A' for Active; 'I' for Inactive)
REMARK    1  A    between atoms: C_2  and  C_3 
REMARK    2  A    between atoms: C_2  and  N_11 
REMARK    3  A    between atoms: C_3  and  N_4 
REMARK    4  A    between atoms: N_11  and  C_12 
REMARK    5  A    between atoms: C_12  and  C_13 
REMARK    6  A    between atoms: C_13  and  C_14 
REMARK    7  A    between atoms: C_14  and  S_15 
REMARK    8  A    between atoms: S_15  and  N_18 
ROOT
HETATM    1  N   UNL     1     -41.683 -49.746  11.212  1.00  0.00     0.089 N 
HETATM    2  H   UNL     1     -41.159 -50.326  10.556  1.00  0.00     0.316 HD
ENDROOT
BRANCH   1   3
HETATM    3  C   UNL     1     -41.590 -48.324  10.798  1.00  0.00     0.236 C 
HETATM    4  C   UNL     1     -42.982 -47.698  10.641  1.00  0.00     0.044 C 
BRANCH   3   5
HETATM    5  C   UNL     1     -40.739 -47.547  11.828  1.00  0.00     0.183 C 
BRANCH   5   6
HETATM    6  N   UNL     1     -40.444 -46.186  11.411  1.00  0.00    -0.301 N 
HETATM    7  C   UNL     1     -40.835 -45.036  12.035  1.00  0.00     0.118 A 
HETATM    8  C   UNL     1     -40.410 -43.995  11.238  1.00  0.00    -0.028 A 
HETATM    9  C   UNL     1     -40.594 -42.543  11.448  1.00  0.00     0.051 C 
HETATM   10  C   UNL     1     -39.753 -44.634  10.163  1.00  0.00     0.115 A 
HETATM   11  N   UNL     1     -39.764 -45.964  10.270  1.00  0.00    -0.310 N 
ATOM     12  HN  UNL     1     -39.353 -46.650   9.637  1.00  0.00     0.186 HD
ENDBRANCH   5   6
ENDBRANCH   3   5
ENDBRANCH   1   3
BRANCH   1  13
HETATM   13  C   UNL     1     -41.202 -50.029  12.569  1.00  0.00     0.271 C 
BRANCH  13  14
HETATM   14  C   UNL     1     -41.813 -51.272  13.212  1.00  0.00     0.046 C 
BRANCH  14  15
HETATM   15  C   UNL     1     -40.760 -52.121  13.912  1.00  0.00     0.159 C 
BRANCH  15  16
HETATM   16  S   UNL     1     -40.652 -53.752  13.199  1.00  0.00     0.207 S 
HETATM   17  O   UNL     1     -39.357 -54.320  13.503  1.00  0.00    -0.212 OA
HETATM   18  O   UNL     1     -41.879 -54.474  13.432  1.00  0.00    -0.212 OA
BRANCH  16  19
HETATM   19  N   UNL     1     -40.620 -53.381  11.571  1.00  0.00    -0.229 NA
HETATM   20  H   UNL     1     -41.553 -53.254  11.181  1.00  0.00     0.136 HD
HETATM   21  H   UNL     1     -39.939 -52.658  11.344  1.00  0.00     0.136 HD
ENDBRANCH  16  19
ENDBRANCH  15  16
ENDBRANCH  14  15
ENDBRANCH  13  14
ENDBRANCH   1  13
TORSDOF 8
ENDMDL
MODEL 8
REMARK VINA RESULT:      -4.5      5.273      7.083
REMARK  8 active torsions:
REMARK  status: ('A' for Active; 'I' for Inactive)
REMARK    1  A    between atoms: C_2  and  C_3 
REMARK    2  A    between atoms: C_2  and  N_11 
REMARK    3  A    between atoms: C_3  and  N_4 
REMARK    4  A    between atoms: N_11  and  C_12 
REMARK    5  A    between atoms: C_12  and  C_13 
REMARK    6  A    between atoms: C_13  and  C_14 
REMARK    7  A    between atoms: C_14  and  S_15 
REMARK    8  A    between atoms: S_15  and  N_18 
ROOT
HETATM    1  N   UNL     1     -41.367 -53.464  15.033  1.00  0.00     0.089 N 
HETATM    2  H   UNL     1     -42.124 -52.833  14.768  1.00  0.00     0.316 HD
ENDROOT
BRANCH   1   3
HETATM    3  C   UNL     1     -40.225 -53.285  14.103  1.00  0.00     0.236 C 
HETATM    4  C   UNL     1     -39.355 -54.548  14.041  1.00  0.00     0.044 C 
BRANCH   3   5
HETATM    5  C   UNL     1     -40.760 -52.903  12.704  1.00  0.00     0.183 C 
BRANCH   5   6
HETATM    6  N   UNL     1     -40.413 -51.546  12.316  1.00  0.00    -0.301 N 
HETATM    7  C   UNL     1     -39.681 -50.650  13.041  1.00  0.00     0.118 A 
HETATM    8  C   UNL     1     -39.686 -49.471  12.326  1.00  0.00    -0.028 A 
HETATM    9  C   UNL     1     -39.056 -48.181  12.678  1.00  0.00     0.051 C 
HETATM   10  C   UNL     1     -40.439 -49.776  11.170  1.00  0.00     0.115 A 
HETATM   11  N   UNL     1     -40.873 -51.038  11.156  1.00  0.00    -0.310 N 
ATOM     12  HN  UNL     1     -41.424 -51.507  10.437  1.00  0.00     0.186 HD
ENDBRANCH   5   6
ENDBRANCH   3   5
ENDBRANCH   1   3
BRANCH   1  13
HETATM   13  C   UNL     1     -41.903 -54.829  15.100  1.00  0.00     0.271 C 
BRANCH  13  14
HETATM   14  C   UNL     1     -43.429 -54.912  15.104  1.00  0.00     0.046 C 
BRANCH  14  15
HETATM   15  C   UNL     1     -44.067 -53.572  14.761  1.00  0.00     0.159 C 
BRANCH  15  16
HETATM   16  S   UNL     1     -45.187 -53.713  13.379  1.00  0.00     0.207 S 
HETATM   17  O   UNL     1     -46.318 -52.839  13.592  1.00  0.00    -0.212 OA
HETATM   18  O   UNL     1     -44.444 -53.719  12.142  1.00  0.00    -0.212 OA
BRANCH  16  19
HETATM   19  N   UNL     1     -45.760 -55.267  13.598  1.00  0.00    -0.229 NA
HETATM   20  H   UNL     1     -46.537 -55.487  12.976  1.00  0.00     0.136 HD
HETATM   21  H   UNL     1     -45.015 -55.960  13.644  1.00  0.00     0.136 HD
ENDBRANCH  16  19
ENDBRANCH  15  16
ENDBRANCH  14  15
ENDBRANCH  13  14
ENDBRANCH   1  13
TORSDOF 8
ENDMDL
MODEL 9
REMARK VINA RESULT:      -4.5      5.967      6.918
REMARK  8 active torsions:
REMARK  status: ('A' for Active; 'I' for Inactive)
REMARK    1  A    between atoms: C_2  and  C_3 
REMARK    2  A    between atoms: C_2  and  N_11 
REMARK    3  A    between atoms: C_3  and  N_4 
REMARK    4  A    between atoms: N_11  and  C_12 
REMARK    5  A    between atoms: C_12  and  C_13 
REMARK    6  A    between atoms: C_13  and  C_14 
REMARK    7  A    between atoms: C_14  and  S_15 
REMARK    8  A    between atoms: S_15  and  N_18 
ROOT
HETATM    1  N   UNL     1     -44.687 -52.427  12.344  1.00  0.00     0.089 N 
HETATM    2  H   UNL     1     -44.341 -51.853  11.574  1.00  0.00     0.316 HD
ENDROOT
BRANCH   1   3
HETATM    3  C   UNL     1     -45.899 -51.796  12.924  1.00  0.00     0.236 C 
HETATM    4  C   UNL     1     -47.028 -51.704  11.889  1.00  0.00     0.044 C 
BRANCH   3   5
HETATM    5  C   UNL     1     -46.345 -52.596  14.170  1.00  0.00     0.183 C 
BRANCH   5   6
HETATM    6  N   UNL     1     -46.483 -51.768  15.356  1.00  0.00    -0.301 N 
HETATM    7  C   UNL     1     -45.521 -50.979  15.919  1.00  0.00     0.118 A 
HETATM    8  C   UNL     1     -46.069 -50.456  17.071  1.00  0.00    -0.028 A 
HETATM    9  C   UNL     1     -45.441 -49.555  18.060  1.00  0.00     0.051 C 
HETATM   10  C   UNL     1     -47.380 -50.984  17.096  1.00  0.00     0.115 A 
HETATM   11  N   UNL     1     -47.637 -51.772  16.051  1.00  0.00    -0.310 N 
ATOM     12  HN  UNL     1     -48.504 -52.263  15.830  1.00  0.00     0.186 HD
ENDBRANCH   5   6
ENDBRANCH   3   5
ENDBRANCH   1   3
BRANCH   1  13
HETATM   13  C   UNL     1     -43.589 -52.645  13.293  1.00  0.00     0.271 C 
BRANCH  13  14
HETATM   14  C   UNL     1     -42.864 -53.979  13.127  1.00  0.00     0.046 C 
BRANCH  14  15
HETATM   15  C   UNL     1     -41.673 -54.094  14.070  1.00  0.00     0.159 C 
BRANCH  15  16
HETATM   16  S   UNL     1     -40.211 -53.343  13.377  1.00  0.00     0.207 S 
HETATM   17  O   UNL     1     -40.202 -51.933  13.698  1.00  0.00    -0.212 OA
HETATM   18  O   UNL     1     -39.066 -54.189  13.608  1.00  0.00    -0.212 OA
BRANCH  16  19
HETATM   19  N   UNL     1     -40.553 -53.440  11.745  1.00  0.00    -0.229 NA
HETATM   20  H   UNL     1     -40.208 -54.302  11.324  1.00  0.00     0.136 HD
HETATM   21  H   UNL     1     -41.516 -53.192  11.528  1.00  0.00     0.136 HD
ENDBRANCH  16  19
ENDBRANCH  15  16
ENDBRANCH  14  15
ENDBRANCH  13  14
ENDBRANCH   1  13
TORSDOF 8
ENDMDL
