MODEL 1
REMARK VINA RESULT:      -5.7      0.000      0.000
REMARK  5 active torsions:
REMARK  status: ('A' for Active; 'I' for Inactive)
REMARK    1  A    between atoms: C_8  and  C_9 
REMARK    2  A    between atoms: C_9  and  N_10 
REMARK    3  A    between atoms: N_10  and  C_11 
REMARK    4  A    between atoms: C_11  and  C_12 
REMARK    5  A    between atoms: C_12  and  C_13 
ROOT
HETATM    1  N   UNL     1     -41.044 -51.663  11.498  1.00  0.00     0.084 N 
HETATM    2  H   UNL     1     -41.742 -51.920  10.798  1.00  0.00     0.315 HD
ENDROOT
BRANCH   1   3
HETATM    3  C   UNL     1     -41.563 -51.997  12.829  1.00  0.00     0.279 C 
BRANCH   3   4
HETATM    4  C   UNL     1     -41.835 -53.511  13.026  1.00  0.00     0.045 C 
HETATM    5  C   UNL     1     -43.350 -53.916  13.049  1.00  0.00    -0.009 C 
HETATM    6  C   UNL     1     -44.359 -52.810  12.685  1.00  0.00     0.011 C 
HETATM    7  C   UNL     1     -43.877 -54.680  14.277  1.00  0.00     0.009 C 
HETATM    8  C   UNL     1     -42.902 -55.117  15.359  1.00  0.00     0.028 C 
HETATM    9  C   UNL     1     -41.466 -54.810  15.147  1.00  0.00    -0.024 C 
HETATM   10  C   UNL     1     -40.965 -54.101  14.127  1.00  0.00    -0.081 C 
HETATM   11  C   UNL     1     -39.477 -53.872  14.035  1.00  0.00     0.043 C 
ENDBRANCH   3   4
ENDBRANCH   1   3
BRANCH   1  12
HETATM   12  C   UNL     1     -40.730 -50.235  11.371  1.00  0.00     0.274 C 
BRANCH  12  13
HETATM   13  C   UNL     1     -41.843 -49.327  11.914  1.00  0.00     0.071 C 
BRANCH  13  14
HETATM   14  C   UNL     1     -42.073 -48.140  11.056  1.00  0.00    -0.022 A 
HETATM   15  C   UNL     1     -41.146 -47.125  10.729  1.00  0.00     0.115 A 
HETATM   16  N   UNL     1     -41.670 -46.196   9.929  1.00  0.00    -0.310 N 
HETATM   17  N   UNL     1     -42.929 -46.615   9.733  1.00  0.00    -0.308 N 
ATOM     18  HN  UNL     1     -41.220 -45.362   9.553  1.00  0.00     0.186 HD
HETATM   19  C   UNL     1     -43.838 -45.860   8.913  1.00  0.00     0.177 C 
HETATM   20  C   UNL     1     -43.219 -47.780  10.384  1.00  0.00     0.118 A 
ENDBRANCH  13  14
ENDBRANCH  12  13
ENDBRANCH   1  12
TORSDOF 5
ENDMDL
MODEL 2
REMARK VINA RESULT:      -5.6      1.484      2.832
REMARK  5 active torsions:
REMARK  status: ('A' for Active; 'I' for Inactive)
REMARK    1  A    between atoms: C_8  and  C_9 
REMARK    2  A    between atoms: C_9  and  N_10 
REMARK    3  A    between atoms: N_10  and  C_11 
REMARK    4  A    between atoms: C_11  and  C_12 
REMARK    5  A    between atoms: C_12  and  C_13 
ROOT
HETATM    1  N   UNL     1     -41.260 -52.467  11.369  1.00  0.00     0.084 N 
HETATM    2  H   UNL     1     -42.103 -52.577  10.802  1.00  0.00     0.315 HD
ENDROOT
BRANCH   1   3
HETATM    3  C   UNL     1     -41.111 -53.647  12.227  1.00  0.00     0.279 C 
BRANCH   3   4
HETATM    4  C   UNL     1     -41.728 -53.470  13.639  1.00  0.00     0.045 C 
HETATM    5  C   UNL     1     -40.728 -53.674  14.831  1.00  0.00    -0.009 C 
HETATM    6  C   UNL     1     -39.242 -53.831  14.457  1.00  0.00     0.011 C 
HETATM    7  C   UNL     1     -41.081 -54.724  15.900  1.00  0.00     0.009 C 
HETATM    8  C   UNL     1     -42.424 -55.433  15.835  1.00  0.00     0.028 C 
HETATM    9  C   UNL     1     -43.351 -55.039  14.746  1.00  0.00    -0.024 C 
HETATM   10  C   UNL     1     -43.070 -54.176  13.761  1.00  0.00    -0.081 C 
HETATM   11  C   UNL     1     -44.116 -53.864  12.719  1.00  0.00     0.043 C 
ENDBRANCH   3   4
ENDBRANCH   1   3
BRANCH   1  12
HETATM   12  C   UNL     1     -41.355 -51.227  12.147  1.00  0.00     0.274 C 
BRANCH  12  13
HETATM   13  C   UNL     1     -40.083 -50.370  12.064  1.00  0.00     0.071 C 
BRANCH  13  14
HETATM   14  C   UNL     1     -40.346 -49.021  11.510  1.00  0.00    -0.022 A 
HETATM   15  C   UNL     1     -41.360 -48.650  10.597  1.00  0.00     0.115 A 
HETATM   16  N   UNL     1     -41.326 -47.350  10.301  1.00  0.00    -0.310 N 
HETATM   17  N   UNL     1     -40.299 -46.882  11.026  1.00  0.00    -0.308 N 
ATOM     18  HN  UNL     1     -41.937 -46.833   9.671  1.00  0.00     0.186 HD
HETATM   19  C   UNL     1     -39.930 -45.493  10.970  1.00  0.00     0.177 C 
HETATM   20  C   UNL     1     -39.681 -47.845  11.772  1.00  0.00     0.118 A 
ENDBRANCH  13  14
ENDBRANCH  12  13
ENDBRANCH   1  12
TORSDOF 5
ENDMDL
MODEL 3
REMARK VINA RESULT:      -5.6      3.496      6.873
REMARK  5 active torsions:
REMARK  status: ('A' for Active; 'I' for Inactive)
REMARK    1  A    between atoms: C_8  and  C_9 
REMARK    2  A    between atoms: C_9  and  N_10 
REMARK    3  A    between atoms: N_10  and  C_11 
REMARK    4  A    between atoms: C_11  and  C_12 
REMARK    5  A    between atoms: C_12  and  C_13 
ROOT
HETATM    1  N   UNL     1     -42.684 -51.648  12.156  1.00  0.00     0.084 N 
HETATM    2  H   UNL     1     -42.740 -50.627  12.165  1.00  0.00     0.315 HD
ENDROOT
BRANCH   1   3
HETATM    3  C   UNL     1     -43.678 -52.184  13.092  1.00  0.00     0.279 C 
BRANCH   3   4
HETATM    4  C   UNL     1     -44.593 -51.099  13.715  1.00  0.00     0.045 C 
HETATM    5  C   UNL     1     -44.134 -50.570  15.119  1.00  0.00    -0.009 C 
HETATM    6  C   UNL     1     -42.753 -51.044  15.610  1.00  0.00     0.011 C 
HETATM    7  C   UNL     1     -45.131 -50.662  16.288  1.00  0.00     0.009 C 
HETATM    8  C   UNL     1     -46.549 -51.143  16.024  1.00  0.00     0.028 C 
HETATM    9  C   UNL     1     -46.910 -51.466  14.622  1.00  0.00    -0.024 C 
HETATM   10  C   UNL     1     -46.066 -51.457  13.581  1.00  0.00    -0.081 C 
HETATM   11  C   UNL     1     -46.574 -51.804  12.204  1.00  0.00     0.043 C 
ENDBRANCH   3   4
ENDBRANCH   1   3
BRANCH   1  12
HETATM   12  C   UNL     1     -41.320 -52.062  12.502  1.00  0.00     0.274 C 
BRANCH  12  13
HETATM   13  C   UNL     1     -41.121 -53.583  12.429  1.00  0.00     0.071 C 
BRANCH  13  14
HETATM   14  C   UNL     1     -40.606 -54.147  13.700  1.00  0.00    -0.022 A 
HETATM   15  C   UNL     1     -41.340 -54.425  14.875  1.00  0.00     0.115 A 
HETATM   16  N   UNL     1     -40.575 -54.932  15.843  1.00  0.00    -0.310 N 
HETATM   17  N   UNL     1     -39.354 -54.988  15.292  1.00  0.00    -0.308 N 
ATOM     18  HN  UNL     1     -40.854 -55.213  16.783  1.00  0.00     0.186 HD
HETATM   19  C   UNL     1     -38.229 -55.481  16.041  1.00  0.00     0.177 C 
HETATM   20  C   UNL     1     -39.320 -54.532  14.005  1.00  0.00     0.118 A 
ENDBRANCH  13  14
ENDBRANCH  12  13
ENDBRANCH   1  12
TORSDOF 5
ENDMDL
MODEL 4
REMARK VINA RESULT:      -5.5      2.480      3.788
REMARK  5 active torsions:
REMARK  status: ('A' for Active; 'I' for Inactive)
REMARK    1  A    between atoms: C_8  and  C_9 
REMARK    2  A    between atoms: C_9  and  N_10 
REMARK    3  A    between atoms: N_10  and  C_11 
REMARK    4  A    between atoms: C_11  and  C_12 
REMARK    5  A    between atoms: C_12  and  C_13 
ROOT
HETATM    1  N   UNL     1     -42.830 -51.249  12.161  1.00  0.00     0.084 N 
HETATM    2  H   UNL     1     -43.472 -50.635  11.656  1.00  0.00     0.315 HD
ENDROOT
BRANCH   1   3
HETATM    3  C   UNL     1     -43.530 -51.817  13.317  1.00  0.00     0.279 C 
BRANCH   3   4
HETATM    4  C   UNL     1     -44.572 -50.855  13.946  1.00  0.00     0.045 C 
HETATM    5  C   UNL     1     -44.211 -50.330  15.379  1.00  0.00    -0.009 C 
HETATM    6  C   UNL     1     -42.801 -50.673  15.898  1.00  0.00     0.011 C 
HETATM    7  C   UNL     1     -45.225 -50.566  16.513  1.00  0.00     0.009 C 
HETATM    8  C   UNL     1     -46.576 -51.183  16.189  1.00  0.00     0.028 C 
HETATM    9  C   UNL     1     -46.861 -51.494  14.767  1.00  0.00    -0.024 C 
HETATM   10  C   UNL     1     -45.994 -51.361  13.754  1.00  0.00    -0.081 C 
HETATM   11  C   UNL     1     -46.424 -51.711  12.351  1.00  0.00     0.043 C 
ENDBRANCH   3   4
ENDBRANCH   1   3
BRANCH   1  12
HETATM   12  C   UNL     1     -41.638 -50.489  12.555  1.00  0.00     0.274 C 
BRANCH  12  13
HETATM   13  C   UNL     1     -41.115 -49.577  11.435  1.00  0.00     0.071 C 
BRANCH  13  14
HETATM   14  C   UNL     1     -42.050 -48.469  11.126  1.00  0.00    -0.022 A 
HETATM   15  C   UNL     1     -42.878 -47.767  12.030  1.00  0.00     0.115 A 
HETATM   16  N   UNL     1     -43.601 -46.821  11.428  1.00  0.00    -0.310 N 
HETATM   17  N   UNL     1     -43.233 -46.907  10.141  1.00  0.00    -0.308 N 
ATOM     18  HN  UNL     1     -44.274 -46.181  11.848  1.00  0.00     0.186 HD
HETATM   19  C   UNL     1     -43.811 -46.039   9.150  1.00  0.00     0.177 C 
HETATM   20  C   UNL     1     -42.302 -47.878   9.908  1.00  0.00     0.118 A 
ENDBRANCH  13  14
ENDBRANCH  12  13
ENDBRANCH   1  12
TORSDOF 5
ENDMDL
MODEL 5
REMARK VINA RESULT:      -5.5      3.379      5.471
REMARK  5 active torsions:
REMARK  status: ('A' for Active; 'I' for Inactive)
REMARK    1  A    between atoms: C_8  and  C_9 
REMARK    2  A    between atoms: C_9  and  N_10 
REMARK    3  A    between atoms: N_10  and  C_11 
REMARK    4  A    between atoms: C_11  and  C_12 
REMARK    5  A    between atoms: C_12  and  C_13 
ROOT
HETATM    1  N   UNL     1     -43.983 -54.185  12.475  1.00  0.00     0.084 N 
HETATM    2  H   UNL     1     -44.380 -54.226  11.535  1.00  0.00     0.315 HD
ENDROOT
BRANCH   1   3
HETATM    3  C   UNL     1     -45.075 -54.044  13.444  1.00  0.00     0.279 C 
BRANCH   3   4
HETATM    4  C   UNL     1     -45.060 -52.694  14.206  1.00  0.00     0.045 C 
HETATM    5  C   UNL     1     -44.658 -52.790  15.719  1.00  0.00    -0.009 C 
HETATM    6  C   UNL     1     -44.150 -54.161  16.205  1.00  0.00     0.011 C 
HETATM    7  C   UNL     1     -45.637 -52.227  16.765  1.00  0.00     0.009 C 
HETATM    8  C   UNL     1     -46.888 -51.498  16.301  1.00  0.00     0.028 C 
HETATM    9  C   UNL     1     -47.078 -51.334  14.838  1.00  0.00    -0.024 C 
HETATM   10  C   UNL     1     -46.288 -51.853  13.889  1.00  0.00    -0.081 C 
HETATM   11  C   UNL     1     -46.600 -51.599  12.435  1.00  0.00     0.043 C 
ENDBRANCH   3   4
ENDBRANCH   1   3
BRANCH   1  12
HETATM   12  C   UNL     1     -43.030 -53.072  12.552  1.00  0.00     0.274 C 
BRANCH  12  13
HETATM   13  C   UNL     1     -41.704 -53.465  13.221  1.00  0.00     0.071 C 
BRANCH  13  14
HETATM   14  C   UNL     1     -40.624 -52.487  12.952  1.00  0.00    -0.022 A 
HETATM   15  C   UNL     1     -40.593 -51.499  11.942  1.00  0.00     0.115 A 
HETATM   16  N   UNL     1     -39.472 -50.775  11.973  1.00  0.00    -0.310 N 
HETATM   17  N   UNL     1     -38.787 -51.290  13.005  1.00  0.00    -0.308 N 
ATOM     18  HN  UNL     1     -39.200 -50.010  11.357  1.00  0.00     0.186 HD
HETATM   19  C   UNL     1     -37.493 -50.772  13.361  1.00  0.00     0.177 C 
HETATM   20  C   UNL     1     -39.437 -52.316  13.628  1.00  0.00     0.118 A 
ENDBRANCH  13  14
ENDBRANCH  12  13
ENDBRANCH   1  12
TORSDOF 5
ENDMDL
MODEL 6
REMARK VINA RESULT:      -5.4      3.255      5.098
REMARK  5 active torsions:
REMARK  status: ('A' for Active; 'I' for Inactive)
REMARK    1  A    between atoms: C_8  and  C_9 
REMARK    2  A    between atoms: C_9  and  N_10 
REMARK    3  A    between atoms: N_10  and  C_11 
REMARK    4  A    between atoms: C_11  and  C_12 
REMARK    5  A    between atoms: C_12  and  C_13 
ROOT
HETATM    1  N   UNL     1     -44.032 -51.890  16.354  1.00  0.00     0.084 N 
HETATM    2  H   UNL     1     -43.771 -51.761  17.334  1.00  0.00     0.315 HD
ENDROOT
BRANCH   1   3
HETATM    3  C   UNL     1     -44.609 -53.228  16.190  1.00  0.00     0.279 C 
BRANCH   3   4
HETATM    4  C   UNL     1     -45.763 -53.284  15.155  1.00  0.00     0.045 C 
HETATM    5  C   UNL     1     -45.363 -53.839  13.744  1.00  0.00    -0.009 C 
HETATM    6  C   UNL     1     -43.947 -54.432  13.619  1.00  0.00     0.011 C 
HETATM    7  C   UNL     1     -45.639 -52.956  12.514  1.00  0.00     0.009 C 
HETATM    8  C   UNL     1     -46.389 -51.645  12.689  1.00  0.00     0.028 C 
HETATM    9  C   UNL     1     -46.854 -51.303  14.055  1.00  0.00    -0.024 C 
HETATM   10  C   UNL     1     -46.591 -52.007  15.164  1.00  0.00    -0.081 C 
HETATM   11  C   UNL     1     -47.136 -51.542  16.492  1.00  0.00     0.043 C 
ENDBRANCH   3   4
ENDBRANCH   1   3
BRANCH   1  12
HETATM   12  C   UNL     1     -42.852 -51.689  15.506  1.00  0.00     0.274 C 
BRANCH  12  13
HETATM   13  C   UNL     1     -43.134 -50.791  14.292  1.00  0.00     0.071 C 
BRANCH  13  14
HETATM   14  C   UNL     1     -42.043 -50.839  13.289  1.00  0.00    -0.022 A 
HETATM   15  C   UNL     1     -41.941 -51.700  12.173  1.00  0.00     0.115 A 
HETATM   16  N   UNL     1     -40.831 -51.483  11.464  1.00  0.00    -0.310 N 
HETATM   17  N   UNL     1     -40.224 -50.481  12.117  1.00  0.00    -0.308 N 
ATOM     18  HN  UNL     1     -40.518 -51.966  10.623  1.00  0.00     0.186 HD
HETATM   19  C   UNL     1     -38.966 -49.957  11.657  1.00  0.00     0.177 C 
HETATM   20  C   UNL     1     -40.914 -50.056  13.217  1.00  0.00     0.118 A 
ENDBRANCH  13  14
ENDBRANCH  12  13
ENDBRANCH   1  12
TORSDOF 5
ENDMDL
MODEL 7
REMARK VINA RESULT:      -5.4      3.311      5.241
REMARK  5 active torsions:
REMARK  status: ('A' for Active; 'I' for Inactive)
REMARK    1  A    between atoms: C_8  and  C_9 
REMARK    2  A    between atoms: C_9  and  N_10 
REMARK    3  A    between atoms: N_10  and  C_11 
REMARK    4  A    between atoms: C_11  and  C_12 
REMARK    5  A    between atoms: C_12  and  C_13 
ROOT
HETATM    1  N   UNL     1     -43.115 -53.389  15.385  1.00  0.00     0.084 N 
HETATM    2  H   UNL     1     -43.286 -53.149  16.364  1.00  0.00     0.315 HD
ENDROOT
BRANCH   1   3
HETATM    3  C   UNL     1     -44.023 -54.473  14.998  1.00  0.00     0.279 C 
BRANCH   3   4
HETATM    4  C   UNL     1     -45.502 -54.027  14.869  1.00  0.00     0.045 C 
HETATM    5  C   UNL     1     -45.865 -53.309  13.523  1.00  0.00    -0.009 C 
HETATM    6  C   UNL     1     -44.774 -53.306  12.434  1.00  0.00     0.011 C 
HETATM    7  C   UNL     1     -46.490 -51.904  13.597  1.00  0.00     0.009 C 
HETATM    8  C   UNL     1     -46.844 -51.316  14.954  1.00  0.00     0.028 C 
HETATM    9  C   UNL     1     -46.597 -52.160  16.149  1.00  0.00    -0.024 C 
HETATM   10  C   UNL     1     -46.004 -53.361  16.142  1.00  0.00    -0.081 C 
HETATM   11  C   UNL     1     -45.823 -54.113  17.437  1.00  0.00     0.043 C 
ENDBRANCH   3   4
ENDBRANCH   1   3
BRANCH   1  12
HETATM   12  C   UNL     1     -41.706 -53.760  15.215  1.00  0.00     0.274 C 
BRANCH  12  13
HETATM   13  C   UNL     1     -41.349 -54.100  13.760  1.00  0.00     0.071 C 
BRANCH  13  14
HETATM   14  C   UNL     1     -40.867 -52.918  13.007  1.00  0.00    -0.022 A 
HETATM   15  C   UNL     1     -41.345 -52.435  11.767  1.00  0.00     0.115 A 
HETATM   16  N   UNL     1     -40.695 -51.344  11.361  1.00  0.00    -0.310 N 
HETATM   17  N   UNL     1     -39.805 -51.118  12.339  1.00  0.00    -0.308 N 
ATOM     18  HN  UNL     1     -40.840 -50.806  10.507  1.00  0.00     0.186 HD
HETATM   19  C   UNL     1     -38.892 -50.010  12.263  1.00  0.00     0.177 C 
HETATM   20  C   UNL     1     -39.871 -52.032  13.352  1.00  0.00     0.118 A 
ENDBRANCH  13  14
ENDBRANCH  12  13
ENDBRANCH   1  12
TORSDOF 5
ENDMDL
MODEL 8
REMARK VINA RESULT:      -5.4      4.242      6.481
REMARK  5 active torsions:
REMARK  status: ('A' for Active; 'I' for Inactive)
REMARK    1  A    between atoms: C_8  and  C_9 
REMARK    2  A    between atoms: C_9  and  N_10 
REMARK    3  A    between atoms: N_10  and  C_11 
REMARK    4  A    between atoms: C_11  and  C_12 
REMARK    5  A    between atoms: C_12  and  C_13 
ROOT
HETATM    1  N   UNL     1     -44.605 -52.280  16.914  1.00  0.00     0.084 N 
HETATM    2  H   UNL     1     -44.666 -52.051  17.908  1.00  0.00     0.315 HD
ENDROOT
BRANCH   1   3
HETATM    3  C   UNL     1     -45.369 -53.506  16.663  1.00  0.00     0.279 C 
BRANCH   3   4
HETATM    4  C   UNL     1     -46.269 -53.430  15.403  1.00  0.00     0.045 C 
HETATM    5  C   UNL     1     -45.715 -54.184  14.144  1.00  0.00    -0.009 C 
HETATM    6  C   UNL     1     -44.463 -55.055  14.366  1.00  0.00     0.011 C 
HETATM    7  C   UNL     1     -45.536 -53.385  12.841  1.00  0.00     0.009 C 
HETATM    8  C   UNL     1     -46.007 -51.941  12.781  1.00  0.00     0.028 C 
HETATM    9  C   UNL     1     -46.660 -51.385  13.992  1.00  0.00    -0.024 C 
HETATM   10  C   UNL     1     -46.789 -52.019  15.165  1.00  0.00    -0.081 C 
HETATM   11  C   UNL     1     -47.484 -51.332  16.314  1.00  0.00     0.043 C 
ENDBRANCH   3   4
ENDBRANCH   1   3
BRANCH   1  12
HETATM   12  C   UNL     1     -43.195 -52.419  16.533  1.00  0.00     0.274 C 
BRANCH  12  13
HETATM   13  C   UNL     1     -42.897 -51.866  15.132  1.00  0.00     0.071 C 
BRANCH  13  14
HETATM   14  C   UNL     1     -41.875 -52.665  14.415  1.00  0.00    -0.022 A 
HETATM   15  C   UNL     1     -41.756 -52.854  13.020  1.00  0.00     0.115 A 
HETATM   16  N   UNL     1     -40.720 -53.631  12.698  1.00  0.00    -0.310 N 
HETATM   17  N   UNL     1     -40.168 -53.935  13.882  1.00  0.00    -0.308 N 
ATOM     18  HN  UNL     1     -40.418 -53.924  11.770  1.00  0.00     0.186 HD
HETATM   19  C   UNL     1     -39.007 -54.781  13.958  1.00  0.00     0.177 C 
HETATM   20  C   UNL     1     -40.821 -53.376  14.943  1.00  0.00     0.118 A 
ENDBRANCH  13  14
ENDBRANCH  12  13
ENDBRANCH   1  12
TORSDOF 5
ENDMDL
MODEL 9
REMARK VINA RESULT:      -5.4      2.570      4.262
REMARK  5 active torsions:
REMARK  status: ('A' for Active; 'I' for Inactive)
REMARK    1  A    between atoms: C_8  and  C_9 
REMARK    2  A    between atoms: C_9  and  N_10 
REMARK    3  A    between atoms: N_10  and  C_11 
REMARK    4  A    between atoms: C_11  and  C_12 
REMARK    5  A    between atoms: C_12  and  C_13 
ROOT
HETATM    1  N   UNL     1     -43.129 -52.845  12.649  1.00  0.00     0.084 N 
HETATM    2  H   UNL     1     -43.287 -51.915  12.255  1.00  0.00     0.315 HD
ENDROOT
BRANCH   1   3
HETATM    3  C   UNL     1     -44.095 -53.072  13.729  1.00  0.00     0.279 C 
BRANCH   3   4
HETATM    4  C   UNL     1     -44.686 -51.764  14.318  1.00  0.00     0.045 C 
HETATM    5  C   UNL     1     -44.294 -51.470  15.808  1.00  0.00    -0.009 C 
HETATM    6  C   UNL     1     -43.232 -52.397  16.431  1.00  0.00     0.011 C 
HETATM    7  C   UNL     1     -45.428 -51.263  16.828  1.00  0.00     0.009 C 
HETATM    8  C   UNL     1     -46.869 -51.230  16.345  1.00  0.00     0.028 C 
HETATM    9  C   UNL     1     -47.103 -51.364  14.886  1.00  0.00    -0.024 C 
HETATM   10  C   UNL     1     -46.158 -51.603  13.967  1.00  0.00    -0.081 C 
HETATM   11  C   UNL     1     -46.541 -51.709  12.511  1.00  0.00     0.043 C 
ENDBRANCH   3   4
ENDBRANCH   1   3
BRANCH   1  12
HETATM   12  C   UNL     1     -41.742 -52.944  13.118  1.00  0.00     0.274 C 
BRANCH  12  13
HETATM   13  C   UNL     1     -41.152 -51.587  13.529  1.00  0.00     0.071 C 
BRANCH  13  14
HETATM   14  C   UNL     1     -41.084 -50.634  12.395  1.00  0.00    -0.022 A 
HETATM   15  C   UNL     1     -40.126 -50.602  11.357  1.00  0.00     0.115 A 
HETATM   16  N   UNL     1     -40.352 -49.616  10.487  1.00  0.00    -0.310 N 
HETATM   17  N   UNL     1     -41.457 -49.020  10.958  1.00  0.00    -0.308 N 
ATOM     18  HN  UNL     1     -39.811 -49.373   9.658  1.00  0.00     0.186 HD
HETATM   19  C   UNL     1     -42.024 -47.882  10.285  1.00  0.00     0.177 C 
HETATM   20  C   UNL     1     -41.938 -49.596  12.099  1.00  0.00     0.118 A 
ENDBRANCH  13  14
ENDBRANCH  12  13
ENDBRANCH   1  12
TORSDOF 5
ENDMDL
