MODEL 1
REMARK VINA RESULT:      -6.5      0.000      0.000
REMARK  5 active torsions:
REMARK  status: ('A' for Active; 'I' for Inactive)
REMARK    1  A    between atoms: C_3  and  C_4 
REMARK    2  A    between atoms: C_5  and  C_6 
REMARK       I    between atoms: C_6  and  N_8 
REMARK    3  A    between atoms: N_8  and  C_9 
REMARK    4  A    between atoms: C_9  and  C_10 
REMARK    5  A    between atoms: C_10  and  C_11 
ROOT
HETATM    1  C   UNL     1     -43.009 -50.957  13.307  1.00  0.00     0.223 C 
HETATM    2  O   UNL     1     -42.333 -51.221  14.292  1.00  0.00    -0.273 OA
HETATM    3  N   UNL     1     -42.465 -50.617  12.093  1.00  0.00    -0.360 N 
HETATM    4  H   UNL     1     -43.069 -50.517  11.289  1.00  0.00     0.162 HD
ENDROOT
BRANCH   3   5
HETATM    5  C   UNL     1     -41.024 -50.482  11.922  1.00  0.00     0.130 C 
BRANCH   5   6
HETATM    6  C   UNL     1     -40.584 -49.116  11.397  1.00  0.00     0.106 C 
BRANCH   6   7
HETATM    7  C   UNL     1     -41.730 -48.389  10.807  1.00  0.00     0.149 A 
HETATM    8  N   UNL     1     -42.018 -48.162   9.546  1.00  0.00    -0.327 N 
HETATM    9  C   UNL     1     -43.138 -47.378   9.647  1.00  0.00     0.100 A 
ATOM     10  HN  UNL     1     -41.534 -48.485   8.708  1.00  0.00     0.169 HD
HETATM   11  C   UNL     1     -43.844 -46.839   8.470  1.00  0.00     0.091 C 
HETATM   12  N   UNL     1     -43.533 -47.114  10.900  1.00  0.00    -0.248 N 
HETATM   13  O   UNL     1     -42.597 -47.796  11.679  1.00  0.00    -0.223 OA
ATOM     14  HN  UNL     1     -44.324 -46.551  11.209  1.00  0.00     0.196 HD
ENDBRANCH   6   7
ENDBRANCH   5   6
ENDBRANCH   3   5
BRANCH   1  15
HETATM   15  C   UNL     1     -44.504 -50.962  13.351  1.00  0.00     0.094 A 
HETATM   16  C   UNL     1     -45.179 -51.802  14.424  1.00  0.00     0.030 A 
HETATM   17  C   UNL     1     -45.342 -52.171  12.953  1.00  0.00    -0.027 A 
HETATM   18  C   UNL     1     -44.665 -53.425  12.455  1.00  0.00     0.016 C 
HETATM   19  C   UNL     1     -46.670 -51.920  12.268  1.00  0.00     0.016 C 
BRANCH  16  20
HETATM   20  C   UNL     1     -46.344 -51.295  15.164  1.00  0.00    -0.019 C 
HETATM   21  C   UNL     1     -46.842 -51.687  16.352  1.00  0.00    -0.091 C 
HETATM   22  C   UNL     1     -46.283 -52.804  17.185  1.00  0.00     0.042 C 
HETATM   23  C   UNL     1     -48.047 -50.984  16.918  1.00  0.00     0.042 C 
ENDBRANCH  16  20
ENDBRANCH   1  15
TORSDOF 5
ENDMDL
MODEL 2
REMARK VINA RESULT:      -6.1      2.458      3.447
REMARK  5 active torsions:
REMARK  status: ('A' for Active; 'I' for Inactive)
REMARK    1  A    between atoms: C_3  and  C_4 
REMARK    2  A    between atoms: C_5  and  C_6 
REMARK       I    between atoms: C_6  and  N_8 
REMARK    3  A    between atoms: N_8  and  C_9 
REMARK    4  A    between atoms: C_9  and  C_10 
REMARK    5  A    between atoms: C_10  and  C_11 
ROOT
HETATM    1  C   UNL     1     -40.670 -53.311  13.376  1.00  0.00     0.223 C 
HETATM    2  O   UNL     1     -39.764 -54.132  13.312  1.00  0.00    -0.273 OA
HETATM    3  N   UNL     1     -40.453 -51.969  13.572  1.00  0.00    -0.360 N 
HETATM    4  H   UNL     1     -41.230 -51.327  13.506  1.00  0.00     0.162 HD
ENDROOT
BRANCH   3   5
HETATM    5  C   UNL     1     -39.111 -51.445  13.789  1.00  0.00     0.130 C 
BRANCH   5   6
HETATM    6  C   UNL     1     -38.975 -49.947  13.514  1.00  0.00     0.106 C 
BRANCH   6   7
HETATM    7  C   UNL     1     -39.787 -49.556  12.341  1.00  0.00     0.149 A 
HETATM    8  N   UNL     1     -40.683 -48.602  12.223  1.00  0.00    -0.327 N 
HETATM    9  C   UNL     1     -41.136 -48.796  10.943  1.00  0.00     0.100 A 
ATOM     10  HN  UNL     1     -40.968 -47.901  12.906  1.00  0.00     0.169 HD
HETATM   11  C   UNL     1     -42.189 -47.962  10.336  1.00  0.00     0.091 C 
HETATM   12  N   UNL     1     -40.569 -49.818  10.290  1.00  0.00    -0.248 N 
HETATM   13  O   UNL     1     -39.659 -50.324  11.221  1.00  0.00    -0.223 OA
ATOM     14  HN  UNL     1     -40.756 -50.148   9.344  1.00  0.00     0.196 HD
ENDBRANCH   6   7
ENDBRANCH   5   6
ENDBRANCH   3   5
BRANCH   1  15
HETATM   15  C   UNL     1     -42.106 -53.710  13.265  1.00  0.00     0.094 A 
HETATM   16  C   UNL     1     -43.158 -52.701  13.699  1.00  0.00     0.030 A 
HETATM   17  C   UNL     1     -42.983 -54.001  14.478  1.00  0.00    -0.027 A 
HETATM   18  C   UNL     1     -42.395 -53.924  15.866  1.00  0.00     0.016 C 
HETATM   19  C   UNL     1     -44.031 -55.087  14.352  1.00  0.00     0.016 C 
BRANCH  16  20
HETATM   20  C   UNL     1     -44.387 -52.501  12.916  1.00  0.00    -0.019 C 
HETATM   21  C   UNL     1     -45.539 -51.898  13.269  1.00  0.00    -0.091 C 
HETATM   22  C   UNL     1     -45.814 -51.305  14.620  1.00  0.00     0.042 C 
HETATM   23  C   UNL     1     -46.657 -51.797  12.266  1.00  0.00     0.042 C 
ENDBRANCH  16  20
ENDBRANCH   1  15
TORSDOF 5
ENDMDL
MODEL 3
REMARK VINA RESULT:      -6.0      1.665      2.208
REMARK  5 active torsions:
REMARK  status: ('A' for Active; 'I' for Inactive)
REMARK    1  A    between atoms: C_3  and  C_4 
REMARK    2  A    between atoms: C_5  and  C_6 
REMARK       I    between atoms: C_6  and  N_8 
REMARK    3  A    between atoms: N_8  and  C_9 
REMARK    4  A    between atoms: C_9  and  C_10 
REMARK    5  A    between atoms: C_10  and  C_11 
ROOT
HETATM    1  C   UNL     1     -41.646 -52.436  12.164  1.00  0.00     0.223 C 
HETATM    2  O   UNL     1     -40.681 -53.125  11.862  1.00  0.00    -0.273 OA
HETATM    3  N   UNL     1     -41.687 -51.077  11.975  1.00  0.00    -0.360 N 
HETATM    4  H   UNL     1     -42.550 -50.578  12.142  1.00  0.00     0.162 HD
ENDROOT
BRANCH   3   5
HETATM    5  C   UNL     1     -40.535 -50.352  11.455  1.00  0.00     0.130 C 
BRANCH   5   6
HETATM    6  C   UNL     1     -40.619 -48.837  11.634  1.00  0.00     0.106 C 
BRANCH   6   7
HETATM    7  C   UNL     1     -41.762 -48.284  10.876  1.00  0.00     0.149 A 
HETATM    8  N   UNL     1     -41.980 -48.270   9.580  1.00  0.00    -0.327 N 
HETATM    9  C   UNL     1     -43.147 -47.554   9.497  1.00  0.00     0.100 A 
ATOM     10  HN  UNL     1     -41.426 -48.683   8.831  1.00  0.00     0.169 HD
HETATM   11  C   UNL     1     -43.803 -47.246   8.213  1.00  0.00     0.091 C 
HETATM   12  N   UNL     1     -43.636 -47.130  10.669  1.00  0.00    -0.248 N 
HETATM   13  O   UNL     1     -42.716 -47.624  11.595  1.00  0.00    -0.223 OA
ATOM     14  HN  UNL     1     -44.476 -46.579  10.843  1.00  0.00     0.196 HD
ENDBRANCH   6   7
ENDBRANCH   5   6
ENDBRANCH   3   5
BRANCH   1  15
HETATM   15  C   UNL     1     -42.868 -53.024  12.794  1.00  0.00     0.094 A 
HETATM   16  C   UNL     1     -43.440 -52.326  14.019  1.00  0.00     0.030 A 
HETATM   17  C   UNL     1     -42.848 -53.726  14.147  1.00  0.00    -0.027 A 
HETATM   18  C   UNL     1     -41.546 -53.883  14.894  1.00  0.00     0.016 C 
HETATM   19  C   UNL     1     -43.777 -54.907  14.347  1.00  0.00     0.016 C 
BRANCH  16  20
HETATM   20  C   UNL     1     -44.890 -52.148  14.184  1.00  0.00    -0.019 C 
HETATM   21  C   UNL     1     -45.565 -51.395  15.073  1.00  0.00    -0.091 C 
HETATM   22  C   UNL     1     -44.927 -50.566  16.149  1.00  0.00     0.042 C 
HETATM   23  C   UNL     1     -47.070 -51.361  15.022  1.00  0.00     0.042 C 
ENDBRANCH  16  20
ENDBRANCH   1  15
TORSDOF 5
ENDMDL
MODEL 4
REMARK VINA RESULT:      -5.9      1.808      2.409
REMARK  5 active torsions:
REMARK  status: ('A' for Active; 'I' for Inactive)
REMARK    1  A    between atoms: C_3  and  C_4 
REMARK    2  A    between atoms: C_5  and  C_6 
REMARK       I    between atoms: C_6  and  N_8 
REMARK    3  A    between atoms: N_8  and  C_9 
REMARK    4  A    between atoms: C_9  and  C_10 
REMARK    5  A    between atoms: C_10  and  C_11 
ROOT
HETATM    1  C   UNL     1     -42.332 -49.783  12.504  1.00  0.00     0.223 C 
HETATM    2  O   UNL     1     -41.451 -49.541  13.318  1.00  0.00    -0.273 OA
HETATM    3  N   UNL     1     -42.369 -49.224  11.250  1.00  0.00    -0.360 N 
HETATM    4  H   UNL     1     -43.058 -49.544  10.584  1.00  0.00     0.162 HD
ENDROOT
BRANCH   3   5
HETATM    5  C   UNL     1     -41.379 -48.239  10.833  1.00  0.00     0.130 C 
BRANCH   5   6
HETATM    6  C   UNL     1     -41.977 -46.909  10.375  1.00  0.00     0.106 C 
BRANCH   6   7
HETATM    7  C   UNL     1     -43.282 -47.124   9.711  1.00  0.00     0.149 A 
HETATM    8  N   UNL     1     -44.490 -46.801  10.114  1.00  0.00    -0.327 N 
HETATM    9  C   UNL     1     -45.271 -47.333   9.120  1.00  0.00     0.100 A 
ATOM     10  HN  UNL     1     -44.773 -46.288  10.948  1.00  0.00     0.169 HD
HETATM   11  C   UNL     1     -46.743 -47.244   9.129  1.00  0.00     0.091 C 
HETATM   12  N   UNL     1     -44.600 -47.966   8.150  1.00  0.00    -0.248 N 
HETATM   13  O   UNL     1     -43.267 -47.821   8.538  1.00  0.00    -0.223 OA
ATOM     14  HN  UNL     1     -44.972 -48.439   7.326  1.00  0.00     0.196 HD
ENDBRANCH   6   7
ENDBRANCH   5   6
ENDBRANCH   3   5
BRANCH   1  15
HETATM   15  C   UNL     1     -43.468 -50.702  12.820  1.00  0.00     0.094 A 
HETATM   16  C   UNL     1     -43.502 -51.339  14.201  1.00  0.00     0.030 A 
HETATM   17  C   UNL     1     -43.300 -52.210  12.965  1.00  0.00    -0.027 A 
HETATM   18  C   UNL     1     -41.945 -52.839  12.751  1.00  0.00     0.016 C 
HETATM   19  C   UNL     1     -44.433 -53.098  12.491  1.00  0.00     0.016 C 
BRANCH  16  20
HETATM   20  C   UNL     1     -44.760 -51.453  14.954  1.00  0.00    -0.019 C 
HETATM   21  C   UNL     1     -45.178 -50.763  16.032  1.00  0.00    -0.091 C 
HETATM   22  C   UNL     1     -44.378 -49.700  16.729  1.00  0.00     0.042 C 
HETATM   23  C   UNL     1     -46.536 -51.051  16.614  1.00  0.00     0.042 C 
ENDBRANCH  16  20
ENDBRANCH   1  15
TORSDOF 5
ENDMDL
MODEL 5
REMARK VINA RESULT:      -5.7      4.573      5.672
REMARK  5 active torsions:
REMARK  status: ('A' for Active; 'I' for Inactive)
REMARK    1  A    between atoms: C_3  and  C_4 
REMARK    2  A    between atoms: C_5  and  C_6 
REMARK       I    between atoms: C_6  and  N_8 
REMARK    3  A    between atoms: N_8  and  C_9 
REMARK    4  A    between atoms: C_9  and  C_10 
REMARK    5  A    between atoms: C_10  and  C_11 
ROOT
HETATM    1  C   UNL     1     -40.077 -47.909  11.836  1.00  0.00     0.223 C 
HETATM    2  O   UNL     1     -40.145 -47.282  12.885  1.00  0.00    -0.273 OA
HETATM    3  N   UNL     1     -40.523 -47.413  10.635  1.00  0.00    -0.360 N 
HETATM    4  H   UNL     1     -40.341 -47.931   9.787  1.00  0.00     0.162 HD
ENDROOT
BRANCH   3   5
HETATM    5  C   UNL     1     -41.178 -46.114  10.551  1.00  0.00     0.130 C 
BRANCH   5   6
HETATM    6  C   UNL     1     -42.624 -46.112  11.044  1.00  0.00     0.106 C 
BRANCH   6   7
HETATM    7  C   UNL     1     -43.506 -46.806  10.079  1.00  0.00     0.149 A 
HETATM    8  N   UNL     1     -44.813 -46.937  10.083  1.00  0.00    -0.327 N 
HETATM    9  C   UNL     1     -45.021 -47.741   8.992  1.00  0.00     0.100 A 
ATOM     10  HN  UNL     1     -45.496 -46.543  10.730  1.00  0.00     0.169 HD
HETATM   11  C   UNL     1     -46.361 -48.196   8.580  1.00  0.00     0.091 C 
HETATM   12  N   UNL     1     -43.910 -48.108   8.340  1.00  0.00    -0.248 N 
HETATM   13  O   UNL     1     -42.895 -47.476   9.060  1.00  0.00    -0.223 OA
ATOM     14  HN  UNL     1     -43.826 -48.704   7.517  1.00  0.00     0.196 HD
ENDBRANCH   6   7
ENDBRANCH   5   6
ENDBRANCH   3   5
BRANCH   1  15
HETATM   15  C   UNL     1     -39.515 -49.293  11.779  1.00  0.00     0.094 A 
HETATM   16  C   UNL     1     -39.757 -50.207  12.971  1.00  0.00     0.030 A 
HETATM   17  C   UNL     1     -38.341 -49.749  12.638  1.00  0.00    -0.027 A 
HETATM   18  C   UNL     1     -37.671 -48.772  13.573  1.00  0.00     0.016 C 
HETATM   19  C   UNL     1     -37.364 -50.738  12.037  1.00  0.00     0.016 C 
BRANCH  16  20
HETATM   20  C   UNL     1     -40.110 -51.622  12.783  1.00  0.00    -0.019 C 
HETATM   21  C   UNL     1     -40.046 -52.644  13.658  1.00  0.00    -0.091 C 
HETATM   22  C   UNL     1     -39.544 -52.531  15.068  1.00  0.00     0.042 C 
HETATM   23  C   UNL     1     -40.494 -54.016  13.227  1.00  0.00     0.042 C 
ENDBRANCH  16  20
ENDBRANCH   1  15
TORSDOF 5
ENDMDL
MODEL 6
REMARK VINA RESULT:      -5.6      2.873      4.647
REMARK  5 active torsions:
REMARK  status: ('A' for Active; 'I' for Inactive)
REMARK    1  A    between atoms: C_3  and  C_4 
REMARK    2  A    between atoms: C_5  and  C_6 
REMARK       I    between atoms: C_6  and  N_8 
REMARK    3  A    between atoms: N_8  and  C_9 
REMARK    4  A    between atoms: C_9  and  C_10 
REMARK    5  A    between atoms: C_10  and  C_11 
ROOT
HETATM    1  C   UNL     1     -44.221 -52.995  16.359  1.00  0.00     0.223 C 
HETATM    2  O   UNL     1     -44.089 -53.428  17.496  1.00  0.00    -0.273 OA
HETATM    3  N   UNL     1     -43.174 -52.860  15.481  1.00  0.00    -0.360 N 
HETATM    4  H   UNL     1     -43.361 -52.601  14.522  1.00  0.00     0.162 HD
ENDROOT
BRANCH   3   5
HETATM    5  C   UNL     1     -41.808 -53.167  15.882  1.00  0.00     0.130 C 
BRANCH   5   6
HETATM    6  C   UNL     1     -40.945 -53.749  14.763  1.00  0.00     0.106 C 
BRANCH   6   7
HETATM    7  C   UNL     1     -41.002 -52.890  13.560  1.00  0.00     0.149 A 
HETATM    8  N   UNL     1     -40.409 -51.742  13.321  1.00  0.00    -0.327 N 
HETATM    9  C   UNL     1     -40.916 -51.412  12.091  1.00  0.00     0.100 A 
ATOM     10  HN  UNL     1     -39.743 -51.231  13.899  1.00  0.00     0.169 HD
HETATM   11  C   UNL     1     -40.555 -50.168  11.387  1.00  0.00     0.091 C 
HETATM   12  N   UNL     1     -41.789 -52.292  11.583  1.00  0.00    -0.248 N 
HETATM   13  O   UNL     1     -41.842 -53.287  12.560  1.00  0.00    -0.223 OA
ATOM     14  HN  UNL     1     -42.292 -52.246  10.697  1.00  0.00     0.196 HD
ENDBRANCH   6   7
ENDBRANCH   5   6
ENDBRANCH   3   5
BRANCH   1  15
HETATM   15  C   UNL     1     -45.548 -52.549  15.834  1.00  0.00     0.094 A 
HETATM   16  C   UNL     1     -45.582 -51.316  14.944  1.00  0.00     0.030 A 
HETATM   17  C   UNL     1     -46.249 -51.284  16.315  1.00  0.00    -0.027 A 
HETATM   18  C   UNL     1     -45.618 -50.439  17.395  1.00  0.00     0.016 C 
HETATM   19  C   UNL     1     -47.762 -51.301  16.404  1.00  0.00     0.016 C 
BRANCH  16  20
HETATM   20  C   UNL     1     -46.425 -51.271  13.741  1.00  0.00    -0.019 C 
HETATM   21  C   UNL     1     -46.332 -51.985  12.602  1.00  0.00    -0.091 C 
HETATM   22  C   UNL     1     -45.269 -53.005  12.318  1.00  0.00     0.042 C 
HETATM   23  C   UNL     1     -47.346 -51.769  11.510  1.00  0.00     0.042 C 
ENDBRANCH  16  20
ENDBRANCH   1  15
TORSDOF 5
ENDMDL
MODEL 7
REMARK VINA RESULT:      -5.6      3.631      5.877
REMARK  5 active torsions:
REMARK  status: ('A' for Active; 'I' for Inactive)
REMARK    1  A    between atoms: C_3  and  C_4 
REMARK    2  A    between atoms: C_5  and  C_6 
REMARK       I    between atoms: C_6  and  N_8 
REMARK    3  A    between atoms: N_8  and  C_9 
REMARK    4  A    between atoms: C_9  and  C_10 
REMARK    5  A    between atoms: C_10  and  C_11 
ROOT
HETATM    1  C   UNL     1     -40.367 -46.853  11.030  1.00  0.00     0.223 C 
HETATM    2  O   UNL     1     -39.746 -45.850  10.708  1.00  0.00    -0.273 OA
HETATM    3  N   UNL     1     -41.734 -46.952  10.938  1.00  0.00    -0.360 N 
HETATM    4  H   UNL     1     -42.180 -47.841  11.115  1.00  0.00     0.162 HD
ENDROOT
BRANCH   3   5
HETATM    5  C   UNL     1     -42.545 -45.821  10.507  1.00  0.00     0.130 C 
BRANCH   5   6
HETATM    6  C   UNL     1     -43.051 -45.929   9.068  1.00  0.00     0.106 C 
BRANCH   6   7
HETATM    7  C   UNL     1     -44.382 -46.574   9.030  1.00  0.00     0.149 A 
HETATM    8  N   UNL     1     -44.699 -47.847   9.099  1.00  0.00    -0.327 N 
HETATM    9  C   UNL     1     -46.058 -47.811   8.926  1.00  0.00     0.100 A 
ATOM     10  HN  UNL     1     -44.091 -48.653   9.243  1.00  0.00     0.169 HD
HETATM   11  C   UNL     1     -46.892 -49.026   8.907  1.00  0.00     0.091 C 
HETATM   12  N   UNL     1     -46.574 -46.588   8.748  1.00  0.00    -0.248 N 
HETATM   13  O   UNL     1     -45.455 -45.756   8.826  1.00  0.00    -0.223 OA
ATOM     14  HN  UNL     1     -47.547 -46.326   8.593  1.00  0.00     0.196 HD
ENDBRANCH   6   7
ENDBRANCH   5   6
ENDBRANCH   3   5
BRANCH   1  15
HETATM   15  C   UNL     1     -39.681 -48.063  11.580  1.00  0.00     0.094 A 
HETATM   16  C   UNL     1     -40.499 -49.011  12.443  1.00  0.00     0.030 A 
HETATM   17  C   UNL     1     -39.344 -48.227  13.057  1.00  0.00    -0.027 A 
HETATM   18  C   UNL     1     -39.673 -47.121  14.030  1.00  0.00     0.016 C 
HETATM   19  C   UNL     1     -38.064 -48.953  13.416  1.00  0.00     0.016 C 
BRANCH  16  20
HETATM   20  C   UNL     1     -40.373 -50.469  12.300  1.00  0.00    -0.019 C 
HETATM   21  C   UNL     1     -41.296 -51.432  12.487  1.00  0.00    -0.091 C 
HETATM   22  C   UNL     1     -42.709 -51.185  12.932  1.00  0.00     0.042 C 
HETATM   23  C   UNL     1     -40.923 -52.871  12.249  1.00  0.00     0.042 C 
ENDBRANCH  16  20
ENDBRANCH   1  15
TORSDOF 5
ENDMDL
MODEL 8
REMARK VINA RESULT:      -5.5      3.271      7.153
REMARK  5 active torsions:
REMARK  status: ('A' for Active; 'I' for Inactive)
REMARK    1  A    between atoms: C_3  and  C_4 
REMARK    2  A    between atoms: C_5  and  C_6 
REMARK       I    between atoms: C_6  and  N_8 
REMARK    3  A    between atoms: N_8  and  C_9 
REMARK    4  A    between atoms: C_9  and  C_10 
REMARK    5  A    between atoms: C_10  and  C_11 
ROOT
HETATM    1  C   UNL     1     -40.826 -50.573  12.447  1.00  0.00     0.223 C 
HETATM    2  O   UNL     1     -41.809 -50.317  11.764  1.00  0.00    -0.273 OA
HETATM    3  N   UNL     1     -40.415 -51.855  12.718  1.00  0.00    -0.360 N 
HETATM    4  H   UNL     1     -39.536 -52.004  13.195  1.00  0.00     0.162 HD
ENDROOT
BRANCH   3   5
HETATM    5  C   UNL     1     -41.179 -53.007  12.257  1.00  0.00     0.130 C 
BRANCH   5   6
HETATM    6  C   UNL     1     -42.019 -53.675  13.345  1.00  0.00     0.106 C 
BRANCH   6   7
HETATM    7  C   UNL     1     -43.462 -53.466  13.092  1.00  0.00     0.149 A 
HETATM    8  N   UNL     1     -44.078 -52.439  12.551  1.00  0.00    -0.327 N 
HETATM    9  C   UNL     1     -45.394 -52.803  12.670  1.00  0.00     0.100 A 
ATOM     10  HN  UNL     1     -43.680 -51.592  12.147  1.00  0.00     0.169 HD
HETATM   11  C   UNL     1     -46.503 -51.947  12.211  1.00  0.00     0.091 C 
HETATM   12  N   UNL     1     -45.603 -53.986  13.261  1.00  0.00    -0.248 N 
HETATM   13  O   UNL     1     -44.311 -54.437  13.537  1.00  0.00    -0.223 OA
ATOM     14  HN  UNL     1     -46.491 -54.447  13.462  1.00  0.00     0.196 HD
ENDBRANCH   6   7
ENDBRANCH   5   6
ENDBRANCH   3   5
BRANCH   1  15
HETATM   15  C   UNL     1     -39.994 -49.498  13.068  1.00  0.00     0.094 A 
HETATM   16  C   UNL     1     -39.703 -48.257  12.238  1.00  0.00     0.030 A 
HETATM   17  C   UNL     1     -38.566 -49.195  12.629  1.00  0.00    -0.027 A 
HETATM   18  C   UNL     1     -37.921 -50.023  11.545  1.00  0.00     0.016 C 
HETATM   19  C   UNL     1     -37.576 -48.757  13.690  1.00  0.00     0.016 C 
BRANCH  16  20
HETATM   20  C   UNL     1     -39.756 -46.914  12.835  1.00  0.00    -0.019 C 
HETATM   21  C   UNL     1     -39.833 -45.712  12.234  1.00  0.00    -0.091 C 
HETATM   22  C   UNL     1     -39.853 -45.499  10.748  1.00  0.00     0.042 C 
HETATM   23  C   UNL     1     -39.901 -44.466  13.077  1.00  0.00     0.042 C 
ENDBRANCH  16  20
ENDBRANCH   1  15
TORSDOF 5
ENDMDL
MODEL 9
REMARK VINA RESULT:      -5.5      4.943      6.968
REMARK  5 active torsions:
REMARK  status: ('A' for Active; 'I' for Inactive)
REMARK    1  A    between atoms: C_3  and  C_4 
REMARK    2  A    between atoms: C_5  and  C_6 
REMARK       I    between atoms: C_6  and  N_8 
REMARK    3  A    between atoms: N_8  and  C_9 
REMARK    4  A    between atoms: C_9  and  C_10 
REMARK    5  A    between atoms: C_10  and  C_11 
ROOT
HETATM    1  C   UNL     1     -39.458 -44.834  13.958  1.00  0.00     0.223 C 
HETATM    2  O   UNL     1     -39.590 -44.033  14.873  1.00  0.00    -0.273 OA
HETATM    3  N   UNL     1     -39.639 -44.502  12.638  1.00  0.00    -0.360 N 
HETATM    4  H   UNL     1     -39.410 -45.176  11.921  1.00  0.00     0.162 HD
ENDROOT
BRANCH   3   5
HETATM    5  C   UNL     1     -40.073 -43.167  12.248  1.00  0.00     0.130 C 
BRANCH   5   6
HETATM    6  C   UNL     1     -41.337 -43.148  11.390  1.00  0.00     0.106 C 
BRANCH   6   7
HETATM    7  C   UNL     1     -41.751 -44.524  11.040  1.00  0.00     0.149 A 
HETATM    8  N   UNL     1     -42.712 -45.265  11.546  1.00  0.00    -0.327 N 
HETATM    9  C   UNL     1     -42.541 -46.448  10.875  1.00  0.00     0.100 A 
ATOM     10  HN  UNL     1     -43.404 -45.022  12.254  1.00  0.00     0.169 HD
HETATM   11  C   UNL     1     -43.389 -47.630  11.114  1.00  0.00     0.091 C 
HETATM   12  N   UNL     1     -41.525 -46.462  10.002  1.00  0.00    -0.248 N 
HETATM   13  O   UNL     1     -41.000 -45.173  10.104  1.00  0.00    -0.223 OA
ATOM     14  HN  UNL     1     -41.212 -47.229   9.407  1.00  0.00     0.196 HD
ENDBRANCH   6   7
ENDBRANCH   5   6
ENDBRANCH   3   5
BRANCH   1  15
HETATM   15  C   UNL     1     -39.107 -46.266  14.207  1.00  0.00     0.094 A 
HETATM   16  C   UNL     1     -39.472 -47.283  13.136  1.00  0.00     0.030 A 
HETATM   17  C   UNL     1     -40.151 -47.338  14.501  1.00  0.00    -0.027 A 
HETATM   18  C   UNL     1     -41.610 -46.963  14.586  1.00  0.00     0.016 C 
HETATM   19  C   UNL     1     -39.780 -48.443  15.469  1.00  0.00     0.016 C 
BRANCH  16  20
HETATM   20  C   UNL     1     -38.541 -48.357  12.760  1.00  0.00    -0.019 C 
HETATM   21  C   UNL     1     -38.743 -49.428  11.969  1.00  0.00    -0.091 C 
HETATM   22  C   UNL     1     -40.045 -49.763  11.302  1.00  0.00     0.042 C 
HETATM   23  C   UNL     1     -37.608 -50.384  11.715  1.00  0.00     0.042 C 
ENDBRANCH  16  20
ENDBRANCH   1  15
TORSDOF 5
ENDMDL
