MODEL 1
REMARK VINA RESULT:      -5.3      0.000      0.000
REMARK  4 active torsions:
REMARK  status: ('A' for Active; 'I' for Inactive)
REMARK    1  A    between atoms: N_1  and  C_8 
REMARK    2  A    between atoms: C_7  and  N_15 
REMARK    3  A    between atoms: C_11  and  C_17 
REMARK    4  A    between atoms: O_16  and  C_17 
ROOT
HETATM    1  N   UNL     1     -41.667 -46.678  10.852  1.00  0.00    -0.279 N 
HETATM    2  N   UNL     1     -42.798 -48.281   9.468  1.00  0.00    -0.292 N 
ATOM      3  HN  UNL     1     -42.949 -49.242   9.163  1.00  0.00     0.172 HD
HETATM    4  C   UNL     1     -41.799 -47.993  10.374  1.00  0.00     0.330 A 
HETATM    5  C   UNL     1     -42.453 -45.665  10.337  1.00  0.00     0.144 A 
HETATM    6  C   UNL     1     -43.392 -45.923   9.436  1.00  0.00     0.175 A 
HETATM    7  C   UNL     1     -43.546 -47.326   9.003  1.00  0.00     0.143 A 
HETATM    8  O   UNL     1     -41.028 -48.875  10.746  1.00  0.00    -0.246 OA
HETATM    9  F   UNL     1     -44.196 -44.991   8.894  1.00  0.00    -0.201 F 
ENDROOT
BRANCH   1  10
HETATM   10  C   UNL     1     -40.548 -46.403  11.765  1.00  0.00     0.243 C 
HETATM   11  O   UNL     1     -39.876 -45.172  11.414  1.00  0.00    -0.348 OA
HETATM   12  C   UNL     1     -40.120 -44.138  12.380  1.00  0.00     0.209 C 
HETATM   13  S   UNL     1     -41.289 -44.697  13.631  1.00  0.00    -0.131 SA
HETATM   14  C   UNL     1     -40.893 -46.405  13.265  1.00  0.00     0.131 C 
BRANCH  12  15
HETATM   15  C   UNL     1     -40.571 -42.826  11.710  1.00  0.00     0.207 C 
BRANCH  15  16
HETATM   16  O   UNL     1     -40.498 -42.874  10.283  1.00  0.00    -0.398 OA
HETATM   17  H   UNL     1     -40.817 -42.019   9.947  1.00  0.00     0.209 HD
ENDBRANCH  15  16
ENDBRANCH  12  15
ENDBRANCH   1  10
BRANCH   7  18
HETATM   18  N   UNL     1     -44.497 -47.666   8.076  1.00  0.00    -0.383 N 
HETATM   19  H   UNL     1     -44.939 -46.909   7.568  1.00  0.00     0.157 HD
HETATM   20  H   UNL     1     -45.127 -48.398   8.389  1.00  0.00     0.157 HD
ENDBRANCH   7  18
TORSDOF 4
ENDMDL
MODEL 2
REMARK VINA RESULT:      -5.3      5.897      6.564
REMARK  4 active torsions:
REMARK  status: ('A' for Active; 'I' for Inactive)
REMARK    1  A    between atoms: N_1  and  C_8 
REMARK    2  A    between atoms: C_7  and  N_15 
REMARK    3  A    between atoms: C_11  and  C_17 
REMARK    4  A    between atoms: O_16  and  C_17 
ROOT
HETATM    1  N   UNL     1     -40.143 -52.203  13.550  1.00  0.00    -0.279 N 
HETATM    2  N   UNL     1     -41.754 -53.763  12.693  1.00  0.00    -0.292 N 
ATOM      3  HN  UNL     1     -42.043 -54.719  12.485  1.00  0.00     0.172 HD
HETATM    4  C   UNL     1     -40.490 -53.515  13.183  1.00  0.00     0.330 A 
HETATM    5  C   UNL     1     -41.016 -51.159  13.317  1.00  0.00     0.144 A 
HETATM    6  C   UNL     1     -42.223 -51.380  12.809  1.00  0.00     0.175 A 
HETATM    7  C   UNL     1     -42.577 -52.778  12.494  1.00  0.00     0.143 A 
HETATM    8  O   UNL     1     -39.674 -54.430  13.283  1.00  0.00    -0.246 OA
HETATM    9  F   UNL     1     -43.126 -50.415  12.560  1.00  0.00    -0.201 F 
ENDROOT
BRANCH   1  10
HETATM   10  C   UNL     1     -38.764 -51.974  14.006  1.00  0.00     0.243 C 
HETATM   11  O   UNL     1     -37.857 -51.852  12.887  1.00  0.00    -0.348 OA
HETATM   12  C   UNL     1     -37.381 -50.506  12.731  1.00  0.00     0.209 C 
HETATM   13  S   UNL     1     -38.184 -49.406  13.910  1.00  0.00    -0.131 SA
HETATM   14  C   UNL     1     -38.567 -50.795  14.974  1.00  0.00     0.131 C 
BRANCH  12  15
HETATM   15  C   UNL     1     -37.531 -50.012  11.281  1.00  0.00     0.207 C 
BRANCH  15  16
HETATM   16  O   UNL     1     -38.884 -50.036  10.819  1.00  0.00    -0.398 OA
HETATM   17  H   UNL     1     -39.290 -49.187  11.063  1.00  0.00     0.209 HD
ENDBRANCH  15  16
ENDBRANCH  12  15
ENDBRANCH   1  10
BRANCH   7  18
HETATM   18  N   UNL     1     -43.807 -53.080  11.969  1.00  0.00    -0.383 N 
HETATM   19  H   UNL     1     -44.570 -53.210  12.623  1.00  0.00     0.157 HD
HETATM   20  H   UNL     1     -43.772 -53.755  11.212  1.00  0.00     0.157 HD
ENDBRANCH   7  18
TORSDOF 4
ENDMDL
MODEL 3
REMARK VINA RESULT:      -5.2      6.547      7.748
REMARK  4 active torsions:
REMARK  status: ('A' for Active; 'I' for Inactive)
REMARK    1  A    between atoms: N_1  and  C_8 
REMARK    2  A    between atoms: C_7  and  N_15 
REMARK    3  A    between atoms: C_11  and  C_17 
REMARK    4  A    between atoms: O_16  and  C_17 
ROOT
HETATM    1  N   UNL     1     -42.195 -53.632  13.517  1.00  0.00    -0.279 N 
HETATM    2  N   UNL     1     -43.908 -54.926  14.588  1.00  0.00    -0.292 N 
ATOM      3  HN  UNL     1     -44.208 -55.578  15.314  1.00  0.00     0.172 HD
HETATM    4  C   UNL     1     -42.575 -54.602  14.460  1.00  0.00     0.330 A 
HETATM    5  C   UNL     1     -43.128 -53.095  12.652  1.00  0.00     0.144 A 
HETATM    6  C   UNL     1     -44.409 -53.428  12.740  1.00  0.00     0.175 A 
HETATM    7  C   UNL     1     -44.783 -54.402  13.784  1.00  0.00     0.143 A 
HETATM    8  O   UNL     1     -41.731 -55.166  15.155  1.00  0.00    -0.246 OA
HETATM    9  F   UNL     1     -45.373 -52.943  11.937  1.00  0.00    -0.201 F 
ENDROOT
BRANCH   1  10
HETATM   10  C   UNL     1     -40.756 -53.365  13.369  1.00  0.00     0.243 C 
HETATM   11  O   UNL     1     -40.482 -52.633  12.153  1.00  0.00    -0.348 OA
HETATM   12  C   UNL     1     -40.084 -51.280  12.423  1.00  0.00     0.209 C 
HETATM   13  S   UNL     1     -40.190 -50.925  14.186  1.00  0.00    -0.131 SA
HETATM   14  C   UNL     1     -40.078 -52.673  14.564  1.00  0.00     0.131 C 
BRANCH  12  15
HETATM   15  C   UNL     1     -40.883 -50.270  11.579  1.00  0.00     0.207 C 
BRANCH  15  16
HETATM   16  O   UNL     1     -40.305 -50.036  10.293  1.00  0.00    -0.398 OA
HETATM   17  H   UNL     1     -39.551 -49.435  10.418  1.00  0.00     0.209 HD
ENDBRANCH  15  16
ENDBRANCH  12  15
ENDBRANCH   1  10
BRANCH   7  18
HETATM   18  N   UNL     1     -46.089 -54.792  13.934  1.00  0.00    -0.383 N 
HETATM   19  H   UNL     1     -46.256 -55.700  14.351  1.00  0.00     0.157 HD
HETATM   20  H   UNL     1     -46.674 -54.574  13.134  1.00  0.00     0.157 HD
ENDBRANCH   7  18
TORSDOF 4
ENDMDL
MODEL 4
REMARK VINA RESULT:      -5.1      7.766      8.755
REMARK  4 active torsions:
REMARK  status: ('A' for Active; 'I' for Inactive)
REMARK    1  A    between atoms: N_1  and  C_8 
REMARK    2  A    between atoms: C_7  and  N_15 
REMARK    3  A    between atoms: C_11  and  C_17 
REMARK    4  A    between atoms: O_16  and  C_17 
ROOT
HETATM    1  N   UNL     1     -44.127 -53.677  14.494  1.00  0.00    -0.279 N 
HETATM    2  N   UNL     1     -46.023 -53.641  13.023  1.00  0.00    -0.292 N 
ATOM      3  HN  UNL     1     -46.840 -54.095  12.614  1.00  0.00     0.172 HD
HETATM    4  C   UNL     1     -45.194 -54.345  13.869  1.00  0.00     0.330 A 
HETATM    5  C   UNL     1     -43.845 -52.363  14.178  1.00  0.00     0.144 A 
HETATM    6  C   UNL     1     -44.613 -51.685  13.335  1.00  0.00     0.175 A 
HETATM    7  C   UNL     1     -45.763 -52.399  12.745  1.00  0.00     0.143 A 
HETATM    8  O   UNL     1     -45.380 -55.546  14.061  1.00  0.00    -0.246 OA
HETATM    9  F   UNL     1     -44.403 -50.404  12.984  1.00  0.00    -0.201 F 
ENDROOT
BRANCH   1  10
HETATM   10  C   UNL     1     -43.230 -54.482  15.337  1.00  0.00     0.243 C 
HETATM   11  O   UNL     1     -42.115 -54.994  14.573  1.00  0.00    -0.348 OA
HETATM   12  C   UNL     1     -40.882 -54.353  14.934  1.00  0.00     0.209 C 
HETATM   13  S   UNL     1     -41.175 -53.035  16.127  1.00  0.00    -0.131 SA
HETATM   14  C   UNL     1     -42.721 -53.796  16.617  1.00  0.00     0.131 C 
BRANCH  12  15
HETATM   15  C   UNL     1     -40.114 -53.854  13.696  1.00  0.00     0.207 C 
BRANCH  15  16
HETATM   16  O   UNL     1     -39.004 -54.687  13.354  1.00  0.00    -0.398 OA
HETATM   17  H   UNL     1     -38.201 -54.258  13.697  1.00  0.00     0.209 HD
ENDBRANCH  15  16
ENDBRANCH  12  15
ENDBRANCH   1  10
BRANCH   7  18
HETATM   18  N   UNL     1     -46.600 -51.761  11.867  1.00  0.00    -0.383 N 
HETATM   19  H   UNL     1     -47.579 -52.020  11.891  1.00  0.00     0.157 HD
HETATM   20  H   UNL     1     -46.209 -51.649  10.938  1.00  0.00     0.157 HD
ENDBRANCH   7  18
TORSDOF 4
ENDMDL
MODEL 5
REMARK VINA RESULT:      -5.0      8.024      9.486
REMARK  4 active torsions:
REMARK  status: ('A' for Active; 'I' for Inactive)
REMARK    1  A    between atoms: N_1  and  C_8 
REMARK    2  A    between atoms: C_7  and  N_15 
REMARK    3  A    between atoms: C_11  and  C_17 
REMARK    4  A    between atoms: O_16  and  C_17 
ROOT
HETATM    1  N   UNL     1     -44.358 -53.263  14.027  1.00  0.00    -0.279 N 
HETATM    2  N   UNL     1     -43.496 -52.843  11.827  1.00  0.00    -0.292 N 
ATOM      3  HN  UNL     1     -43.643 -52.653  10.835  1.00  0.00     0.172 HD
HETATM    4  C   UNL     1     -44.574 -53.097  12.648  1.00  0.00     0.330 A 
HETATM    5  C   UNL     1     -43.075 -53.286  14.535  1.00  0.00     0.144 A 
HETATM    6  C   UNL     1     -42.026 -53.080  13.749  1.00  0.00     0.175 A 
HETATM    7  C   UNL     1     -42.293 -52.846  12.316  1.00  0.00     0.143 A 
HETATM    8  O   UNL     1     -45.705 -53.189  12.174  1.00  0.00    -0.246 OA
HETATM    9  F   UNL     1     -40.751 -53.083  14.174  1.00  0.00    -0.201 F 
ENDROOT
BRANCH   1  10
HETATM   10  C   UNL     1     -45.527 -53.598  14.854  1.00  0.00     0.243 C 
HETATM   11  O   UNL     1     -45.194 -54.585  15.856  1.00  0.00    -0.348 OA
HETATM   12  C   UNL     1     -45.184 -54.022  17.177  1.00  0.00     0.209 C 
HETATM   13  S   UNL     1     -45.465 -52.244  17.113  1.00  0.00    -0.131 SA
HETATM   14  C   UNL     1     -46.246 -52.405  15.509  1.00  0.00     0.131 C 
BRANCH  12  15
HETATM   15  C   UNL     1     -43.895 -54.379  17.940  1.00  0.00     0.207 C 
BRANCH  15  16
HETATM   16  O   UNL     1     -43.255 -55.555  17.438  1.00  0.00    -0.398 OA
HETATM   17  H   UNL     1     -43.496 -56.291  18.026  1.00  0.00     0.209 HD
ENDBRANCH  15  16
ENDBRANCH  12  15
ENDBRANCH   1  10
BRANCH   7  18
HETATM   18  N   UNL     1     -41.258 -52.624  11.444  1.00  0.00    -0.383 N 
HETATM   19  H   UNL     1     -41.224 -51.721  10.986  1.00  0.00     0.157 HD
HETATM   20  H   UNL     1     -41.054 -53.417  10.845  1.00  0.00     0.157 HD
ENDBRANCH   7  18
TORSDOF 4
ENDMDL
MODEL 6
REMARK VINA RESULT:      -4.8      7.623      9.567
REMARK  4 active torsions:
REMARK  status: ('A' for Active; 'I' for Inactive)
REMARK    1  A    between atoms: N_1  and  C_8 
REMARK    2  A    between atoms: C_7  and  N_15 
REMARK    3  A    between atoms: C_11  and  C_17 
REMARK    4  A    between atoms: O_16  and  C_17 
ROOT
HETATM    1  N   UNL     1     -42.495 -53.222  13.210  1.00  0.00    -0.279 N 
HETATM    2  N   UNL     1     -40.129 -53.537  12.959  1.00  0.00    -0.292 N 
ATOM      3  HN  UNL     1     -39.248 -53.321  12.492  1.00  0.00     0.172 HD
HETATM    4  C   UNL     1     -41.306 -52.987  12.498  1.00  0.00     0.330 A 
HETATM    5  C   UNL     1     -42.505 -54.083  14.289  1.00  0.00     0.144 A 
HETATM    6  C   UNL     1     -41.384 -54.649  14.720  1.00  0.00     0.175 A 
HETATM    7  C   UNL     1     -40.142 -54.330  13.987  1.00  0.00     0.143 A 
HETATM    8  O   UNL     1     -41.314 -52.313  11.470  1.00  0.00    -0.246 OA
HETATM    9  F   UNL     1     -41.316 -55.492  15.766  1.00  0.00    -0.201 F 
ENDROOT
BRANCH   1  10
HETATM   10  C   UNL     1     -43.737 -52.672  12.646  1.00  0.00     0.243 C 
HETATM   11  O   UNL     1     -44.787 -53.665  12.624  1.00  0.00    -0.348 OA
HETATM   12  C   UNL     1     -45.814 -53.375  13.585  1.00  0.00     0.209 C 
HETATM   13  S   UNL     1     -45.372 -51.938  14.577  1.00  0.00    -0.131 SA
HETATM   14  C   UNL     1     -44.250 -51.376  13.298  1.00  0.00     0.131 C 
BRANCH  12  15
HETATM   15  C   UNL     1     -46.145 -54.601  14.455  1.00  0.00     0.207 C 
BRANCH  15  16
HETATM   16  O   UNL     1     -45.659 -55.827  13.902  1.00  0.00    -0.398 OA
HETATM   17  H   UNL     1     -46.286 -56.527  14.153  1.00  0.00     0.209 HD
ENDBRANCH  15  16
ENDBRANCH  12  15
ENDBRANCH   1  10
BRANCH   7  18
HETATM   18  N   UNL     1     -38.947 -54.877  14.377  1.00  0.00    -0.383 N 
HETATM   19  H   UNL     1     -38.681 -54.762  15.348  1.00  0.00     0.157 HD
HETATM   20  H   UNL     1     -38.198 -54.737  13.707  1.00  0.00     0.157 HD
ENDBRANCH   7  18
TORSDOF 4
ENDMDL
MODEL 7
REMARK VINA RESULT:      -4.8      3.099      3.982
REMARK  4 active torsions:
REMARK  status: ('A' for Active; 'I' for Inactive)
REMARK    1  A    between atoms: N_1  and  C_8 
REMARK    2  A    between atoms: C_7  and  N_15 
REMARK    3  A    between atoms: C_11  and  C_17 
REMARK    4  A    between atoms: O_16  and  C_17 
ROOT
HETATM    1  N   UNL     1     -40.879 -47.002  10.883  1.00  0.00    -0.279 N 
HETATM    2  N   UNL     1     -41.150 -49.366  10.563  1.00  0.00    -0.292 N 
ATOM      3  HN  UNL     1     -41.615 -50.155  10.115  1.00  0.00     0.172 HD
HETATM    4  C   UNL     1     -41.591 -48.081  10.330  1.00  0.00     0.330 A 
HETATM    5  C   UNL     1     -39.821 -47.230  11.740  1.00  0.00     0.144 A 
HETATM    6  C   UNL     1     -39.410 -48.464  12.003  1.00  0.00     0.175 A 
HETATM    7  C   UNL     1     -40.141 -49.571  11.355  1.00  0.00     0.143 A 
HETATM    8  O   UNL     1     -42.603 -47.886   9.658  1.00  0.00    -0.246 OA
HETATM    9  F   UNL     1     -38.386 -48.761  12.822  1.00  0.00    -0.201 F 
ENDROOT
BRANCH   1  10
HETATM   10  C   UNL     1     -41.423 -45.654  10.663  1.00  0.00     0.243 C 
HETATM   11  O   UNL     1     -42.525 -45.382  11.557  1.00  0.00    -0.348 OA
HETATM   12  C   UNL     1     -42.174 -44.414  12.557  1.00  0.00     0.209 C 
HETATM   13  S   UNL     1     -40.433 -43.969  12.429  1.00  0.00    -0.131 SA
HETATM   14  C   UNL     1     -40.403 -44.504  10.719  1.00  0.00     0.131 C 
BRANCH  12  15
HETATM   15  C   UNL     1     -42.546 -44.894  13.973  1.00  0.00     0.207 C 
BRANCH  15  16
HETATM   16  O   UNL     1     -43.834 -45.513  14.032  1.00  0.00    -0.398 OA
HETATM   17  H   UNL     1     -44.490 -44.846  13.767  1.00  0.00     0.209 HD
ENDBRANCH  15  16
ENDBRANCH  12  15
ENDBRANCH   1  10
BRANCH   7  18
HETATM   18  N   UNL     1     -39.771 -50.872  11.580  1.00  0.00    -0.383 N 
HETATM   19  H   UNL     1     -40.354 -51.595  11.175  1.00  0.00     0.157 HD
HETATM   20  H   UNL     1     -39.464 -51.050  12.530  1.00  0.00     0.157 HD
ENDBRANCH   7  18
TORSDOF 4
ENDMDL
MODEL 8
REMARK VINA RESULT:      -4.8      3.136      4.944
REMARK  4 active torsions:
REMARK  status: ('A' for Active; 'I' for Inactive)
REMARK    1  A    between atoms: N_1  and  C_8 
REMARK    2  A    between atoms: C_7  and  N_15 
REMARK    3  A    between atoms: C_11  and  C_17 
REMARK    4  A    between atoms: O_16  and  C_17 
ROOT
HETATM    1  N   UNL     1     -41.578 -47.938  12.026  1.00  0.00    -0.279 N 
HETATM    2  N   UNL     1     -43.066 -46.114  11.558  1.00  0.00    -0.292 N 
ATOM      3  HN  UNL     1     -43.539 -45.256  11.843  1.00  0.00     0.172 HD
HETATM    4  C   UNL     1     -42.295 -46.811  12.463  1.00  0.00     0.330 A 
HETATM    5  C   UNL     1     -41.732 -48.407  10.737  1.00  0.00     0.144 A 
HETATM    6  C   UNL     1     -42.502 -47.767   9.866  1.00  0.00     0.175 A 
HETATM    7  C   UNL     1     -43.191 -46.550  10.340  1.00  0.00     0.143 A 
HETATM    8  O   UNL     1     -42.250 -46.456  13.640  1.00  0.00    -0.246 OA
HETATM    9  F   UNL     1     -42.695 -48.161   8.595  1.00  0.00    -0.201 F 
ENDROOT
BRANCH   1  10
HETATM   10  C   UNL     1     -40.821 -48.689  13.040  1.00  0.00     0.243 C 
HETATM   11  O   UNL     1     -41.384 -50.004  13.244  1.00  0.00    -0.348 OA
HETATM   12  C   UNL     1     -40.530 -51.035  12.725  1.00  0.00     0.209 C 
HETATM   13  S   UNL     1     -39.109 -50.320  11.880  1.00  0.00    -0.131 SA
HETATM   14  C   UNL     1     -39.305 -48.795  12.799  1.00  0.00     0.131 C 
BRANCH  12  15
HETATM   15  C   UNL     1     -41.304 -52.019  11.828  1.00  0.00     0.207 C 
BRANCH  15  16
HETATM   16  O   UNL     1     -40.535 -53.170  11.468  1.00  0.00    -0.398 OA
HETATM   17  H   UNL     1     -41.065 -53.955  11.692  1.00  0.00     0.209 HD
ENDBRANCH  15  16
ENDBRANCH  12  15
ENDBRANCH   1  10
BRANCH   7  18
HETATM   18  N   UNL     1     -44.001 -45.837   9.495  1.00  0.00    -0.383 N 
HETATM   19  H   UNL     1     -44.882 -46.262   9.231  1.00  0.00     0.157 HD
HETATM   20  H   UNL     1     -43.500 -45.382   8.739  1.00  0.00     0.157 HD
ENDBRANCH   7  18
TORSDOF 4
ENDMDL
MODEL 9
REMARK VINA RESULT:      -4.7      8.414     10.137
REMARK  4 active torsions:
REMARK  status: ('A' for Active; 'I' for Inactive)
REMARK    1  A    between atoms: N_1  and  C_8 
REMARK    2  A    between atoms: C_7  and  N_15 
REMARK    3  A    between atoms: C_11  and  C_17 
REMARK    4  A    between atoms: O_16  and  C_17 
ROOT
HETATM    1  N   UNL     1     -42.732 -54.208  14.466  1.00  0.00    -0.279 N 
HETATM    2  N   UNL     1     -42.926 -53.343  12.235  1.00  0.00    -0.292 N 
ATOM      3  HN  UNL     1     -43.484 -53.136  11.407  1.00  0.00     0.172 HD
HETATM    4  C   UNL     1     -43.491 -54.015  13.298  1.00  0.00     0.330 A 
HETATM    5  C   UNL     1     -41.405 -53.831  14.507  1.00  0.00     0.144 A 
HETATM    6  C   UNL     1     -40.838 -53.217  13.476  1.00  0.00     0.175 A 
HETATM    7  C   UNL     1     -41.681 -52.974  12.289  1.00  0.00     0.143 A 
HETATM    8  O   UNL     1     -44.638 -54.450  13.216  1.00  0.00    -0.246 OA
HETATM    9  F   UNL     1     -39.554 -52.818  13.447  1.00  0.00    -0.201 F 
ENDROOT
BRANCH   1  10
HETATM   10  C   UNL     1     -43.352 -54.987  15.549  1.00  0.00     0.243 C 
HETATM   11  O   UNL     1     -42.584 -56.176  15.843  1.00  0.00    -0.348 OA
HETATM   12  C   UNL     1     -41.923 -56.082  17.114  1.00  0.00     0.209 C 
HETATM   13  S   UNL     1     -42.176 -54.455  17.845  1.00  0.00    -0.131 SA
HETATM   14  C   UNL     1     -43.643 -54.213  16.846  1.00  0.00     0.131 C 
BRANCH  12  15
HETATM   15  C   UNL     1     -40.430 -56.444  17.010  1.00  0.00     0.207 C 
BRANCH  15  16
HETATM   16  O   UNL     1     -40.205 -57.849  16.864  1.00  0.00    -0.398 OA
HETATM   17  H   UNL     1     -40.804 -58.305  17.479  1.00  0.00     0.209 HD
ENDBRANCH  15  16
ENDBRANCH  12  15
ENDBRANCH   1  10
BRANCH   7  18
HETATM   18  N   UNL     1     -41.163 -52.343  11.187  1.00  0.00    -0.383 N 
HETATM   19  H   UNL     1     -40.517 -51.580  11.352  1.00  0.00     0.157 HD
HETATM   20  H   UNL     1     -41.846 -52.176  10.455  1.00  0.00     0.157 HD
ENDBRANCH   7  18
TORSDOF 4
ENDMDL
