MODEL 1
REMARK VINA RESULT:      -5.8      0.000      0.000
REMARK  5 active torsions:
REMARK  status: ('A' for Active; 'I' for Inactive)
REMARK    1  A    between atoms: C_2  and  C_3 
REMARK    2  A    between atoms: C_6  and  C_7 
REMARK    3  A    between atoms: C_7  and  N_8 
REMARK       I    between atoms: N_8  and  C_9 
REMARK    4  A    between atoms: C_9  and  C_11 
REMARK    5  A    between atoms: C_11  and  C_12 
ROOT
HETATM    1  N   UNL     1     -40.733 -53.104  14.312  1.00  0.00    -0.360 N 
HETATM    2  C   UNL     1     -40.144 -52.440  13.252  1.00  0.00     0.222 C 
HETATM    3  O   UNL     1     -40.382 -52.690  12.075  1.00  0.00    -0.273 OA
HETATM    4  H   UNL     1     -40.565 -52.777  15.253  1.00  0.00     0.162 HD
ENDROOT
BRANCH   2   5
HETATM    5  C   UNL     1     -39.163 -51.362  13.659  1.00  0.00     0.145 C 
BRANCH   5   6
HETATM    6  C   UNL     1     -39.419 -50.106  12.906  1.00  0.00    -0.002 A 
HETATM    7  C   UNL     1     -38.649 -49.564  11.840  1.00  0.00     0.030 A 
HETATM    8  C   UNL     1     -37.420 -50.106  11.206  1.00  0.00     0.070 C 
HETATM    9  N   UNL     1     -39.159 -48.407  11.406  1.00  0.00    -0.303 N 
HETATM   10  N   UNL     1     -40.246 -48.212  12.167  1.00  0.00    -0.300 N 
ATOM     11  HN  UNL     1     -38.801 -47.807  10.663  1.00  0.00     0.186 HD
HETATM   12  C   UNL     1     -41.009 -46.999  11.994  1.00  0.00     0.177 C 
HETATM   13  C   UNL     1     -40.474 -49.220  13.068  1.00  0.00     0.033 A 
HETATM   14  C   UNL     1     -41.642 -49.274  13.983  1.00  0.00     0.070 C 
ENDBRANCH   5   6
ENDBRANCH   2   5
BRANCH   1  15
HETATM   15  C   UNL     1     -41.691 -54.170  14.109  1.00  0.00     0.127 C 
BRANCH  15  16
HETATM   16  C   UNL     1     -42.967 -53.994  14.958  1.00  0.00     0.003 C 
HETATM   17  C   UNL     1     -44.132 -54.899  14.519  1.00  0.00     0.006 C 
HETATM   18  C   UNL     1     -44.750 -54.475  13.184  1.00  0.00     0.005 C 
HETATM   19  C   UNL     1     -45.190 -53.003  13.171  1.00  0.00    -0.015 C 
HETATM   20  C   UNL     1     -44.024 -52.102  13.610  1.00  0.00     0.005 C 
HETATM   21  C   UNL     1     -43.420 -52.523  14.951  1.00  0.00     0.006 C 
BRANCH  19  22
HETATM   22  C   UNL     1     -46.474 -52.821  14.005  1.00  0.00     0.000 C 
HETATM   23  C   UNL     1     -46.774 -51.374  14.360  1.00  0.00     0.005 C 
ENDBRANCH  19  22
ENDBRANCH  15  16
ENDBRANCH   1  15
TORSDOF 5
ENDMDL
MODEL 2
REMARK VINA RESULT:      -5.8      1.669      1.946
REMARK  5 active torsions:
REMARK  status: ('A' for Active; 'I' for Inactive)
REMARK    1  A    between atoms: C_2  and  C_3 
REMARK    2  A    between atoms: C_6  and  C_7 
REMARK    3  A    between atoms: C_7  and  N_8 
REMARK       I    between atoms: N_8  and  C_9 
REMARK    4  A    between atoms: C_9  and  C_11 
REMARK    5  A    between atoms: C_11  and  C_12 
ROOT
HETATM    1  N   UNL     1     -42.387 -51.723  11.993  1.00  0.00    -0.360 N 
HETATM    2  C   UNL     1     -41.015 -51.550  11.978  1.00  0.00     0.222 C 
HETATM    3  O   UNL     1     -40.216 -52.411  12.332  1.00  0.00    -0.273 OA
HETATM    4  H   UNL     1     -42.978 -51.008  11.594  1.00  0.00     0.162 HD
ENDROOT
BRANCH   2   5
HETATM    5  C   UNL     1     -40.563 -50.192  11.485  1.00  0.00     0.145 C 
BRANCH   5   6
HETATM    6  C   UNL     1     -39.612 -49.574  12.447  1.00  0.00    -0.002 A 
HETATM    7  C   UNL     1     -38.201 -49.457  12.313  1.00  0.00     0.030 A 
HETATM    8  C   UNL     1     -37.328 -49.902  11.197  1.00  0.00     0.070 C 
HETATM    9  N   UNL     1     -37.656 -48.861  13.378  1.00  0.00    -0.303 N 
HETATM   10  N   UNL     1     -38.696 -48.584  14.178  1.00  0.00    -0.300 N 
ATOM     11  HN  UNL     1     -36.670 -48.661  13.544  1.00  0.00     0.186 HD
HETATM   12  C   UNL     1     -38.444 -47.980  15.465  1.00  0.00     0.177 C 
HETATM   13  C   UNL     1     -39.907 -48.960  13.655  1.00  0.00     0.033 A 
HETATM   14  C   UNL     1     -41.214 -48.713  14.314  1.00  0.00     0.070 C 
ENDBRANCH   5   6
ENDBRANCH   2   5
BRANCH   1  15
HETATM   15  C   UNL     1     -42.997 -52.957  12.441  1.00  0.00     0.127 C 
BRANCH  15  16
HETATM   16  C   UNL     1     -43.408 -52.913  13.927  1.00  0.00     0.003 C 
HETATM   17  C   UNL     1     -44.302 -54.090  14.357  1.00  0.00     0.006 C 
HETATM   18  C   UNL     1     -45.718 -54.007  13.782  1.00  0.00     0.005 C 
HETATM   19  C   UNL     1     -46.413 -52.672  14.095  1.00  0.00    -0.015 C 
HETATM   20  C   UNL     1     -45.515 -51.499  13.664  1.00  0.00     0.005 C 
HETATM   21  C   UNL     1     -44.106 -51.582  14.254  1.00  0.00     0.006 C 
BRANCH  19  22
HETATM   22  C   UNL     1     -46.840 -52.626  15.576  1.00  0.00     0.000 C 
HETATM   23  C   UNL     1     -47.298 -51.253  16.039  1.00  0.00     0.005 C 
ENDBRANCH  19  22
ENDBRANCH  15  16
ENDBRANCH   1  15
TORSDOF 5
ENDMDL
MODEL 3
REMARK VINA RESULT:      -5.7      1.763      2.456
REMARK  5 active torsions:
REMARK  status: ('A' for Active; 'I' for Inactive)
REMARK    1  A    between atoms: C_2  and  C_3 
REMARK    2  A    between atoms: C_6  and  C_7 
REMARK    3  A    between atoms: C_7  and  N_8 
REMARK       I    between atoms: N_8  and  C_9 
REMARK    4  A    between atoms: C_9  and  C_11 
REMARK    5  A    between atoms: C_11  and  C_12 
ROOT
HETATM    1  N   UNL     1     -42.502 -51.728  12.092  1.00  0.00    -0.360 N 
HETATM    2  C   UNL     1     -41.125 -51.650  11.985  1.00  0.00     0.222 C 
HETATM    3  O   UNL     1     -40.366 -52.560  12.302  1.00  0.00    -0.273 OA
HETATM    4  H   UNL     1     -43.068 -50.978  11.719  1.00  0.00     0.162 HD
ENDROOT
BRANCH   2   5
HETATM    5  C   UNL     1     -40.615 -50.333  11.442  1.00  0.00     0.145 C 
BRANCH   5   6
HETATM    6  C   UNL     1     -39.682 -49.692  12.407  1.00  0.00    -0.002 A 
HETATM    7  C   UNL     1     -38.271 -49.558  12.285  1.00  0.00     0.030 A 
HETATM    8  C   UNL     1     -37.381 -50.001  11.182  1.00  0.00     0.070 C 
HETATM    9  N   UNL     1     -37.744 -48.944  13.349  1.00  0.00    -0.303 N 
HETATM   10  N   UNL     1     -38.796 -48.673  14.137  1.00  0.00    -0.300 N 
ATOM     11  HN  UNL     1     -36.763 -48.729  13.523  1.00  0.00     0.186 HD
HETATM   12  C   UNL     1     -38.565 -48.054  15.420  1.00  0.00     0.177 C 
HETATM   13  C   UNL     1     -39.996 -49.071  13.606  1.00  0.00     0.033 A 
HETATM   14  C   UNL     1     -41.313 -48.835  14.250  1.00  0.00     0.070 C 
ENDBRANCH   5   6
ENDBRANCH   2   5
BRANCH   1  15
HETATM   15  C   UNL     1     -43.164 -52.910  12.599  1.00  0.00     0.127 C 
BRANCH  15  16
HETATM   16  C   UNL     1     -44.700 -52.775  12.610  1.00  0.00     0.003 C 
HETATM   17  C   UNL     1     -45.196 -51.391  13.064  1.00  0.00     0.006 C 
HETATM   18  C   UNL     1     -44.989 -51.143  14.561  1.00  0.00     0.005 C 
HETATM   19  C   UNL     1     -45.607 -52.242  15.440  1.00  0.00    -0.015 C 
HETATM   20  C   UNL     1     -45.108 -53.623  14.981  1.00  0.00     0.005 C 
HETATM   21  C   UNL     1     -45.331 -53.869  13.488  1.00  0.00     0.006 C 
BRANCH  19  22
HETATM   22  C   UNL     1     -47.142 -52.105  15.467  1.00  0.00     0.000 C 
HETATM   23  C   UNL     1     -47.661 -51.252  16.613  1.00  0.00     0.005 C 
ENDBRANCH  19  22
ENDBRANCH  15  16
ENDBRANCH   1  15
TORSDOF 5
ENDMDL
MODEL 4
REMARK VINA RESULT:      -5.7      2.254      3.628
REMARK  5 active torsions:
REMARK  status: ('A' for Active; 'I' for Inactive)
REMARK    1  A    between atoms: C_2  and  C_3 
REMARK    2  A    between atoms: C_6  and  C_7 
REMARK    3  A    between atoms: C_7  and  N_8 
REMARK       I    between atoms: N_8  and  C_9 
REMARK    4  A    between atoms: C_9  and  C_11 
REMARK    5  A    between atoms: C_11  and  C_12 
ROOT
HETATM    1  N   UNL     1     -43.256 -52.970  12.278  1.00  0.00    -0.360 N 
HETATM    2  C   UNL     1     -42.383 -53.753  13.009  1.00  0.00     0.222 C 
HETATM    3  O   UNL     1     -42.730 -54.469  13.944  1.00  0.00    -0.273 OA
HETATM    4  H   UNL     1     -42.916 -52.484  11.460  1.00  0.00     0.162 HD
ENDROOT
BRANCH   2   5
HETATM    5  C   UNL     1     -40.939 -53.660  12.565  1.00  0.00     0.145 C 
BRANCH   5   6
HETATM    6  C   UNL     1     -40.178 -52.729  13.441  1.00  0.00    -0.002 A 
HETATM    7  C   UNL     1     -39.372 -53.063  14.564  1.00  0.00     0.030 A 
HETATM    8  C   UNL     1     -39.075 -54.401  15.136  1.00  0.00     0.070 C 
HETATM    9  N   UNL     1     -38.848 -51.973  15.132  1.00  0.00    -0.303 N 
HETATM   10  N   UNL     1     -39.296 -50.954  14.382  1.00  0.00    -0.300 N 
ATOM     11  HN  UNL     1     -38.244 -51.926  15.952  1.00  0.00     0.186 HD
HETATM   12  C   UNL     1     -38.957 -49.605  14.766  1.00  0.00     0.177 C 
HETATM   13  C   UNL     1     -40.076 -51.351  13.326  1.00  0.00     0.033 A 
HETATM   14  C   UNL     1     -40.643 -50.425  12.314  1.00  0.00     0.070 C 
ENDBRANCH   5   6
ENDBRANCH   2   5
BRANCH   1  15
HETATM   15  C   UNL     1     -44.673 -52.929  12.569  1.00  0.00     0.127 C 
BRANCH  15  16
HETATM   16  C   UNL     1     -45.109 -51.604  13.227  1.00  0.00     0.003 C 
HETATM   17  C   UNL     1     -44.319 -51.257  14.501  1.00  0.00     0.006 C 
HETATM   18  C   UNL     1     -44.666 -52.163  15.686  1.00  0.00     0.005 C 
HETATM   19  C   UNL     1     -46.172 -52.198  15.990  1.00  0.00    -0.015 C 
HETATM   20  C   UNL     1     -46.957 -52.545  14.714  1.00  0.00     0.005 C 
HETATM   21  C   UNL     1     -46.615 -51.627  13.539  1.00  0.00     0.006 C 
BRANCH  19  22
HETATM   22  C   UNL     1     -46.613 -50.882  16.662  1.00  0.00     0.000 C 
HETATM   23  C   UNL     1     -48.050 -50.899  17.157  1.00  0.00     0.005 C 
ENDBRANCH  19  22
ENDBRANCH  15  16
ENDBRANCH   1  15
TORSDOF 5
ENDMDL
MODEL 5
REMARK VINA RESULT:      -5.6      1.764      3.037
REMARK  5 active torsions:
REMARK  status: ('A' for Active; 'I' for Inactive)
REMARK    1  A    between atoms: C_2  and  C_3 
REMARK    2  A    between atoms: C_6  and  C_7 
REMARK    3  A    between atoms: C_7  and  N_8 
REMARK       I    between atoms: N_8  and  C_9 
REMARK    4  A    between atoms: C_9  and  C_11 
REMARK    5  A    between atoms: C_11  and  C_12 
ROOT
HETATM    1  N   UNL     1     -42.616 -51.936  12.095  1.00  0.00    -0.360 N 
HETATM    2  C   UNL     1     -41.238 -51.891  11.992  1.00  0.00     0.222 C 
HETATM    3  O   UNL     1     -40.502 -52.822  12.303  1.00  0.00    -0.273 OA
HETATM    4  H   UNL     1     -43.163 -51.170  11.727  1.00  0.00     0.162 HD
ENDROOT
BRANCH   2   5
HETATM    5  C   UNL     1     -40.694 -50.582  11.461  1.00  0.00     0.145 C 
BRANCH   5   6
HETATM    6  C   UNL     1     -40.059 -49.795  12.552  1.00  0.00    -0.002 A 
HETATM    7  C   UNL     1     -40.706 -48.960  13.504  1.00  0.00     0.030 A 
HETATM    8  C   UNL     1     -42.154 -48.671  13.663  1.00  0.00     0.070 C 
HETATM    9  N   UNL     1     -39.825 -48.388  14.331  1.00  0.00    -0.303 N 
HETATM   10  N   UNL     1     -38.634 -48.856  13.930  1.00  0.00    -0.300 N 
ATOM     11  HN  UNL     1     -40.017 -47.740  15.095  1.00  0.00     0.186 HD
HETATM   12  C   UNL     1     -37.440 -48.379  14.588  1.00  0.00     0.177 C 
HETATM   13  C   UNL     1     -38.714 -49.736  12.882  1.00  0.00     0.033 A 
HETATM   14  C   UNL     1     -37.547 -50.440  12.292  1.00  0.00     0.070 C 
ENDBRANCH   5   6
ENDBRANCH   2   5
BRANCH   1  15
HETATM   15  C   UNL     1     -43.309 -53.106  12.590  1.00  0.00     0.127 C 
BRANCH  15  16
HETATM   16  C   UNL     1     -44.839 -52.923  12.626  1.00  0.00     0.003 C 
HETATM   17  C   UNL     1     -45.284 -51.506  13.032  1.00  0.00     0.006 C 
HETATM   18  C   UNL     1     -45.037 -51.203  14.512  1.00  0.00     0.005 C 
HETATM   19  C   UNL     1     -45.669 -52.245  15.449  1.00  0.00    -0.015 C 
HETATM   20  C   UNL     1     -45.223 -53.659  15.039  1.00  0.00     0.005 C 
HETATM   21  C   UNL     1     -45.485 -53.959  13.562  1.00  0.00     0.006 C 
BRANCH  19  22
HETATM   22  C   UNL     1     -47.199 -52.059  15.501  1.00  0.00     0.000 C 
HETATM   23  C   UNL     1     -47.676 -51.240  16.689  1.00  0.00     0.005 C 
ENDBRANCH  19  22
ENDBRANCH  15  16
ENDBRANCH   1  15
TORSDOF 5
ENDMDL
MODEL 6
REMARK VINA RESULT:      -5.4      1.941      2.568
REMARK  5 active torsions:
REMARK  status: ('A' for Active; 'I' for Inactive)
REMARK    1  A    between atoms: C_2  and  C_3 
REMARK    2  A    between atoms: C_6  and  C_7 
REMARK    3  A    between atoms: C_7  and  N_8 
REMARK       I    between atoms: N_8  and  C_9 
REMARK    4  A    between atoms: C_9  and  C_11 
REMARK    5  A    between atoms: C_11  and  C_12 
ROOT
HETATM    1  N   UNL     1     -42.119 -51.383  11.874  1.00  0.00    -0.360 N 
HETATM    2  C   UNL     1     -40.769 -51.098  11.957  1.00  0.00     0.222 C 
HETATM    3  O   UNL     1     -39.929 -51.895  12.364  1.00  0.00    -0.273 OA
HETATM    4  H   UNL     1     -42.738 -50.715  11.436  1.00  0.00     0.162 HD
ENDROOT
BRANCH   2   5
HETATM    5  C   UNL     1     -40.396 -49.704  11.502  1.00  0.00     0.145 C 
BRANCH   5   6
HETATM    6  C   UNL     1     -41.345 -48.700  12.053  1.00  0.00    -0.002 A 
HETATM    7  C   UNL     1     -42.277 -47.904  11.331  1.00  0.00     0.030 A 
HETATM    8  C   UNL     1     -42.549 -47.876   9.872  1.00  0.00     0.070 C 
HETATM    9  N   UNL     1     -42.959 -47.091  12.144  1.00  0.00    -0.303 N 
HETATM   10  N   UNL     1     -42.488 -47.368  13.370  1.00  0.00    -0.300 N 
ATOM     11  HN  UNL     1     -43.678 -46.414  11.889  1.00  0.00     0.186 HD
HETATM   12  C   UNL     1     -42.982 -46.608  14.494  1.00  0.00     0.177 C 
HETATM   13  C   UNL     1     -41.536 -48.354  13.382  1.00  0.00     0.033 A 
HETATM   14  C   UNL     1     -40.901 -48.885  14.615  1.00  0.00     0.070 C 
ENDBRANCH   5   6
ENDBRANCH   2   5
BRANCH   1  15
HETATM   15  C   UNL     1     -42.657 -52.666  12.274  1.00  0.00     0.127 C 
BRANCH  15  16
HETATM   16  C   UNL     1     -43.164 -52.672  13.730  1.00  0.00     0.003 C 
HETATM   17  C   UNL     1     -43.981 -53.924  14.096  1.00  0.00     0.006 C 
HETATM   18  C   UNL     1     -45.359 -53.955  13.430  1.00  0.00     0.005 C 
HETATM   19  C   UNL     1     -46.184 -52.687  13.703  1.00  0.00    -0.015 C 
HETATM   20  C   UNL     1     -45.363 -51.439  13.337  1.00  0.00     0.005 C 
HETATM   21  C   UNL     1     -43.993 -51.408  14.017  1.00  0.00     0.006 C 
BRANCH  19  22
HETATM   22  C   UNL     1     -46.708 -52.692  15.153  1.00  0.00     0.000 C 
HETATM   23  C   UNL     1     -47.219 -51.341  15.624  1.00  0.00     0.005 C 
ENDBRANCH  19  22
ENDBRANCH  15  16
ENDBRANCH   1  15
TORSDOF 5
ENDMDL
MODEL 7
REMARK VINA RESULT:      -5.4      2.593      6.577
REMARK  5 active torsions:
REMARK  status: ('A' for Active; 'I' for Inactive)
REMARK    1  A    between atoms: C_2  and  C_3 
REMARK    2  A    between atoms: C_6  and  C_7 
REMARK    3  A    between atoms: C_7  and  N_8 
REMARK       I    between atoms: N_8  and  C_9 
REMARK    4  A    between atoms: C_9  and  C_11 
REMARK    5  A    between atoms: C_11  and  C_12 
ROOT
HETATM    1  N   UNL     1     -42.848 -52.716  11.999  1.00  0.00    -0.360 N 
HETATM    2  C   UNL     1     -43.147 -53.689  12.935  1.00  0.00     0.222 C 
HETATM    3  O   UNL     1     -42.309 -54.213  13.662  1.00  0.00    -0.273 OA
HETATM    4  H   UNL     1     -43.603 -52.259  11.506  1.00  0.00     0.162 HD
ENDROOT
BRANCH   2   5
HETATM    5  C   UNL     1     -44.610 -54.070  12.994  1.00  0.00     0.145 C 
BRANCH   5   6
HETATM    6  C   UNL     1     -45.386 -53.057  13.759  1.00  0.00    -0.002 A 
HETATM    7  C   UNL     1     -46.305 -52.101  13.243  1.00  0.00     0.030 A 
HETATM    8  C   UNL     1     -46.728 -51.876  11.837  1.00  0.00     0.070 C 
HETATM    9  N   UNL     1     -46.809 -51.333  14.213  1.00  0.00    -0.303 N 
HETATM   10  N   UNL     1     -46.239 -51.794  15.337  1.00  0.00    -0.300 N 
ATOM     11  HN  UNL     1     -47.477 -50.569  14.120  1.00  0.00     0.186 HD
HETATM   12  C   UNL     1     -46.529 -51.132  16.587  1.00  0.00     0.177 C 
HETATM   13  C   UNL     1     -45.397 -52.856  15.131  1.00  0.00     0.033 A 
HETATM   14  C   UNL     1     -44.691 -53.584  16.215  1.00  0.00     0.070 C 
ENDBRANCH   5   6
ENDBRANCH   2   5
BRANCH   1  15
HETATM   15  C   UNL     1     -41.498 -52.235  11.800  1.00  0.00     0.127 C 
BRANCH  15  16
HETATM   16  C   UNL     1     -41.347 -50.733  12.115  1.00  0.00     0.003 C 
HETATM   17  C   UNL     1     -39.976 -50.153  11.723  1.00  0.00     0.006 C 
HETATM   18  C   UNL     1     -38.841 -50.637  12.628  1.00  0.00     0.005 C 
HETATM   19  C   UNL     1     -39.116 -50.383  14.119  1.00  0.00    -0.015 C 
HETATM   20  C   UNL     1     -40.487 -50.964  14.506  1.00  0.00     0.005 C 
HETATM   21  C   UNL     1     -41.618 -50.466  13.605  1.00  0.00     0.006 C 
BRANCH  19  22
HETATM   22  C   UNL     1     -38.953 -48.885  14.445  1.00  0.00     0.000 C 
HETATM   23  C   UNL     1     -37.601 -48.315  14.048  1.00  0.00     0.005 C 
ENDBRANCH  19  22
ENDBRANCH  15  16
ENDBRANCH   1  15
TORSDOF 5
ENDMDL
MODEL 8
REMARK VINA RESULT:      -5.3      2.461      3.835
REMARK  5 active torsions:
REMARK  status: ('A' for Active; 'I' for Inactive)
REMARK    1  A    between atoms: C_2  and  C_3 
REMARK    2  A    between atoms: C_6  and  C_7 
REMARK    3  A    between atoms: C_7  and  N_8 
REMARK       I    between atoms: N_8  and  C_9 
REMARK    4  A    between atoms: C_9  and  C_11 
REMARK    5  A    between atoms: C_11  and  C_12 
ROOT
HETATM    1  N   UNL     1     -43.213 -53.886  15.188  1.00  0.00    -0.360 N 
HETATM    2  C   UNL     1     -42.173 -54.172  16.052  1.00  0.00     0.222 C 
HETATM    3  O   UNL     1     -42.256 -54.074  17.273  1.00  0.00    -0.273 OA
HETATM    4  H   UNL     1     -43.105 -54.085  14.203  1.00  0.00     0.162 HD
ENDROOT
BRANCH   2   5
HETATM    5  C   UNL     1     -40.900 -54.623  15.370  1.00  0.00     0.145 C 
BRANCH   5   6
HETATM    6  C   UNL     1     -40.132 -53.453  14.865  1.00  0.00    -0.002 A 
HETATM    7  C   UNL     1     -39.117 -52.727  15.547  1.00  0.00     0.030 A 
HETATM    8  C   UNL     1     -38.562 -52.948  16.907  1.00  0.00     0.070 C 
HETATM    9  N   UNL     1     -38.651 -51.720  14.801  1.00  0.00    -0.303 N 
HETATM   10  N   UNL     1     -39.341 -51.803  13.654  1.00  0.00    -0.300 N 
ATOM     11  HN  UNL     1     -37.932 -51.041  15.049  1.00  0.00     0.186 HD
HETATM   12  C   UNL     1     -39.120 -50.807  12.633  1.00  0.00     0.177 C 
HETATM   13  C   UNL     1     -40.226 -52.851  13.620  1.00  0.00     0.033 A 
HETATM   14  C   UNL     1     -41.065 -53.197  12.445  1.00  0.00     0.070 C 
ENDBRANCH   5   6
ENDBRANCH   2   5
BRANCH   1  15
HETATM   15  C   UNL     1     -44.503 -53.434  15.665  1.00  0.00     0.127 C 
BRANCH  15  16
HETATM   16  C   UNL     1     -45.657 -53.815  14.716  1.00  0.00     0.003 C 
HETATM   17  C   UNL     1     -45.226 -53.962  13.246  1.00  0.00     0.006 C 
HETATM   18  C   UNL     1     -44.890 -52.624  12.584  1.00  0.00     0.005 C 
HETATM   19  C   UNL     1     -46.027 -51.597  12.701  1.00  0.00    -0.015 C 
HETATM   20  C   UNL     1     -46.454 -51.453  14.172  1.00  0.00     0.005 C 
HETATM   21  C   UNL     1     -46.802 -52.793  14.823  1.00  0.00     0.006 C 
BRANCH  19  22
HETATM   22  C   UNL     1     -47.179 -51.963  11.744  1.00  0.00     0.000 C 
HETATM   23  C   UNL     1     -47.471 -50.896  10.701  1.00  0.00     0.005 C 
ENDBRANCH  19  22
ENDBRANCH  15  16
ENDBRANCH   1  15
TORSDOF 5
ENDMDL
MODEL 9
REMARK VINA RESULT:      -5.3      2.302      6.858
REMARK  5 active torsions:
REMARK  status: ('A' for Active; 'I' for Inactive)
REMARK    1  A    between atoms: C_2  and  C_3 
REMARK    2  A    between atoms: C_6  and  C_7 
REMARK    3  A    between atoms: C_7  and  N_8 
REMARK       I    between atoms: N_8  and  C_9 
REMARK    4  A    between atoms: C_9  and  C_11 
REMARK    5  A    between atoms: C_11  and  C_12 
ROOT
HETATM    1  N   UNL     1     -42.671 -51.236  12.178  1.00  0.00    -0.360 N 
HETATM    2  C   UNL     1     -42.478 -52.587  12.398  1.00  0.00     0.222 C 
HETATM    3  O   UNL     1     -41.386 -53.087  12.645  1.00  0.00    -0.273 OA
HETATM    4  H   UNL     1     -43.613 -50.882  12.079  1.00  0.00     0.162 HD
ENDROOT
BRANCH   2   5
HETATM    5  C   UNL     1     -43.738 -53.420  12.307  1.00  0.00     0.145 C 
BRANCH   5   6
HETATM    6  C   UNL     1     -44.533 -53.311  13.560  1.00  0.00    -0.002 A 
HETATM    7  C   UNL     1     -44.318 -54.004  14.783  1.00  0.00     0.030 A 
HETATM    8  C   UNL     1     -43.259 -54.988  15.126  1.00  0.00     0.070 C 
HETATM    9  N   UNL     1     -45.235 -53.678  15.698  1.00  0.00    -0.303 N 
HETATM   10  N   UNL     1     -46.020 -52.781  15.083  1.00  0.00    -0.300 N 
ATOM     11  HN  UNL     1     -45.320 -54.033  16.651  1.00  0.00     0.186 HD
HETATM   12  C   UNL     1     -47.168 -52.260  15.787  1.00  0.00     0.177 C 
HETATM   13  C   UNL     1     -45.626 -52.493  13.801  1.00  0.00     0.033 A 
HETATM   14  C   UNL     1     -46.289 -51.491  12.929  1.00  0.00     0.070 C 
ENDBRANCH   5   6
ENDBRANCH   2   5
BRANCH   1  15
HETATM   15  C   UNL     1     -41.576 -50.290  12.219  1.00  0.00     0.127 C 
BRANCH  15  16
HETATM   16  C   UNL     1     -42.018 -48.886  12.678  1.00  0.00     0.003 C 
HETATM   17  C   UNL     1     -43.011 -48.205  11.719  1.00  0.00     0.006 C 
HETATM   18  C   UNL     1     -42.365 -47.763  10.403  1.00  0.00     0.005 C 
HETATM   19  C   UNL     1     -41.133 -46.868  10.613  1.00  0.00    -0.015 C 
HETATM   20  C   UNL     1     -40.144 -47.552  11.572  1.00  0.00     0.005 C 
HETATM   21  C   UNL     1     -40.794 -47.978  12.890  1.00  0.00     0.006 C 
BRANCH  19  22
HETATM   22  C   UNL     1     -41.567 -45.457  11.059  1.00  0.00     0.000 C 
HETATM   23  C   UNL     1     -40.405 -44.517  11.332  1.00  0.00     0.005 C 
ENDBRANCH  19  22
ENDBRANCH  15  16
ENDBRANCH   1  15
TORSDOF 5
ENDMDL
