MODEL 1
REMARK VINA RESULT:      -6.4      0.000      0.000
REMARK  5 active torsions:
REMARK  status: ('A' for Active; 'I' for Inactive)
REMARK    1  A    between atoms: N_2  and  C_4 
REMARK    2  A    between atoms: C_9  and  N_10 
REMARK       I    between atoms: N_10  and  C_11 
REMARK       I    between atoms: C_11  and  N_13 
REMARK    3  A    between atoms: N_13  and  C_14 
REMARK    4  A    between atoms: C_14  and  C_15 
REMARK    5  A    between atoms: C_15  and  N_18 
ROOT
HETATM    1  N   UNL     1     -40.556 -49.834  11.087  1.00  0.00    -0.141 N 
HETATM    2  C   UNL     1     -41.187 -50.806  11.807  1.00  0.00     0.334 C 
HETATM    3  O   UNL     1     -42.309 -50.755  12.298  1.00  0.00    -0.247 OA
HETATM    4  N   UNL     1     -40.410 -51.941  11.870  1.00  0.00    -0.340 N 
HETATM    5  H   UNL     1     -39.755 -50.078  10.534  1.00  0.00     0.189 HD
HETATM    6  H   UNL     1     -39.415 -51.806  11.811  1.00  0.00     0.164 HD
ENDROOT
BRANCH   1   7
HETATM    7  C   UNL     1     -41.083 -48.595  10.749  1.00  0.00     0.687 A 
HETATM    8  N   UNL     1     -40.357 -47.565  11.204  1.00  0.00    -0.201 N 
HETATM    9  C   UNL     1     -40.793 -46.349  10.853  1.00  0.00     0.110 A 
ATOM     10  HN  UNL     1     -39.526 -47.699  11.780  1.00  0.00     0.183 HD
HETATM   11  C   UNL     1     -41.924 -46.136  10.093  1.00  0.00     0.066 A 
HETATM   12  C   UNL     1     -42.636 -47.249   9.693  1.00  0.00     0.119 A 
HETATM   13  N   UNL     1     -42.206 -48.475  10.038  1.00  0.00    -0.176 N 
ATOM     14  HN  UNL     1     -42.732 -49.303   9.760  1.00  0.00     0.186 HD
BRANCH  12  15
HETATM   15  N   UNL     1     -43.829 -47.128   8.971  1.00  0.00    -0.376 N 
HETATM   16  C   UNL     1     -44.486 -45.831   8.931  1.00  0.00     0.150 C 
HETATM   17  C   UNL     1     -43.876 -47.934   7.751  1.00  0.00     0.150 C 
ENDBRANCH  12  15
ENDBRANCH   1   7
BRANCH   4  18
HETATM   18  C   UNL     1     -40.860 -53.149  12.532  1.00  0.00     0.154 C 
BRANCH  18  19
HETATM   19  C   UNL     1     -40.219 -53.340  13.943  1.00  0.00     0.036 C 
HETATM   20  C   UNL     1     -39.377 -54.642  13.894  1.00  0.00     0.039 C 
HETATM   21  C   UNL     1     -39.211 -52.187  14.174  1.00  0.00     0.039 C 
BRANCH  19  22
HETATM   22  N   UNL     1     -41.189 -53.462  15.051  1.00  0.00    -0.399 N 
HETATM   23  C   UNL     1     -41.674 -54.783  15.455  1.00  0.00     0.144 C 
HETATM   24  C   UNL     1     -43.136 -55.012  15.053  1.00  0.00     0.187 C 
HETATM   25  O   UNL     1     -43.978 -54.023  15.652  1.00  0.00    -0.388 OA
HETATM   26  C   UNL     1     -43.610 -52.709  15.222  1.00  0.00     0.187 C 
HETATM   27  C   UNL     1     -42.114 -52.393  15.427  1.00  0.00     0.144 C 
ENDBRANCH  19  22
ENDBRANCH  18  19
ENDBRANCH   4  18
TORSDOF 5
ENDMDL
MODEL 2
REMARK VINA RESULT:      -6.3      2.630      3.830
REMARK  5 active torsions:
REMARK  status: ('A' for Active; 'I' for Inactive)
REMARK    1  A    between atoms: N_2  and  C_4 
REMARK    2  A    between atoms: C_9  and  N_10 
REMARK       I    between atoms: N_10  and  C_11 
REMARK       I    between atoms: C_11  and  N_13 
REMARK    3  A    between atoms: N_13  and  C_14 
REMARK    4  A    between atoms: C_14  and  C_15 
REMARK    5  A    between atoms: C_15  and  N_18 
ROOT
HETATM    1  N   UNL     1     -43.233 -49.712  12.504  1.00  0.00    -0.141 N 
HETATM    2  C   UNL     1     -43.484 -49.715  13.845  1.00  0.00     0.334 C 
HETATM    3  O   UNL     1     -43.263 -48.813  14.645  1.00  0.00    -0.247 OA
HETATM    4  N   UNL     1     -44.110 -50.885  14.215  1.00  0.00    -0.340 N 
HETATM    5  H   UNL     1     -43.678 -50.397  11.922  1.00  0.00     0.189 HD
HETATM    6  H   UNL     1     -43.915 -51.695  13.652  1.00  0.00     0.164 HD
ENDROOT
BRANCH   1   7
HETATM    7  C   UNL     1     -42.694 -48.659  11.777  1.00  0.00     0.687 A 
HETATM    8  N   UNL     1     -41.610 -48.118  12.349  1.00  0.00    -0.201 N 
HETATM    9  C   UNL     1     -41.019 -47.136  11.656  1.00  0.00     0.110 A 
ATOM     10  HN  UNL     1     -41.259 -48.432  13.253  1.00  0.00     0.183 HD
HETATM   11  C   UNL     1     -41.484 -46.675  10.441  1.00  0.00     0.066 A 
HETATM   12  C   UNL     1     -42.627 -47.263   9.938  1.00  0.00     0.119 A 
HETATM   13  N   UNL     1     -43.227 -48.251  10.624  1.00  0.00    -0.176 N 
ATOM     14  HN  UNL     1     -44.080 -48.682  10.267  1.00  0.00     0.186 HD
BRANCH  12  15
HETATM   15  N   UNL     1     -43.205 -46.820   8.742  1.00  0.00    -0.376 N 
HETATM   16  C   UNL     1     -43.522 -47.803   7.719  1.00  0.00     0.150 C 
HETATM   17  C   UNL     1     -44.139 -45.706   8.905  1.00  0.00     0.150 C 
ENDBRANCH  12  15
ENDBRANCH   1   7
BRANCH   4  18
HETATM   18  C   UNL     1     -44.540 -51.134  15.577  1.00  0.00     0.154 C 
BRANCH  18  19
HETATM   19  C   UNL     1     -45.899 -51.900  15.651  1.00  0.00     0.036 C 
HETATM   20  C   UNL     1     -46.626 -51.422  16.937  1.00  0.00     0.039 C 
HETATM   21  C   UNL     1     -46.779 -51.436  14.465  1.00  0.00     0.039 C 
BRANCH  19  22
HETATM   22  N   UNL     1     -45.776 -53.371  15.714  1.00  0.00    -0.399 N 
HETATM   23  C   UNL     1     -44.599 -53.981  16.335  1.00  0.00     0.144 C 
HETATM   24  C   UNL     1     -43.669 -54.628  15.304  1.00  0.00     0.187 C 
HETATM   25  O   UNL     1     -44.364 -55.641  14.571  1.00  0.00    -0.388 OA
HETATM   26  C   UNL     1     -45.478 -55.088  13.864  1.00  0.00     0.187 C 
HETATM   27  C   UNL     1     -46.430 -54.270  14.762  1.00  0.00     0.144 C 
ENDBRANCH  19  22
ENDBRANCH  18  19
ENDBRANCH   4  18
TORSDOF 5
ENDMDL
MODEL 3
REMARK VINA RESULT:      -6.3      2.676      7.319
REMARK  5 active torsions:
REMARK  status: ('A' for Active; 'I' for Inactive)
REMARK    1  A    between atoms: N_2  and  C_4 
REMARK    2  A    between atoms: C_9  and  N_10 
REMARK       I    between atoms: N_10  and  C_11 
REMARK       I    between atoms: C_11  and  N_13 
REMARK    3  A    between atoms: N_13  and  C_14 
REMARK    4  A    between atoms: C_14  and  C_15 
REMARK    5  A    between atoms: C_15  and  N_18 
ROOT
HETATM    1  N   UNL     1     -41.512 -50.695  11.470  1.00  0.00    -0.141 N 
HETATM    2  C   UNL     1     -40.815 -49.668  12.038  1.00  0.00     0.334 C 
HETATM    3  O   UNL     1     -40.379 -49.610  13.182  1.00  0.00    -0.247 OA
HETATM    4  N   UNL     1     -40.583 -48.674  11.113  1.00  0.00    -0.340 N 
HETATM    5  H   UNL     1     -41.596 -50.734  10.471  1.00  0.00     0.189 HD
HETATM    6  H   UNL     1     -41.255 -48.587  10.370  1.00  0.00     0.164 HD
ENDROOT
BRANCH   1   7
HETATM    7  C   UNL     1     -41.841 -51.896  12.083  1.00  0.00     0.687 A 
HETATM    8  N   UNL     1     -40.775 -52.578  12.523  1.00  0.00    -0.201 N 
HETATM    9  C   UNL     1     -41.044 -53.716  13.175  1.00  0.00     0.110 A 
ATOM     10  HN  UNL     1     -39.821 -52.251  12.371  1.00  0.00     0.183 HD
HETATM   11  C   UNL     1     -42.323 -54.193  13.377  1.00  0.00     0.066 A 
HETATM   12  C   UNL     1     -43.364 -53.448  12.861  1.00  0.00     0.119 A 
HETATM   13  N   UNL     1     -43.106 -52.303  12.207  1.00  0.00    -0.176 N 
ATOM     14  HN  UNL     1     -43.867 -51.752  11.810  1.00  0.00     0.186 HD
BRANCH  12  15
HETATM   15  N   UNL     1     -44.690 -53.885  12.965  1.00  0.00    -0.376 N 
HETATM   16  C   UNL     1     -45.007 -54.913  13.943  1.00  0.00     0.150 C 
HETATM   17  C   UNL     1     -45.686 -52.832  12.762  1.00  0.00     0.150 C 
ENDBRANCH  12  15
ENDBRANCH   1   7
BRANCH   4  18
HETATM   18  C   UNL     1     -39.818 -47.485  11.434  1.00  0.00     0.154 C 
BRANCH  18  19
HETATM   19  C   UNL     1     -40.635 -46.169  11.238  1.00  0.00     0.036 C 
HETATM   20  C   UNL     1     -39.765 -45.210  10.383  1.00  0.00     0.039 C 
HETATM   21  C   UNL     1     -41.880 -46.499  10.378  1.00  0.00     0.039 C 
BRANCH  19  22
HETATM   22  N   UNL     1     -40.992 -45.471  12.491  1.00  0.00    -0.399 N 
HETATM   23  C   UNL     1     -41.630 -46.208  13.583  1.00  0.00     0.144 C 
HETATM   24  C   UNL     1     -43.107 -45.832  13.752  1.00  0.00     0.187 C 
HETATM   25  O   UNL     1     -43.238 -44.433  14.019  1.00  0.00    -0.388 OA
HETATM   26  C   UNL     1     -42.711 -43.654  12.940  1.00  0.00     0.187 C 
HETATM   27  C   UNL     1     -41.267 -44.035  12.556  1.00  0.00     0.144 C 
ENDBRANCH  19  22
ENDBRANCH  18  19
ENDBRANCH   4  18
TORSDOF 5
ENDMDL
MODEL 4
REMARK VINA RESULT:      -6.2      0.922      2.198
REMARK  5 active torsions:
REMARK  status: ('A' for Active; 'I' for Inactive)
REMARK    1  A    between atoms: N_2  and  C_4 
REMARK    2  A    between atoms: C_9  and  N_10 
REMARK       I    between atoms: N_10  and  C_11 
REMARK       I    between atoms: C_11  and  N_13 
REMARK    3  A    between atoms: N_13  and  C_14 
REMARK    4  A    between atoms: C_14  and  C_15 
REMARK    5  A    between atoms: C_15  and  N_18 
ROOT
HETATM    1  N   UNL     1     -40.605 -49.717  10.999  1.00  0.00    -0.141 N 
HETATM    2  C   UNL     1     -41.214 -50.677  11.753  1.00  0.00     0.334 C 
HETATM    3  O   UNL     1     -42.304 -50.605  12.308  1.00  0.00    -0.247 OA
HETATM    4  N   UNL     1     -40.457 -51.828  11.771  1.00  0.00    -0.340 N 
HETATM    5  H   UNL     1     -39.843 -49.977  10.400  1.00  0.00     0.189 HD
HETATM    6  H   UNL     1     -39.464 -51.713  11.655  1.00  0.00     0.164 HD
ENDROOT
BRANCH   1   7
HETATM    7  C   UNL     1     -41.126 -48.467  10.692  1.00  0.00     0.687 A 
HETATM    8  N   UNL     1     -42.378 -48.516  10.217  1.00  0.00    -0.201 N 
HETATM    9  C   UNL     1     -42.946 -47.331   9.961  1.00  0.00     0.110 A 
ATOM     10  HN  UNL     1     -42.866 -49.397  10.060  1.00  0.00     0.183 HD
HETATM   11  C   UNL     1     -42.304 -46.123  10.143  1.00  0.00     0.066 A 
HETATM   12  C   UNL     1     -41.003 -46.163  10.603  1.00  0.00     0.119 A 
HETATM   13  N   UNL     1     -40.423 -47.346  10.865  1.00  0.00    -0.176 N 
ATOM     14  HN  UNL     1     -39.458 -47.387  11.191  1.00  0.00     0.186 HD
BRANCH  12  15
HETATM   15  N   UNL     1     -40.254 -44.991  10.760  1.00  0.00    -0.376 N 
HETATM   16  C   UNL     1     -39.905 -44.567  12.106  1.00  0.00     0.150 C 
HETATM   17  C   UNL     1     -39.253 -44.775   9.715  1.00  0.00     0.150 C 
ENDBRANCH  12  15
ENDBRANCH   1   7
BRANCH   4  18
HETATM   18  C   UNL     1     -40.893 -53.028  12.457  1.00  0.00     0.154 C 
BRANCH  18  19
HETATM   19  C   UNL     1     -40.223 -53.200  13.857  1.00  0.00     0.036 C 
HETATM   20  C   UNL     1     -39.381 -54.504  13.807  1.00  0.00     0.039 C 
HETATM   21  C   UNL     1     -39.210 -52.045  14.052  1.00  0.00     0.039 C 
BRANCH  19  22
HETATM   22  N   UNL     1     -41.170 -53.309  14.986  1.00  0.00    -0.399 N 
HETATM   23  C   UNL     1     -41.564 -54.628  15.485  1.00  0.00     0.144 C 
HETATM   24  C   UNL     1     -43.013 -54.976  15.124  1.00  0.00     0.187 C 
HETATM   25  O   UNL     1     -43.910 -54.004  15.669  1.00  0.00    -0.388 OA
HETATM   26  C   UNL     1     -43.632 -52.701  15.146  1.00  0.00     0.187 C 
HETATM   27  C   UNL     1     -42.157 -52.277  15.305  1.00  0.00     0.144 C 
ENDBRANCH  19  22
ENDBRANCH  18  19
ENDBRANCH   4  18
TORSDOF 5
ENDMDL
MODEL 5
REMARK VINA RESULT:      -6.2      1.866      2.728
REMARK  5 active torsions:
REMARK  status: ('A' for Active; 'I' for Inactive)
REMARK    1  A    between atoms: N_2  and  C_4 
REMARK    2  A    between atoms: C_9  and  N_10 
REMARK       I    between atoms: N_10  and  C_11 
REMARK       I    between atoms: C_11  and  N_13 
REMARK    3  A    between atoms: N_13  and  C_14 
REMARK    4  A    between atoms: C_14  and  C_15 
REMARK    5  A    between atoms: C_15  and  N_18 
ROOT
HETATM    1  N   UNL     1     -41.648 -50.223  11.504  1.00  0.00    -0.141 N 
HETATM    2  C   UNL     1     -41.811 -50.700  12.772  1.00  0.00     0.334 C 
HETATM    3  O   UNL     1     -41.987 -50.047  13.794  1.00  0.00    -0.247 OA
HETATM    4  N   UNL     1     -41.822 -52.078  12.770  1.00  0.00    -0.340 N 
HETATM    5  H   UNL     1     -41.760 -50.849  10.728  1.00  0.00     0.189 HD
HETATM    6  H   UNL     1     -41.307 -52.529  12.035  1.00  0.00     0.164 HD
ENDROOT
BRANCH   1   7
HETATM    7  C   UNL     1     -41.678 -48.888  11.124  1.00  0.00     0.687 A 
HETATM    8  N   UNL     1     -40.884 -48.106  11.868  1.00  0.00    -0.201 N 
HETATM    9  C   UNL     1     -40.833 -46.818  11.503  1.00  0.00     0.110 A 
ATOM     10  HN  UNL     1     -40.355 -48.467  12.661  1.00  0.00     0.183 HD
HETATM   11  C   UNL     1     -41.554 -46.297  10.449  1.00  0.00     0.066 A 
HETATM   12  C   UNL     1     -42.374 -47.163   9.754  1.00  0.00     0.119 A 
HETATM   13  N   UNL     1     -42.432 -48.458  10.111  1.00  0.00    -0.176 N 
ATOM     14  HN  UNL     1     -43.045 -49.103   9.613  1.00  0.00     0.186 HD
BRANCH  12  15
HETATM   15  N   UNL     1     -43.188 -46.711   8.709  1.00  0.00    -0.376 N 
HETATM   16  C   UNL     1     -43.742 -47.691   7.788  1.00  0.00     0.150 C 
HETATM   17  C   UNL     1     -44.039 -45.574   9.059  1.00  0.00     0.150 C 
ENDBRANCH  12  15
ENDBRANCH   1   7
BRANCH   4  18
HETATM   18  C   UNL     1     -42.032 -52.849  13.979  1.00  0.00     0.154 C 
BRANCH  18  19
HETATM   19  C   UNL     1     -43.502 -53.353  14.127  1.00  0.00     0.036 C 
HETATM   20  C   UNL     1     -44.048 -53.606  12.697  1.00  0.00     0.039 C 
HETATM   21  C   UNL     1     -43.470 -54.735  14.824  1.00  0.00     0.039 C 
BRANCH  19  22
HETATM   22  N   UNL     1     -44.415 -52.407  14.804  1.00  0.00    -0.399 N 
HETATM   23  C   UNL     1     -45.050 -52.783  16.069  1.00  0.00     0.144 C 
HETATM   24  C   UNL     1     -46.550 -53.055  15.906  1.00  0.00     0.187 C 
HETATM   25  O   UNL     1     -47.215 -51.895  15.398  1.00  0.00    -0.388 OA
HETATM   26  C   UNL     1     -46.698 -51.529  14.115  1.00  0.00     0.187 C 
HETATM   27  C   UNL     1     -45.163 -51.369  14.094  1.00  0.00     0.144 C 
ENDBRANCH  19  22
ENDBRANCH  18  19
ENDBRANCH   4  18
TORSDOF 5
ENDMDL
MODEL 6
REMARK VINA RESULT:      -6.1      2.794      4.118
REMARK  5 active torsions:
REMARK  status: ('A' for Active; 'I' for Inactive)
REMARK    1  A    between atoms: N_2  and  C_4 
REMARK    2  A    between atoms: C_9  and  N_10 
REMARK       I    between atoms: N_10  and  C_11 
REMARK       I    between atoms: C_11  and  N_13 
REMARK    3  A    between atoms: N_13  and  C_14 
REMARK    4  A    between atoms: C_14  and  C_15 
REMARK    5  A    between atoms: C_15  and  N_18 
ROOT
HETATM    1  N   UNL     1     -42.014 -51.117  11.740  1.00  0.00    -0.141 N 
HETATM    2  C   UNL     1     -42.154 -52.341  12.327  1.00  0.00     0.334 C 
HETATM    3  O   UNL     1     -41.331 -52.934  13.016  1.00  0.00    -0.247 OA
HETATM    4  N   UNL     1     -43.419 -52.840  12.105  1.00  0.00    -0.340 N 
HETATM    5  H   UNL     1     -42.831 -50.634  11.417  1.00  0.00     0.189 HD
HETATM    6  H   UNL     1     -43.879 -52.535  11.264  1.00  0.00     0.164 HD
ENDROOT
BRANCH   1   7
HETATM    7  C   UNL     1     -40.904 -50.289  11.836  1.00  0.00     0.687 A 
HETATM    8  N   UNL     1     -39.741 -50.955  11.823  1.00  0.00    -0.201 N 
HETATM    9  C   UNL     1     -38.639 -50.195  11.853  1.00  0.00     0.110 A 
ATOM     10  HN  UNL     1     -39.699 -51.973  11.792  1.00  0.00     0.183 HD
HETATM   11  C   UNL     1     -38.665 -48.817  11.915  1.00  0.00     0.066 A 
HETATM   12  C   UNL     1     -39.905 -48.210  11.960  1.00  0.00     0.119 A 
HETATM   13  N   UNL     1     -41.018 -48.962  11.929  1.00  0.00    -0.176 N 
ATOM     14  HN  UNL     1     -41.938 -48.525  11.975  1.00  0.00     0.186 HD
BRANCH  12  15
HETATM   15  N   UNL     1     -40.029 -46.822  12.085  1.00  0.00    -0.376 N 
HETATM   16  C   UNL     1     -39.398 -46.169  13.220  1.00  0.00     0.150 C 
HETATM   17  C   UNL     1     -40.014 -46.101  10.812  1.00  0.00     0.150 C 
ENDBRANCH  12  15
ENDBRANCH   1   7
BRANCH   4  18
HETATM   18  C   UNL     1     -43.859 -54.104  12.660  1.00  0.00     0.154 C 
BRANCH  18  19
HETATM   19  C   UNL     1     -44.545 -53.946  14.054  1.00  0.00     0.036 C 
HETATM   20  C   UNL     1     -45.808 -54.848  14.050  1.00  0.00     0.039 C 
HETATM   21  C   UNL     1     -43.599 -54.541  15.126  1.00  0.00     0.039 C 
BRANCH  19  22
HETATM   22  N   UNL     1     -44.966 -52.569  14.383  1.00  0.00    -0.399 N 
HETATM   23  C   UNL     1     -44.270 -51.823  15.433  1.00  0.00     0.144 C 
HETATM   24  C   UNL     1     -45.125 -51.659  16.694  1.00  0.00     0.187 C 
HETATM   25  O   UNL     1     -46.341 -50.970  16.386  1.00  0.00    -0.388 OA
HETATM   26  C   UNL     1     -47.114 -51.700  15.428  1.00  0.00     0.187 C 
HETATM   27  C   UNL     1     -46.323 -52.071  14.156  1.00  0.00     0.144 C 
ENDBRANCH  19  22
ENDBRANCH  18  19
ENDBRANCH   4  18
TORSDOF 5
ENDMDL
MODEL 7
REMARK VINA RESULT:      -6.1      2.005      3.328
REMARK  5 active torsions:
REMARK  status: ('A' for Active; 'I' for Inactive)
REMARK    1  A    between atoms: N_2  and  C_4 
REMARK    2  A    between atoms: C_9  and  N_10 
REMARK       I    between atoms: N_10  and  C_11 
REMARK       I    between atoms: C_11  and  N_13 
REMARK    3  A    between atoms: N_13  and  C_14 
REMARK    4  A    between atoms: C_14  and  C_15 
REMARK    5  A    between atoms: C_15  and  N_18 
ROOT
HETATM    1  N   UNL     1     -41.872 -49.726  11.211  1.00  0.00    -0.141 N 
HETATM    2  C   UNL     1     -41.882 -50.166  12.503  1.00  0.00     0.334 C 
HETATM    3  O   UNL     1     -41.936 -49.484  13.520  1.00  0.00    -0.247 OA
HETATM    4  N   UNL     1     -41.892 -51.543  12.542  1.00  0.00    -0.340 N 
HETATM    5  H   UNL     1     -42.075 -50.374  10.473  1.00  0.00     0.189 HD
HETATM    6  H   UNL     1     -41.467 -52.016  11.763  1.00  0.00     0.164 HD
ENDROOT
BRANCH   1   7
HETATM    7  C   UNL     1     -41.948 -48.402  10.799  1.00  0.00     0.687 A 
HETATM    8  N   UNL     1     -42.957 -48.167   9.949  1.00  0.00    -0.201 N 
HETATM    9  C   UNL     1     -43.109 -46.892   9.569  1.00  0.00     0.110 A 
ATOM     10  HN  UNL     1     -43.569 -48.911   9.614  1.00  0.00     0.183 HD
HETATM   11  C   UNL     1     -42.284 -45.869   9.989  1.00  0.00     0.066 A 
HETATM   12  C   UNL     1     -41.247 -46.202  10.837  1.00  0.00     0.119 A 
HETATM   13  N   UNL     1     -41.086 -47.478  11.227  1.00  0.00    -0.176 N 
ATOM     14  HN  UNL     1     -40.315 -47.736  11.842  1.00  0.00     0.186 HD
BRANCH  12  15
HETATM   15  N   UNL     1     -40.324 -45.241  11.267  1.00  0.00    -0.376 N 
HETATM   16  C   UNL     1     -39.673 -45.431  12.552  1.00  0.00     0.150 C 
HETATM   17  C   UNL     1     -39.517 -44.661  10.192  1.00  0.00     0.150 C 
ENDBRANCH  12  15
ENDBRANCH   1   7
BRANCH   4  18
HETATM   18  C   UNL     1     -41.955 -52.279  13.789  1.00  0.00     0.154 C 
BRANCH  18  19
HETATM   19  C   UNL     1     -43.243 -53.153  13.910  1.00  0.00     0.036 C 
HETATM   20  C   UNL     1     -43.828 -53.311  12.481  1.00  0.00     0.039 C 
HETATM   21  C   UNL     1     -42.822 -54.574  14.359  1.00  0.00     0.039 C 
BRANCH  19  22
HETATM   22  N   UNL     1     -44.297 -52.584  14.775  1.00  0.00    -0.399 N 
HETATM   23  C   UNL     1     -45.103 -53.466  15.621  1.00  0.00     0.144 C 
HETATM   24  C   UNL     1     -46.543 -53.601  15.114  1.00  0.00     0.187 C 
HETATM   25  O   UNL     1     -47.178 -52.320  15.069  1.00  0.00    -0.388 OA
HETATM   26  C   UNL     1     -46.486 -51.436  14.182  1.00  0.00     0.187 C 
HETATM   27  C   UNL     1     -44.977 -51.321  14.484  1.00  0.00     0.144 C 
ENDBRANCH  19  22
ENDBRANCH  18  19
ENDBRANCH   4  18
TORSDOF 5
ENDMDL
MODEL 8
REMARK VINA RESULT:      -5.7      1.935      2.957
REMARK  5 active torsions:
REMARK  status: ('A' for Active; 'I' for Inactive)
REMARK    1  A    between atoms: N_2  and  C_4 
REMARK    2  A    between atoms: C_9  and  N_10 
REMARK       I    between atoms: N_10  and  C_11 
REMARK       I    between atoms: C_11  and  N_13 
REMARK    3  A    between atoms: N_13  and  C_14 
REMARK    4  A    between atoms: C_14  and  C_15 
REMARK    5  A    between atoms: C_15  and  N_18 
ROOT
HETATM    1  N   UNL     1     -41.528 -48.999  10.204  1.00  0.00    -0.141 N 
HETATM    2  C   UNL     1     -40.989 -49.400  11.392  1.00  0.00     0.334 C 
HETATM    3  O   UNL     1     -40.920 -48.754  12.431  1.00  0.00    -0.247 OA
HETATM    4  N   UNL     1     -40.567 -50.709  11.312  1.00  0.00    -0.340 N 
HETATM    5  H   UNL     1     -41.749 -49.689   9.510  1.00  0.00     0.189 HD
HETATM    6  H   UNL     1     -40.290 -51.035  10.402  1.00  0.00     0.164 HD
ENDROOT
BRANCH   1   7
HETATM    7  C   UNL     1     -42.131 -47.774   9.953  1.00  0.00     0.687 A 
HETATM    8  N   UNL     1     -42.887 -47.771   8.846  1.00  0.00    -0.201 N 
HETATM    9  C   UNL     1     -43.538 -46.628   8.593  1.00  0.00     0.110 A 
ATOM     10  HN  UNL     1     -42.961 -48.584   8.237  1.00  0.00     0.183 HD
HETATM   11  C   UNL     1     -43.440 -45.504   9.388  1.00  0.00     0.066 A 
HETATM   12  C   UNL     1     -42.613 -45.580  10.490  1.00  0.00     0.119 A 
HETATM   13  N   UNL     1     -41.956 -46.722  10.755  1.00  0.00    -0.176 N 
ATOM     14  HN  UNL     1     -41.333 -46.784  11.559  1.00  0.00     0.186 HD
BRANCH  12  15
HETATM   15  N   UNL     1     -42.406 -44.472  11.319  1.00  0.00    -0.376 N 
HETATM   16  C   UNL     1     -42.981 -43.195  10.928  1.00  0.00     0.150 C 
HETATM   17  C   UNL     1     -42.395 -44.785  12.749  1.00  0.00     0.150 C 
ENDBRANCH  12  15
ENDBRANCH   1   7
BRANCH   4  18
HETATM   18  C   UNL     1     -40.000 -51.407  12.448  1.00  0.00     0.154 C 
BRANCH  18  19
HETATM   19  C   UNL     1     -41.036 -52.327  13.169  1.00  0.00     0.036 C 
HETATM   20  C   UNL     1     -42.242 -52.503  12.208  1.00  0.00     0.039 C 
HETATM   21  C   UNL     1     -40.405 -53.733  13.326  1.00  0.00     0.039 C 
BRANCH  19  22
HETATM   22  N   UNL     1     -41.545 -51.798  14.451  1.00  0.00    -0.399 N 
HETATM   23  C   UNL     1     -40.707 -50.914  15.262  1.00  0.00     0.144 C 
HETATM   24  C   UNL     1     -40.194 -51.604  16.532  1.00  0.00     0.187 C 
HETATM   25  O   UNL     1     -41.290 -52.044  17.338  1.00  0.00    -0.388 OA
HETATM   26  C   UNL     1     -42.101 -52.986  16.628  1.00  0.00     0.187 C 
HETATM   27  C   UNL     1     -42.567 -52.478  15.248  1.00  0.00     0.144 C 
ENDBRANCH  19  22
ENDBRANCH  18  19
ENDBRANCH   4  18
TORSDOF 5
ENDMDL
MODEL 9
REMARK VINA RESULT:      -5.6      2.164      3.583
REMARK  5 active torsions:
REMARK  status: ('A' for Active; 'I' for Inactive)
REMARK    1  A    between atoms: N_2  and  C_4 
REMARK    2  A    between atoms: C_9  and  N_10 
REMARK       I    between atoms: N_10  and  C_11 
REMARK       I    between atoms: C_11  and  N_13 
REMARK    3  A    between atoms: N_13  and  C_14 
REMARK    4  A    between atoms: C_14  and  C_15 
REMARK    5  A    between atoms: C_15  and  N_18 
ROOT
HETATM    1  N   UNL     1     -42.318 -49.528  11.410  1.00  0.00    -0.141 N 
HETATM    2  C   UNL     1     -42.676 -49.904  12.672  1.00  0.00     0.334 C 
HETATM    3  O   UNL     1     -43.013 -49.174  13.598  1.00  0.00    -0.247 OA
HETATM    4  N   UNL     1     -42.682 -51.278  12.782  1.00  0.00    -0.340 N 
HETATM    5  H   UNL     1     -42.305 -50.217  10.681  1.00  0.00     0.189 HD
HETATM    6  H   UNL     1     -42.055 -51.778  12.175  1.00  0.00     0.164 HD
ENDROOT
BRANCH   1   7
HETATM    7  C   UNL     1     -42.293 -48.229  10.922  1.00  0.00     0.687 A 
HETATM    8  N   UNL     1     -43.317 -47.948  10.106  1.00  0.00    -0.201 N 
HETATM    9  C   UNL     1     -43.370 -46.688   9.655  1.00  0.00     0.110 A 
ATOM     10  HN  UNL     1     -44.011 -48.648   9.845  1.00  0.00     0.183 HD
HETATM   11  C   UNL     1     -42.434 -45.726   9.974  1.00  0.00     0.066 A 
HETATM   12  C   UNL     1     -41.391 -46.107  10.793  1.00  0.00     0.119 A 
HETATM   13  N   UNL     1     -41.328 -47.368  11.253  1.00  0.00    -0.176 N 
ATOM     14  HN  UNL     1     -40.554 -47.663  11.847  1.00  0.00     0.186 HD
BRANCH  12  15
HETATM   15  N   UNL     1     -40.363 -45.215  11.121  1.00  0.00    -0.376 N 
HETATM   16  C   UNL     1     -39.779 -45.288  12.450  1.00  0.00     0.150 C 
HETATM   17  C   UNL     1     -39.456 -44.912  10.013  1.00  0.00     0.150 C 
ENDBRANCH  12  15
ENDBRANCH   1   7
BRANCH   4  18
HETATM   18  C   UNL     1     -43.075 -51.952  14.003  1.00  0.00     0.154 C 
BRANCH  18  19
HETATM   19  C   UNL     1     -44.414 -52.742  13.852  1.00  0.00     0.036 C 
HETATM   20  C   UNL     1     -45.566 -51.770  14.221  1.00  0.00     0.039 C 
HETATM   21  C   UNL     1     -44.606 -53.083  12.354  1.00  0.00     0.039 C 
BRANCH  19  22
HETATM   22  N   UNL     1     -44.528 -53.936  14.715  1.00  0.00    -0.399 N 
HETATM   23  C   UNL     1     -45.369 -53.895  15.913  1.00  0.00     0.144 C 
HETATM   24  C   UNL     1     -44.540 -53.881  17.203  1.00  0.00     0.187 C 
HETATM   25  O   UNL     1     -43.712 -55.044  17.277  1.00  0.00    -0.388 OA
HETATM   26  C   UNL     1     -42.800 -55.095  16.175  1.00  0.00     0.187 C 
HETATM   27  C   UNL     1     -43.490 -54.964  14.801  1.00  0.00     0.144 C 
ENDBRANCH  19  22
ENDBRANCH  18  19
ENDBRANCH   4  18
TORSDOF 5
ENDMDL
