MODEL 1
REMARK VINA RESULT:      -7.4      0.000      0.000
REMARK  5 active torsions:
REMARK  status: ('A' for Active; 'I' for Inactive)
REMARK    1  A    between atoms: N_7  and  C_8 
REMARK    2  A    between atoms: C_8  and  C_9 
REMARK       I    between atoms: C_9  and  N_11 
REMARK    3  A    between atoms: N_11  and  C_12 
REMARK    4  A    between atoms: C_12  and  C_13 
REMARK    5  A    between atoms: C_13  and  C_14 
ROOT
HETATM    1  C   UNL     1     -42.317 -48.847  11.530  1.00  0.00     0.237 C 
HETATM    2  O   UNL     1     -43.045 -48.352  12.389  1.00  0.00    -0.272 OA
HETATM    3  N   UNL     1     -41.739 -50.108  11.673  1.00  0.00    -0.360 N 
HETATM    4  H   UNL     1     -41.526 -50.604  10.811  1.00  0.00     0.162 HD
ENDROOT
BRANCH   3   5
HETATM    5  C   UNL     1     -42.099 -50.882  12.844  1.00  0.00     0.123 C 
BRANCH   5   6
HETATM    6  C   UNL     1     -42.957 -52.125  12.567  1.00  0.00     0.029 C 
BRANCH   6   7
HETATM    7  C   UNL     1     -44.163 -52.271  13.545  1.00  0.00    -0.038 C 
HETATM    8  C   UNL     1     -45.484 -52.520  12.768  1.00  0.00     0.014 C 
HETATM    9  C   UNL     1     -46.675 -52.655  13.731  1.00  0.00    -0.013 C 
HETATM   10  C   UNL     1     -46.800 -51.365  14.558  1.00  0.00     0.009 C 
HETATM   11  C   UNL     1     -46.434 -53.844  14.674  1.00  0.00     0.009 C 
HETATM   12  C   UNL     1     -45.522 -51.141  15.384  1.00  0.00    -0.013 C 
HETATM   13  C   UNL     1     -45.287 -52.342  16.311  1.00  0.00     0.009 C 
HETATM   14  C   UNL     1     -44.330 -51.002  14.427  1.00  0.00     0.014 C 
HETATM   15  C   UNL     1     -45.142 -53.623  15.476  1.00  0.00    -0.013 C 
HETATM   16  C   UNL     1     -43.950 -53.475  14.504  1.00  0.00     0.014 C 
ENDBRANCH   6   7
ENDBRANCH   5   6
ENDBRANCH   3   5
BRANCH   1  17
HETATM   17  C   UNL     1     -42.011 -48.134  10.218  1.00  0.00     0.255 C 
BRANCH  17  18
HETATM   18  N   UNL     1     -43.171 -47.387   9.753  1.00  0.00    -0.249 N 
HETATM   19  C   UNL     1     -43.050 -46.026   9.524  1.00  0.00     0.262 A 
HETATM   20  C   UNL     1     -44.277 -45.331   9.084  1.00  0.00     0.078 A 
HETATM   21  O   UNL     1     -42.009 -45.388   9.668  1.00  0.00    -0.267 OA
HETATM   22  C   UNL     1     -45.411 -46.005   8.888  1.00  0.00     0.031 A 
HETATM   23  C   UNL     1     -45.384 -47.456   9.161  1.00  0.00     0.022 A 
HETATM   24  C   UNL     1     -46.665 -48.229   8.971  1.00  0.00     0.069 C 
HETATM   25  N   UNL     1     -44.339 -48.099   9.578  1.00  0.00    -0.300 N 
ATOM     26  HN  UNL     1     -44.379 -49.100   9.770  1.00  0.00     0.187 HD
ENDBRANCH  17  18
ENDBRANCH   1  17
TORSDOF 5
ENDMDL
MODEL 2
REMARK VINA RESULT:      -6.9      1.539      2.097
REMARK  5 active torsions:
REMARK  status: ('A' for Active; 'I' for Inactive)
REMARK    1  A    between atoms: N_7  and  C_8 
REMARK    2  A    between atoms: C_8  and  C_9 
REMARK       I    between atoms: C_9  and  N_11 
REMARK    3  A    between atoms: N_11  and  C_12 
REMARK    4  A    between atoms: C_12  and  C_13 
REMARK    5  A    between atoms: C_13  and  C_14 
ROOT
HETATM    1  C   UNL     1     -41.202 -50.486  11.972  1.00  0.00     0.237 C 
HETATM    2  O   UNL     1     -41.633 -50.041  13.034  1.00  0.00    -0.272 OA
HETATM    3  N   UNL     1     -41.282 -51.839  11.638  1.00  0.00    -0.360 N 
HETATM    4  H   UNL     1     -41.308 -52.054  10.645  1.00  0.00     0.162 HD
ENDROOT
BRANCH   3   5
HETATM    5  C   UNL     1     -41.986 -52.714  12.553  1.00  0.00     0.123 C 
BRANCH   5   6
HETATM    6  C   UNL     1     -43.455 -52.986  12.198  1.00  0.00     0.029 C 
BRANCH   6   7
HETATM    7  C   UNL     1     -44.423 -52.811  13.407  1.00  0.00    -0.038 C 
HETATM    8  C   UNL     1     -45.197 -54.125  13.696  1.00  0.00     0.014 C 
HETATM    9  C   UNL     1     -46.160 -53.951  14.882  1.00  0.00    -0.013 C 
HETATM   10  C   UNL     1     -47.158 -52.828  14.558  1.00  0.00     0.009 C 
HETATM   11  C   UNL     1     -45.357 -53.575  16.136  1.00  0.00     0.009 C 
HETATM   12  C   UNL     1     -46.408 -51.504  14.334  1.00  0.00    -0.013 C 
HETATM   13  C   UNL     1     -45.600 -51.148  15.591  1.00  0.00     0.009 C 
HETATM   14  C   UNL     1     -45.448 -51.671  13.149  1.00  0.00     0.014 C 
HETATM   15  C   UNL     1     -44.591 -52.265  15.895  1.00  0.00    -0.013 C 
HETATM   16  C   UNL     1     -43.635 -52.440  14.694  1.00  0.00     0.014 C 
ENDBRANCH   6   7
ENDBRANCH   5   6
ENDBRANCH   3   5
BRANCH   1  17
HETATM   17  C   UNL     1     -40.572 -49.589  10.914  1.00  0.00     0.255 C 
BRANCH  17  18
HETATM   18  N   UNL     1     -41.332 -48.356  10.762  1.00  0.00    -0.249 N 
HETATM   19  C   UNL     1     -40.714 -47.146  11.032  1.00  0.00     0.262 A 
HETATM   20  C   UNL     1     -41.557 -45.941  10.887  1.00  0.00     0.078 A 
HETATM   21  O   UNL     1     -39.540 -47.027  11.377  1.00  0.00    -0.267 OA
HETATM   22  C   UNL     1     -42.824 -46.039  10.481  1.00  0.00     0.031 A 
HETATM   23  C   UNL     1     -43.341 -47.396  10.219  1.00  0.00     0.022 A 
HETATM   24  C   UNL     1     -44.779 -47.526   9.785  1.00  0.00     0.069 C 
HETATM   25  N   UNL     1     -42.646 -48.481  10.363  1.00  0.00    -0.300 N 
ATOM     26  HN  UNL     1     -43.058 -49.397  10.186  1.00  0.00     0.187 HD
ENDBRANCH  17  18
ENDBRANCH   1  17
TORSDOF 5
ENDMDL
MODEL 3
REMARK VINA RESULT:      -6.9      1.698      2.554
REMARK  5 active torsions:
REMARK  status: ('A' for Active; 'I' for Inactive)
REMARK    1  A    between atoms: N_7  and  C_8 
REMARK    2  A    between atoms: C_8  and  C_9 
REMARK       I    between atoms: C_9  and  N_11 
REMARK    3  A    between atoms: N_11  and  C_12 
REMARK    4  A    between atoms: C_12  and  C_13 
REMARK    5  A    between atoms: C_13  and  C_14 
ROOT
HETATM    1  C   UNL     1     -41.257 -50.000  11.742  1.00  0.00     0.237 C 
HETATM    2  O   UNL     1     -42.401 -49.952  12.189  1.00  0.00    -0.272 OA
HETATM    3  N   UNL     1     -40.585 -51.205  11.529  1.00  0.00    -0.360 N 
HETATM    4  H   UNL     1     -39.871 -51.197  10.805  1.00  0.00     0.162 HD
ENDROOT
BRANCH   3   5
HETATM    5  C   UNL     1     -41.319 -52.432  11.763  1.00  0.00     0.123 C 
BRANCH   5   6
HETATM    6  C   UNL     1     -41.392 -52.879  13.231  1.00  0.00     0.029 C 
BRANCH   6   7
HETATM    7  C   UNL     1     -42.843 -53.193  13.707  1.00  0.00    -0.038 C 
HETATM    8  C   UNL     1     -43.338 -52.131  14.725  1.00  0.00     0.014 C 
HETATM    9  C   UNL     1     -44.765 -52.444  15.203  1.00  0.00    -0.013 C 
HETATM   10  C   UNL     1     -44.780 -53.833  15.861  1.00  0.00     0.009 C 
HETATM   11  C   UNL     1     -45.717 -52.441  13.996  1.00  0.00     0.009 C 
HETATM   12  C   UNL     1     -44.354 -54.905  14.843  1.00  0.00    -0.013 C 
HETATM   13  C   UNL     1     -45.306 -54.881  13.638  1.00  0.00     0.009 C 
HETATM   14  C   UNL     1     -42.929 -54.599  14.365  1.00  0.00     0.014 C 
HETATM   15  C   UNL     1     -45.270 -53.497  12.973  1.00  0.00    -0.013 C 
HETATM   16  C   UNL     1     -43.830 -53.185  12.506  1.00  0.00     0.014 C 
ENDBRANCH   6   7
ENDBRANCH   5   6
ENDBRANCH   3   5
BRANCH   1  17
HETATM   17  C   UNL     1     -40.485 -48.745  11.352  1.00  0.00     0.255 C 
BRANCH  17  18
HETATM   18  N   UNL     1     -41.369 -47.765  10.737  1.00  0.00    -0.249 N 
HETATM   19  C   UNL     1     -41.377 -46.467  11.221  1.00  0.00     0.262 A 
HETATM   20  C   UNL     1     -42.322 -45.538  10.567  1.00  0.00     0.078 A 
HETATM   21  O   UNL     1     -40.664 -46.063  12.137  1.00  0.00    -0.267 OA
HETATM   22  C   UNL     1     -43.083 -45.942   9.549  1.00  0.00     0.031 A 
HETATM   23  C   UNL     1     -42.956 -47.353   9.136  1.00  0.00     0.022 A 
HETATM   24  C   UNL     1     -43.829 -47.833   8.004  1.00  0.00     0.069 C 
HETATM   25  N   UNL     1     -42.163 -48.209   9.701  1.00  0.00    -0.300 N 
ATOM     26  HN  UNL     1     -42.127 -49.179   9.388  1.00  0.00     0.187 HD
ENDBRANCH  17  18
ENDBRANCH   1  17
TORSDOF 5
ENDMDL
MODEL 4
REMARK VINA RESULT:      -6.7      2.349      3.321
REMARK  5 active torsions:
REMARK  status: ('A' for Active; 'I' for Inactive)
REMARK    1  A    between atoms: N_7  and  C_8 
REMARK    2  A    between atoms: C_8  and  C_9 
REMARK       I    between atoms: C_9  and  N_11 
REMARK    3  A    between atoms: N_11  and  C_12 
REMARK    4  A    between atoms: C_12  and  C_13 
REMARK    5  A    between atoms: C_13  and  C_14 
ROOT
HETATM    1  C   UNL     1     -40.649 -51.448  12.415  1.00  0.00     0.237 C 
HETATM    2  O   UNL     1     -41.583 -51.911  11.763  1.00  0.00    -0.272 OA
HETATM    3  N   UNL     1     -40.472 -51.722  13.772  1.00  0.00    -0.360 N 
HETATM    4  H   UNL     1     -39.517 -51.672  14.118  1.00  0.00     0.162 HD
ENDROOT
BRANCH   3   5
HETATM    5  C   UNL     1     -41.383 -52.665  14.389  1.00  0.00     0.123 C 
BRANCH   5   6
HETATM    6  C   UNL     1     -42.453 -52.040  15.296  1.00  0.00     0.029 C 
BRANCH   6   7
HETATM    7  C   UNL     1     -43.908 -52.278  14.785  1.00  0.00    -0.038 C 
HETATM    8  C   UNL     1     -44.389 -51.095  13.903  1.00  0.00     0.014 C 
HETATM    9  C   UNL     1     -45.826 -51.323  13.407  1.00  0.00    -0.013 C 
HETATM   10  C   UNL     1     -46.758 -51.472  14.621  1.00  0.00     0.009 C 
HETATM   11  C   UNL     1     -45.875 -52.608  12.566  1.00  0.00     0.009 C 
HETATM   12  C   UNL     1     -46.332 -52.681  15.470  1.00  0.00    -0.013 C 
HETATM   13  C   UNL     1     -46.373 -53.955  14.612  1.00  0.00     0.009 C 
HETATM   14  C   UNL     1     -44.898 -52.457  15.970  1.00  0.00     0.014 C 
HETATM   15  C   UNL     1     -45.424 -53.807  13.414  1.00  0.00    -0.013 C 
HETATM   16  C   UNL     1     -43.984 -53.567  13.921  1.00  0.00     0.014 C 
ENDBRANCH   6   7
ENDBRANCH   5   6
ENDBRANCH   3   5
BRANCH   1  17
HETATM   17  C   UNL     1     -39.585 -50.557  11.786  1.00  0.00     0.255 C 
BRANCH  17  18
HETATM   18  N   UNL     1     -40.097 -49.211  11.573  1.00  0.00    -0.249 N 
HETATM   19  C   UNL     1     -39.523 -48.154  12.261  1.00  0.00     0.262 A 
HETATM   20  C   UNL     1     -40.117 -46.823  12.017  1.00  0.00     0.078 A 
HETATM   21  O   UNL     1     -38.579 -48.264  13.040  1.00  0.00    -0.267 OA
HETATM   22  C   UNL     1     -41.119 -46.671  11.151  1.00  0.00     0.031 A 
HETATM   23  C   UNL     1     -41.619 -47.888  10.483  1.00  0.00     0.022 A 
HETATM   24  C   UNL     1     -42.770 -47.738   9.520  1.00  0.00     0.069 C 
HETATM   25  N   UNL     1     -41.148 -49.078  10.690  1.00  0.00    -0.300 N 
ATOM     26  HN  UNL     1     -41.542 -49.890  10.215  1.00  0.00     0.187 HD
ENDBRANCH  17  18
ENDBRANCH   1  17
TORSDOF 5
ENDMDL
MODEL 5
REMARK VINA RESULT:      -6.6      3.895      5.113
REMARK  5 active torsions:
REMARK  status: ('A' for Active; 'I' for Inactive)
REMARK    1  A    between atoms: N_7  and  C_8 
REMARK    2  A    between atoms: C_8  and  C_9 
REMARK       I    between atoms: C_9  and  N_11 
REMARK    3  A    between atoms: N_11  and  C_12 
REMARK    4  A    between atoms: C_12  and  C_13 
REMARK    5  A    between atoms: C_13  and  C_14 
ROOT
HETATM    1  C   UNL     1     -40.178 -53.316  13.681  1.00  0.00     0.237 C 
HETATM    2  O   UNL     1     -40.545 -53.522  12.526  1.00  0.00    -0.272 OA
HETATM    3  N   UNL     1     -40.861 -53.824  14.787  1.00  0.00    -0.360 N 
HETATM    4  H   UNL     1     -40.305 -53.977  15.625  1.00  0.00     0.162 HD
ENDROOT
BRANCH   3   5
HETATM    5  C   UNL     1     -41.987 -54.699  14.534  1.00  0.00     0.123 C 
BRANCH   5   6
HETATM    6  C   UNL     1     -43.207 -54.472  15.438  1.00  0.00     0.029 C 
BRANCH   6   7
HETATM    7  C   UNL     1     -44.170 -53.367  14.906  1.00  0.00    -0.038 C 
HETATM    8  C   UNL     1     -44.080 -53.246  13.361  1.00  0.00     0.014 C 
HETATM    9  C   UNL     1     -45.021 -52.151  12.836  1.00  0.00    -0.013 C 
HETATM   10  C   UNL     1     -44.638 -50.808  13.479  1.00  0.00     0.009 C 
HETATM   11  C   UNL     1     -46.469 -52.502  13.212  1.00  0.00     0.009 C 
HETATM   12  C   UNL     1     -44.786 -50.894  15.008  1.00  0.00    -0.013 C 
HETATM   13  C   UNL     1     -46.234 -51.258  15.368  1.00  0.00     0.009 C 
HETATM   14  C   UNL     1     -43.846 -51.984  15.538  1.00  0.00     0.014 C 
HETATM   15  C   UNL     1     -46.602 -52.610  14.739  1.00  0.00    -0.013 C 
HETATM   16  C   UNL     1     -45.645 -53.704  15.264  1.00  0.00     0.014 C 
ENDBRANCH   6   7
ENDBRANCH   5   6
ENDBRANCH   3   5
BRANCH   1  17
HETATM   17  C   UNL     1     -38.923 -52.512  14.002  1.00  0.00     0.255 C 
BRANCH  17  18
HETATM   18  N   UNL     1     -38.908 -51.259  13.260  1.00  0.00    -0.249 N 
HETATM   19  C   UNL     1     -37.783 -50.925  12.524  1.00  0.00     0.262 A 
HETATM   20  C   UNL     1     -37.830 -49.623  11.825  1.00  0.00     0.078 A 
HETATM   21  O   UNL     1     -36.781 -51.629  12.429  1.00  0.00    -0.267 OA
HETATM   22  C   UNL     1     -38.918 -48.854  11.885  1.00  0.00     0.031 A 
HETATM   23  C   UNL     1     -40.044 -49.349  12.700  1.00  0.00     0.022 A 
HETATM   24  C   UNL     1     -41.273 -48.480  12.799  1.00  0.00     0.069 C 
HETATM   25  N   UNL     1     -40.034 -50.469  13.353  1.00  0.00    -0.300 N 
ATOM     26  HN  UNL     1     -40.834 -50.756  13.918  1.00  0.00     0.187 HD
ENDBRANCH  17  18
ENDBRANCH   1  17
TORSDOF 5
ENDMDL
MODEL 6
REMARK VINA RESULT:      -6.4      2.987      4.180
REMARK  5 active torsions:
REMARK  status: ('A' for Active; 'I' for Inactive)
REMARK    1  A    between atoms: N_7  and  C_8 
REMARK    2  A    between atoms: C_8  and  C_9 
REMARK       I    between atoms: C_9  and  N_11 
REMARK    3  A    between atoms: N_11  and  C_12 
REMARK    4  A    between atoms: C_12  and  C_13 
REMARK    5  A    between atoms: C_13  and  C_14 
ROOT
HETATM    1  C   UNL     1     -40.510 -50.373  11.738  1.00  0.00     0.237 C 
HETATM    2  O   UNL     1     -41.598 -49.807  11.655  1.00  0.00    -0.272 OA
HETATM    3  N   UNL     1     -40.393 -51.740  11.991  1.00  0.00    -0.360 N 
HETATM    4  H   UNL     1     -39.553 -52.192  11.638  1.00  0.00     0.162 HD
ENDROOT
BRANCH   3   5
HETATM    5  C   UNL     1     -41.616 -52.515  12.064  1.00  0.00     0.123 C 
BRANCH   5   6
HETATM    6  C   UNL     1     -42.013 -52.977  13.474  1.00  0.00     0.029 C 
BRANCH   6   7
HETATM    7  C   UNL     1     -43.532 -52.795  13.776  1.00  0.00    -0.038 C 
HETATM    8  C   UNL     1     -43.823 -52.966  15.291  1.00  0.00     0.014 C 
HETATM    9  C   UNL     1     -45.321 -52.796  15.589  1.00  0.00    -0.013 C 
HETATM   10  C   UNL     1     -46.114 -53.844  14.792  1.00  0.00     0.009 C 
HETATM   11  C   UNL     1     -45.767 -51.388  15.165  1.00  0.00     0.009 C 
HETATM   12  C   UNL     1     -45.886 -53.645  13.284  1.00  0.00    -0.013 C 
HETATM   13  C   UNL     1     -46.323 -52.230  12.878  1.00  0.00     0.009 C 
HETATM   14  C   UNL     1     -44.392 -53.817  12.980  1.00  0.00     0.014 C 
HETATM   15  C   UNL     1     -45.512 -51.188  13.663  1.00  0.00    -0.013 C 
HETATM   16  C   UNL     1     -44.007 -51.373  13.366  1.00  0.00     0.014 C 
ENDBRANCH   6   7
ENDBRANCH   5   6
ENDBRANCH   3   5
BRANCH   1  17
HETATM   17  C   UNL     1     -39.193 -49.633  11.537  1.00  0.00     0.255 C 
BRANCH  17  18
HETATM   18  N   UNL     1     -39.303 -48.252  11.985  1.00  0.00    -0.249 N 
HETATM   19  C   UNL     1     -38.918 -47.929  13.277  1.00  0.00     0.262 A 
HETATM   20  C   UNL     1     -39.088 -46.515  13.669  1.00  0.00     0.078 A 
HETATM   21  O   UNL     1     -38.462 -48.733  14.086  1.00  0.00    -0.267 OA
HETATM   22  C   UNL     1     -39.551 -45.616  12.800  1.00  0.00     0.031 A 
HETATM   23  C   UNL     1     -39.908 -46.106  11.454  1.00  0.00     0.022 A 
HETATM   24  C   UNL     1     -40.457 -45.107  10.467  1.00  0.00     0.069 C 
HETATM   25  N   UNL     1     -39.803 -47.342  11.078  1.00  0.00    -0.300 N 
ATOM     26  HN  UNL     1     -40.082 -47.632  10.141  1.00  0.00     0.187 HD
ENDBRANCH  17  18
ENDBRANCH   1  17
TORSDOF 5
ENDMDL
MODEL 7
REMARK VINA RESULT:      -6.4      2.993      7.706
REMARK  5 active torsions:
REMARK  status: ('A' for Active; 'I' for Inactive)
REMARK    1  A    between atoms: N_7  and  C_8 
REMARK    2  A    between atoms: C_8  and  C_9 
REMARK       I    between atoms: C_9  and  N_11 
REMARK    3  A    between atoms: N_11  and  C_12 
REMARK    4  A    between atoms: C_12  and  C_13 
REMARK    5  A    between atoms: C_13  and  C_14 
ROOT
HETATM    1  C   UNL     1     -41.429 -51.179  12.167  1.00  0.00     0.237 C 
HETATM    2  O   UNL     1     -41.759 -50.606  13.204  1.00  0.00    -0.272 OA
HETATM    3  N   UNL     1     -40.751 -50.530  11.135  1.00  0.00    -0.360 N 
HETATM    4  H   UNL     1     -40.165 -51.117  10.545  1.00  0.00     0.162 HD
ENDROOT
BRANCH   3   5
HETATM    5  C   UNL     1     -40.350 -49.156  11.357  1.00  0.00     0.123 C 
BRANCH   5   6
HETATM    6  C   UNL     1     -41.304 -48.097  10.783  1.00  0.00     0.029 C 
BRANCH   6   7
HETATM    7  C   UNL     1     -41.105 -46.684  11.413  1.00  0.00    -0.038 C 
HETATM    8  C   UNL     1     -40.765 -46.790  12.923  1.00  0.00     0.014 C 
HETATM    9  C   UNL     1     -40.579 -45.398  13.548  1.00  0.00    -0.013 C 
HETATM   10  C   UNL     1     -41.874 -44.589  13.368  1.00  0.00     0.009 C 
HETATM   11  C   UNL     1     -39.423 -44.674  12.839  1.00  0.00     0.009 C 
HETATM   12  C   UNL     1     -42.188 -44.421  11.872  1.00  0.00    -0.013 C 
HETATM   13  C   UNL     1     -41.019 -43.709  11.175  1.00  0.00     0.009 C 
HETATM   14  C   UNL     1     -42.378 -45.808  11.244  1.00  0.00     0.014 C 
HETATM   15  C   UNL     1     -39.734 -44.532  11.341  1.00  0.00    -0.013 C 
HETATM   16  C   UNL     1     -39.933 -45.934  10.721  1.00  0.00     0.014 C 
ENDBRANCH   6   7
ENDBRANCH   5   6
ENDBRANCH   3   5
BRANCH   1  17
HETATM   17  C   UNL     1     -41.707 -52.660  11.936  1.00  0.00     0.255 C 
BRANCH  17  18
HETATM   18  N   UNL     1     -42.934 -53.067  12.604  1.00  0.00    -0.249 N 
HETATM   19  C   UNL     1     -42.877 -54.042  13.586  1.00  0.00     0.262 A 
HETATM   20  C   UNL     1     -44.167 -54.424  14.196  1.00  0.00     0.078 A 
HETATM   21  O   UNL     1     -41.842 -54.589  13.961  1.00  0.00    -0.267 OA
HETATM   22  C   UNL     1     -45.300 -53.823  13.831  1.00  0.00     0.031 A 
HETATM   23  C   UNL     1     -45.203 -52.792  12.779  1.00  0.00     0.022 A 
HETATM   24  C   UNL     1     -46.479 -52.121  12.336  1.00  0.00     0.069 C 
HETATM   25  N   UNL     1     -44.097 -52.448  12.197  1.00  0.00    -0.300 N 
ATOM     26  HN  UNL     1     -44.089 -51.741  11.461  1.00  0.00     0.187 HD
ENDBRANCH  17  18
ENDBRANCH   1  17
TORSDOF 5
ENDMDL
MODEL 8
REMARK VINA RESULT:      -6.2      4.386      7.477
REMARK  5 active torsions:
REMARK  status: ('A' for Active; 'I' for Inactive)
REMARK    1  A    between atoms: N_7  and  C_8 
REMARK    2  A    between atoms: C_8  and  C_9 
REMARK       I    between atoms: C_9  and  N_11 
REMARK    3  A    between atoms: N_11  and  C_12 
REMARK    4  A    between atoms: C_12  and  C_13 
REMARK    5  A    between atoms: C_13  and  C_14 
ROOT
HETATM    1  C   UNL     1     -42.860 -54.509  14.368  1.00  0.00     0.237 C 
HETATM    2  O   UNL     1     -42.150 -54.970  15.260  1.00  0.00    -0.272 OA
HETATM    3  N   UNL     1     -42.377 -53.615  13.411  1.00  0.00    -0.360 N 
HETATM    4  H   UNL     1     -42.857 -53.616  12.515  1.00  0.00     0.162 HD
ENDROOT
BRANCH   3   5
HETATM    5  C   UNL     1     -40.962 -53.306  13.437  1.00  0.00     0.123 C 
BRANCH   5   6
HETATM    6  C   UNL     1     -40.564 -52.148  14.364  1.00  0.00     0.029 C 
BRANCH   6   7
HETATM    7  C   UNL     1     -39.779 -51.016  13.633  1.00  0.00    -0.038 C 
HETATM    8  C   UNL     1     -38.255 -51.309  13.628  1.00  0.00     0.014 C 
HETATM    9  C   UNL     1     -37.479 -50.189  12.916  1.00  0.00    -0.013 C 
HETATM   10  C   UNL     1     -37.744 -48.857  13.638  1.00  0.00     0.009 C 
HETATM   11  C   UNL     1     -37.958 -50.085  11.461  1.00  0.00     0.009 C 
HETATM   12  C   UNL     1     -39.244 -48.523  13.594  1.00  0.00    -0.013 C 
HETATM   13  C   UNL     1     -39.712 -48.435  12.133  1.00  0.00     0.009 C 
HETATM   14  C   UNL     1     -40.024 -49.636  14.306  1.00  0.00     0.014 C 
HETATM   15  C   UNL     1     -39.463 -49.775  11.425  1.00  0.00    -0.013 C 
HETATM   16  C   UNL     1     -40.237 -50.896  12.153  1.00  0.00     0.014 C 
ENDBRANCH   6   7
ENDBRANCH   5   6
ENDBRANCH   3   5
BRANCH   1  17
HETATM   17  C   UNL     1     -44.323 -54.904  14.212  1.00  0.00     0.255 C 
BRANCH  17  18
HETATM   18  N   UNL     1     -45.193 -53.752  14.403  1.00  0.00    -0.249 N 
HETATM   19  C   UNL     1     -45.601 -53.023  13.298  1.00  0.00     0.262 A 
HETATM   20  C   UNL     1     -46.455 -51.850  13.574  1.00  0.00     0.078 A 
HETATM   21  O   UNL     1     -45.296 -53.292  12.138  1.00  0.00    -0.267 OA
HETATM   22  C   UNL     1     -46.829 -51.555  14.820  1.00  0.00     0.031 A 
HETATM   23  C   UNL     1     -46.325 -52.431  15.896  1.00  0.00     0.022 A 
HETATM   24  C   UNL     1     -46.716 -52.097  17.314  1.00  0.00     0.069 C 
HETATM   25  N   UNL     1     -45.549 -53.452  15.701  1.00  0.00    -0.300 N 
ATOM     26  HN  UNL     1     -45.213 -54.014  16.483  1.00  0.00     0.187 HD
ENDBRANCH  17  18
ENDBRANCH   1  17
TORSDOF 5
ENDMDL
MODEL 9
REMARK VINA RESULT:      -6.1      1.958      3.278
REMARK  5 active torsions:
REMARK  status: ('A' for Active; 'I' for Inactive)
REMARK    1  A    between atoms: N_7  and  C_8 
REMARK    2  A    between atoms: C_8  and  C_9 
REMARK       I    between atoms: C_9  and  N_11 
REMARK    3  A    between atoms: N_11  and  C_12 
REMARK    4  A    between atoms: C_12  and  C_13 
REMARK    5  A    between atoms: C_13  and  C_14 
ROOT
HETATM    1  C   UNL     1     -41.420 -49.933  11.863  1.00  0.00     0.237 C 
HETATM    2  O   UNL     1     -41.754 -49.398  12.918  1.00  0.00    -0.272 OA
HETATM    3  N   UNL     1     -41.506 -51.311  11.660  1.00  0.00    -0.360 N 
HETATM    4  H   UNL     1     -41.623 -51.615  10.697  1.00  0.00     0.162 HD
ENDROOT
BRANCH   3   5
HETATM    5  C   UNL     1     -42.099 -52.107  12.714  1.00  0.00     0.123 C 
BRANCH   5   6
HETATM    6  C   UNL     1     -43.480 -52.694  12.391  1.00  0.00     0.029 C 
BRANCH   6   7
HETATM    7  C   UNL     1     -44.476 -52.620  13.589  1.00  0.00    -0.038 C 
HETATM    8  C   UNL     1     -43.745 -52.212  14.896  1.00  0.00     0.014 C 
HETATM    9  C   UNL     1     -44.724 -52.149  16.080  1.00  0.00    -0.013 C 
HETATM   10  C   UNL     1     -45.378 -53.527  16.266  1.00  0.00     0.009 C 
HETATM   11  C   UNL     1     -45.811 -51.104  15.785  1.00  0.00     0.009 C 
HETATM   12  C   UNL     1     -46.161 -53.915  15.000  1.00  0.00    -0.013 C 
HETATM   13  C   UNL     1     -47.234 -52.856  14.710  1.00  0.00     0.009 C 
HETATM   14  C   UNL     1     -45.188 -53.984  13.815  1.00  0.00     0.014 C 
HETATM   15  C   UNL     1     -46.571 -51.485  14.505  1.00  0.00    -0.013 C 
HETATM   16  C   UNL     1     -45.582 -51.561  13.321  1.00  0.00     0.014 C 
ENDBRANCH   6   7
ENDBRANCH   5   6
ENDBRANCH   3   5
BRANCH   1  17
HETATM   17  C   UNL     1     -40.915 -49.128  10.671  1.00  0.00     0.255 C 
BRANCH  17  18
HETATM   18  N   UNL     1     -41.188 -47.709  10.852  1.00  0.00    -0.249 N 
HETATM   19  C   UNL     1     -42.293 -47.151  10.231  1.00  0.00     0.262 A 
HETATM   20  C   UNL     1     -42.486 -45.700  10.435  1.00  0.00     0.078 A 
HETATM   21  O   UNL     1     -43.092 -47.778   9.540  1.00  0.00    -0.267 OA
HETATM   22  C   UNL     1     -41.652 -45.002  11.208  1.00  0.00     0.031 A 
HETATM   23  C   UNL     1     -40.525 -45.737  11.813  1.00  0.00     0.022 A 
HETATM   24  C   UNL     1     -39.558 -44.957  12.669  1.00  0.00     0.069 C 
HETATM   25  N   UNL     1     -40.301 -47.002  11.636  1.00  0.00    -0.300 N 
ATOM     26  HN  UNL     1     -39.496 -47.458  12.064  1.00  0.00     0.187 HD
ENDBRANCH  17  18
ENDBRANCH   1  17
TORSDOF 5
ENDMDL
