MODEL 1
REMARK VINA RESULT:      -6.6      0.000      0.000
REMARK  6 active torsions:
REMARK  status: ('A' for Active; 'I' for Inactive)
REMARK    1  A    between atoms: N_5  and  C_6 
REMARK    2  A    between atoms: C_6  and  C_7 
REMARK       I    between atoms: C_7  and  N_9 
REMARK    3  A    between atoms: N_9  and  C_10 
REMARK    4  A    between atoms: C_10  and  C_12 
REMARK    5  A    between atoms: C_10  and  C_16 
REMARK    6  A    between atoms: C_12  and  N_13 
ROOT
HETATM    1  C   UNL     1     -37.665 -50.652  12.653  1.00  0.00     0.050 C 
HETATM    2  C   UNL     1     -38.990 -49.936  12.664  1.00  0.00    -0.034 A 
HETATM    3  C   UNL     1     -40.074 -50.553  11.922  1.00  0.00     0.025 A 
HETATM    4  C   UNL     1     -41.254 -49.935  11.802  1.00  0.00     0.095 A 
HETATM    5  N   UNL     1     -41.495 -48.724  12.424  1.00  0.00    -0.315 N 
HETATM    6  C   UNL     1     -40.546 -48.116  13.244  1.00  0.00     0.269 A 
HETATM    7  O   UNL     1     -40.787 -47.090  13.878  1.00  0.00    -0.266 OA
HETATM    8  C   UNL     1     -39.195 -48.759  13.295  1.00  0.00     0.118 A 
HETATM    9  C   UNL     1     -38.161 -48.068  13.987  1.00  0.00     0.105 C 
HETATM   10  N   UNL     1     -37.284 -47.527  14.516  1.00  0.00    -0.191 NA
ENDROOT
BRANCH   5  11
HETATM   11  C   UNL     1     -42.810 -48.094  12.321  1.00  0.00     0.234 C 
BRANCH  11  12
HETATM   12  C   UNL     1     -43.013 -47.426  10.956  1.00  0.00     0.237 C 
HETATM   13  O   UNL     1     -42.267 -46.541  10.552  1.00  0.00    -0.272 OA
HETATM   14  N   UNL     1     -44.123 -47.870  10.258  1.00  0.00    -0.339 N 
HETATM   15  H   UNL     1     -44.860 -48.278  10.829  1.00  0.00     0.164 HD
BRANCH  14  16
HETATM   16  C   UNL     1     -44.489 -47.372   8.919  1.00  0.00     0.104 C 
HETATM   17  C   UNL     1     -44.449 -45.836   8.858  1.00  0.00     0.054 C 
BRANCH  16  18
HETATM   18  C   UNL     1     -43.524 -47.939   7.892  1.00  0.00    -0.046 C 
BRANCH  18  19
HETATM   19  N   UNL     1     -42.723 -48.410   7.038  1.00  0.00    -0.367 N 
ATOM     20  HN2 UNL     1     -43.371 -48.037   7.733  1.00  0.00     0.165 HD
ATOM     21  HN1 UNL     1     -42.076 -48.791   6.348  1.00  0.00     0.165 HD
ENDBRANCH  18  19
ENDBRANCH  16  18
BRANCH  16  22
HETATM   22  C   UNL     1     -45.868 -47.863   8.501  1.00  0.00     0.027 A 
HETATM   23  C   UNL     1     -47.098 -47.339   9.226  1.00  0.00     0.009 A 
HETATM   24  C   UNL     1     -46.754 -48.798   9.308  1.00  0.00     0.009 A 
ENDBRANCH  16  22
ENDBRANCH  14  16
ENDBRANCH  11  12
ENDBRANCH   5  11
TORSDOF 6
ENDMDL
MODEL 2
REMARK VINA RESULT:      -6.6      1.526      2.070
REMARK  6 active torsions:
REMARK  status: ('A' for Active; 'I' for Inactive)
REMARK    1  A    between atoms: N_5  and  C_6 
REMARK    2  A    between atoms: C_6  and  C_7 
REMARK       I    between atoms: C_7  and  N_9 
REMARK    3  A    between atoms: N_9  and  C_10 
REMARK    4  A    between atoms: C_10  and  C_12 
REMARK    5  A    between atoms: C_10  and  C_16 
REMARK    6  A    between atoms: C_12  and  N_13 
ROOT
HETATM    1  C   UNL     1     -37.809 -48.624  14.654  1.00  0.00     0.050 C 
HETATM    2  C   UNL     1     -39.131 -48.712  13.937  1.00  0.00    -0.034 A 
HETATM    3  C   UNL     1     -40.012 -47.564  14.046  1.00  0.00     0.025 A 
HETATM    4  C   UNL     1     -41.242 -47.599  13.520  1.00  0.00     0.095 A 
HETATM    5  N   UNL     1     -41.687 -48.700  12.812  1.00  0.00    -0.315 N 
HETATM    6  C   UNL     1     -40.866 -49.799  12.568  1.00  0.00     0.269 A 
HETATM    7  O   UNL     1     -41.221 -50.739  11.857  1.00  0.00    -0.266 OA
HETATM    8  C   UNL     1     -39.529 -49.799  13.242  1.00  0.00     0.118 A 
HETATM    9  C   UNL     1     -38.743 -50.982  13.147  1.00  0.00     0.105 C 
HETATM   10  N   UNL     1     -38.083 -51.933  13.119  1.00  0.00    -0.191 NA
ENDROOT
BRANCH   5  11
HETATM   11  C   UNL     1     -43.015 -48.692  12.201  1.00  0.00     0.234 C 
BRANCH  11  12
HETATM   12  C   UNL     1     -42.998 -48.031  10.818  1.00  0.00     0.237 C 
HETATM   13  O   UNL     1     -41.949 -47.706  10.270  1.00  0.00    -0.272 OA
HETATM   14  N   UNL     1     -44.249 -47.794  10.277  1.00  0.00    -0.339 N 
HETATM   15  H   UNL     1     -45.007 -47.726  10.952  1.00  0.00     0.164 HD
BRANCH  14  16
HETATM   16  C   UNL     1     -44.456 -47.185   8.950  1.00  0.00     0.104 C 
HETATM   17  C   UNL     1     -44.201 -45.669   8.980  1.00  0.00     0.054 C 
BRANCH  16  18
HETATM   18  C   UNL     1     -43.514 -47.832   7.949  1.00  0.00    -0.046 C 
BRANCH  18  19
HETATM   19  N   UNL     1     -42.732 -48.369   7.117  1.00  0.00    -0.367 N 
ATOM     20  HN2 UNL     1     -43.367 -47.928   7.784  1.00  0.00     0.165 HD
ATOM     21  HN1 UNL     1     -42.099 -48.803   6.445  1.00  0.00     0.165 HD
ENDBRANCH  18  19
ENDBRANCH  16  18
BRANCH  16  22
HETATM   22  C   UNL     1     -45.859 -47.456   8.426  1.00  0.00     0.027 A 
HETATM   23  C   UNL     1     -47.051 -47.271   9.353  1.00  0.00     0.009 A 
HETATM   24  C   UNL     1     -46.735 -48.636   8.815  1.00  0.00     0.009 A 
ENDBRANCH  16  22
ENDBRANCH  14  16
ENDBRANCH  11  12
ENDBRANCH   5  11
TORSDOF 6
ENDMDL
MODEL 3
REMARK VINA RESULT:      -6.3      4.484      7.481
REMARK  6 active torsions:
REMARK  status: ('A' for Active; 'I' for Inactive)
REMARK    1  A    between atoms: N_5  and  C_6 
REMARK    2  A    between atoms: C_6  and  C_7 
REMARK       I    between atoms: C_7  and  N_9 
REMARK    3  A    between atoms: N_9  and  C_10 
REMARK    4  A    between atoms: C_10  and  C_12 
REMARK    5  A    between atoms: C_10  and  C_16 
REMARK    6  A    between atoms: C_12  and  N_13 
ROOT
HETATM    1  C   UNL     1     -46.521 -51.847  14.196  1.00  0.00     0.050 C 
HETATM    2  C   UNL     1     -45.050 -52.078  14.421  1.00  0.00    -0.034 A 
HETATM    3  C   UNL     1     -44.224 -50.900  14.609  1.00  0.00     0.025 A 
HETATM    4  C   UNL     1     -42.895 -51.012  14.720  1.00  0.00     0.095 A 
HETATM    5  N   UNL     1     -42.278 -52.249  14.716  1.00  0.00    -0.315 N 
HETATM    6  C   UNL     1     -43.008 -53.435  14.651  1.00  0.00     0.269 A 
HETATM    7  O   UNL     1     -42.474 -54.540  14.746  1.00  0.00    -0.266 OA
HETATM    8  C   UNL     1     -44.482 -53.303  14.426  1.00  0.00     0.118 A 
HETATM    9  C   UNL     1     -45.222 -54.495  14.186  1.00  0.00     0.105 C 
HETATM   10  N   UNL     1     -45.858 -55.436  13.960  1.00  0.00    -0.191 NA
ENDROOT
BRANCH   5  11
HETATM   11  C   UNL     1     -40.830 -52.349  14.893  1.00  0.00     0.234 C 
BRANCH  11  12
HETATM   12  C   UNL     1     -40.075 -51.898  13.637  1.00  0.00     0.237 C 
HETATM   13  O   UNL     1     -39.976 -52.618  12.649  1.00  0.00    -0.272 OA
HETATM   14  N   UNL     1     -39.484 -50.651  13.737  1.00  0.00    -0.339 N 
HETATM   15  H   UNL     1     -39.287 -50.339  14.686  1.00  0.00     0.164 HD
BRANCH  14  16
HETATM   16  C   UNL     1     -38.727 -50.023  12.639  1.00  0.00     0.104 C 
HETATM   17  C   UNL     1     -37.454 -50.818  12.304  1.00  0.00     0.054 C 
BRANCH  16  18
HETATM   18  C   UNL     1     -39.608 -49.946  11.403  1.00  0.00    -0.046 C 
BRANCH  18  19
HETATM   19  N   UNL     1     -40.339 -49.881  10.377  1.00  0.00    -0.367 N 
ATOM     20  HN2 UNL     1     -39.755 -49.933  11.212  1.00  0.00     0.165 HD
ATOM     21  HN1 UNL     1     -40.929 -49.829   9.547  1.00  0.00     0.165 HD
ENDBRANCH  18  19
ENDBRANCH  16  18
BRANCH  16  22
HETATM   22  C   UNL     1     -38.357 -48.584  12.969  1.00  0.00     0.027 A 
HETATM   23  C   UNL     1     -37.592 -48.285  14.249  1.00  0.00     0.009 A 
HETATM   24  C   UNL     1     -38.981 -47.743  14.071  1.00  0.00     0.009 A 
ENDBRANCH  16  22
ENDBRANCH  14  16
ENDBRANCH  11  12
ENDBRANCH   5  11
TORSDOF 6
ENDMDL
MODEL 4
REMARK VINA RESULT:      -6.1      6.435      7.454
REMARK  6 active torsions:
REMARK  status: ('A' for Active; 'I' for Inactive)
REMARK    1  A    between atoms: N_5  and  C_6 
REMARK    2  A    between atoms: C_6  and  C_7 
REMARK       I    between atoms: C_7  and  N_9 
REMARK    3  A    between atoms: N_9  and  C_10 
REMARK    4  A    between atoms: C_10  and  C_12 
REMARK    5  A    between atoms: C_10  and  C_16 
REMARK    6  A    between atoms: C_12  and  N_13 
ROOT
HETATM    1  C   UNL     1     -40.752 -56.667  17.796  1.00  0.00     0.050 C 
HETATM    2  C   UNL     1     -41.078 -55.800  16.608  1.00  0.00    -0.034 A 
HETATM    3  C   UNL     1     -42.481 -55.523  16.365  1.00  0.00     0.025 A 
HETATM    4  C   UNL     1     -42.861 -54.841  15.279  1.00  0.00     0.095 A 
HETATM    5  N   UNL     1     -41.931 -54.336  14.390  1.00  0.00    -0.315 N 
HETATM    6  C   UNL     1     -40.560 -54.463  14.606  1.00  0.00     0.269 A 
HETATM    7  O   UNL     1     -39.728 -53.932  13.872  1.00  0.00    -0.266 OA
HETATM    8  C   UNL     1     -40.142 -55.311  15.767  1.00  0.00     0.118 A 
HETATM    9  C   UNL     1     -38.755 -55.595  15.909  1.00  0.00     0.105 C 
HETATM   10  N   UNL     1     -37.639 -55.875  16.047  1.00  0.00    -0.191 NA
ENDROOT
BRANCH   5  11
HETATM   11  C   UNL     1     -42.369 -53.548  13.238  1.00  0.00     0.234 C 
BRANCH  11  12
HETATM   12  C   UNL     1     -43.896 -53.552  13.098  1.00  0.00     0.237 C 
HETATM   13  O   UNL     1     -44.485 -54.417  12.458  1.00  0.00    -0.272 OA
HETATM   14  N   UNL     1     -44.532 -52.483  13.704  1.00  0.00    -0.339 N 
HETATM   15  H   UNL     1     -43.955 -51.655  13.839  1.00  0.00     0.164 HD
BRANCH  14  16
HETATM   16  C   UNL     1     -45.996 -52.305  13.704  1.00  0.00     0.104 C 
HETATM   17  C   UNL     1     -46.518 -51.928  12.307  1.00  0.00     0.054 C 
BRANCH  16  18
HETATM   18  C   UNL     1     -46.658 -53.596  14.154  1.00  0.00    -0.046 C 
BRANCH  18  19
HETATM   19  N   UNL     1     -47.207 -54.668  14.529  1.00  0.00    -0.367 N 
ATOM     20  HN2 UNL     1     -46.756 -53.806  14.224  1.00  0.00     0.165 HD
ATOM     21  HN1 UNL     1     -47.652 -55.535  14.832  1.00  0.00     0.165 HD
ENDBRANCH  18  19
ENDBRANCH  16  18
BRANCH  16  22
HETATM   22  C   UNL     1     -46.428 -51.249  14.712  1.00  0.00     0.027 A 
HETATM   23  C   UNL     1     -45.868 -51.293  16.125  1.00  0.00     0.009 A 
HETATM   24  C   UNL     1     -47.340 -51.489  15.904  1.00  0.00     0.009 A 
ENDBRANCH  16  22
ENDBRANCH  14  16
ENDBRANCH  11  12
ENDBRANCH   5  11
TORSDOF 6
ENDMDL
MODEL 5
REMARK VINA RESULT:      -5.9      4.728      6.626
REMARK  6 active torsions:
REMARK  status: ('A' for Active; 'I' for Inactive)
REMARK    1  A    between atoms: N_5  and  C_6 
REMARK    2  A    between atoms: C_6  and  C_7 
REMARK       I    between atoms: C_7  and  N_9 
REMARK    3  A    between atoms: N_9  and  C_10 
REMARK    4  A    between atoms: C_10  and  C_12 
REMARK    5  A    between atoms: C_10  and  C_16 
REMARK    6  A    between atoms: C_12  and  N_13 
ROOT
HETATM    1  C   UNL     1     -47.508 -51.724  16.136  1.00  0.00     0.050 C 
HETATM    2  C   UNL     1     -46.342 -52.013  15.227  1.00  0.00    -0.034 A 
HETATM    3  C   UNL     1     -46.239 -51.215  14.020  1.00  0.00     0.025 A 
HETATM    4  C   UNL     1     -45.289 -51.472  13.113  1.00  0.00     0.095 A 
HETATM    5  N   UNL     1     -44.348 -52.462  13.324  1.00  0.00    -0.315 N 
HETATM    6  C   UNL     1     -44.309 -53.201  14.505  1.00  0.00     0.269 A 
HETATM    7  O   UNL     1     -43.417 -54.015  14.740  1.00  0.00    -0.266 OA
HETATM    8  C   UNL     1     -45.431 -52.980  15.471  1.00  0.00     0.118 A 
HETATM    9  C   UNL     1     -45.507 -53.842  16.601  1.00  0.00     0.105 C 
HETATM   10  N   UNL     1     -45.623 -54.537  17.520  1.00  0.00    -0.191 NA
ENDROOT
BRANCH   5  11
HETATM   11  C   UNL     1     -43.287 -52.688  12.343  1.00  0.00     0.234 C 
BRANCH  11  12
HETATM   12  C   UNL     1     -42.129 -51.700  12.525  1.00  0.00     0.237 C 
HETATM   13  O   UNL     1     -41.067 -52.037  13.039  1.00  0.00    -0.272 OA
HETATM   14  N   UNL     1     -42.403 -50.408  12.112  1.00  0.00    -0.339 N 
HETATM   15  H   UNL     1     -43.390 -50.160  12.090  1.00  0.00     0.164 HD
BRANCH  14  16
HETATM   16  C   UNL     1     -41.423 -49.310  12.182  1.00  0.00     0.104 C 
HETATM   17  C   UNL     1     -41.054 -48.975  13.637  1.00  0.00     0.054 C 
BRANCH  16  18
HETATM   18  C   UNL     1     -40.166 -49.710  11.426  1.00  0.00    -0.046 C 
BRANCH  18  19
HETATM   19  N   UNL     1     -39.123 -50.042  10.799  1.00  0.00    -0.367 N 
ATOM     20  HN2 UNL     1     -39.963 -49.777  11.314  1.00  0.00     0.165 HD
ATOM     21  HN1 UNL     1     -38.280 -50.311  10.291  1.00  0.00     0.165 HD
ENDBRANCH  18  19
ENDBRANCH  16  18
BRANCH  16  22
HETATM   22  C   UNL     1     -41.938 -48.058  11.485  1.00  0.00     0.027 A 
HETATM   23  C   UNL     1     -43.423 -47.931  11.181  1.00  0.00     0.009 A 
HETATM   24  C   UNL     1     -42.436 -47.988  10.051  1.00  0.00     0.009 A 
ENDBRANCH  16  22
ENDBRANCH  14  16
ENDBRANCH  11  12
ENDBRANCH   5  11
TORSDOF 6
ENDMDL
MODEL 6
REMARK VINA RESULT:      -5.8      4.436      6.880
REMARK  6 active torsions:
REMARK  status: ('A' for Active; 'I' for Inactive)
REMARK    1  A    between atoms: N_5  and  C_6 
REMARK    2  A    between atoms: C_6  and  C_7 
REMARK       I    between atoms: C_7  and  N_9 
REMARK    3  A    between atoms: N_9  and  C_10 
REMARK    4  A    between atoms: C_10  and  C_12 
REMARK    5  A    between atoms: C_10  and  C_16 
REMARK    6  A    between atoms: C_12  and  N_13 
ROOT
HETATM    1  C   UNL     1     -41.913 -55.733  16.837  1.00  0.00     0.050 C 
HETATM    2  C   UNL     1     -41.639 -54.952  15.578  1.00  0.00    -0.034 A 
HETATM    3  C   UNL     1     -42.787 -54.383  14.898  1.00  0.00     0.025 A 
HETATM    4  C   UNL     1     -42.641 -53.757  13.725  1.00  0.00     0.095 A 
HETATM    5  N   UNL     1     -41.393 -53.585  13.156  1.00  0.00    -0.315 N 
HETATM    6  C   UNL     1     -40.228 -54.004  13.796  1.00  0.00     0.269 A 
HETATM    7  O   UNL     1     -39.108 -53.768  13.343  1.00  0.00    -0.266 OA
HETATM    8  C   UNL     1     -40.403 -54.791  15.058  1.00  0.00     0.118 A 
HETATM    9  C   UNL     1     -39.242 -55.375  15.637  1.00  0.00     0.105 C 
HETATM   10  N   UNL     1     -38.328 -55.890  16.128  1.00  0.00    -0.191 NA
ENDROOT
BRANCH   5  11
HETATM   11  C   UNL     1     -41.253 -52.850  11.900  1.00  0.00     0.234 C 
BRANCH  11  12
HETATM   12  C   UNL     1     -40.864 -51.387  12.140  1.00  0.00     0.237 C 
HETATM   13  O   UNL     1     -41.696 -50.539  12.448  1.00  0.00    -0.272 OA
HETATM   14  N   UNL     1     -39.526 -51.105  11.932  1.00  0.00    -0.339 N 
HETATM   15  H   UNL     1     -39.038 -51.750  11.313  1.00  0.00     0.164 HD
BRANCH  14  16
HETATM   16  C   UNL     1     -38.940 -49.766  12.125  1.00  0.00     0.104 C 
HETATM   17  C   UNL     1     -37.540 -49.667  11.494  1.00  0.00     0.054 C 
BRANCH  16  18
HETATM   18  C   UNL     1     -39.849 -48.725  11.493  1.00  0.00    -0.046 C 
BRANCH  18  19
HETATM   19  N   UNL     1     -40.603 -47.861  10.969  1.00  0.00    -0.367 N 
ATOM     20  HN2 UNL     1     -39.995 -48.566  11.387  1.00  0.00     0.165 HD
ATOM     21  HN1 UNL     1     -41.213 -47.162  10.546  1.00  0.00     0.165 HD
ENDBRANCH  18  19
ENDBRANCH  16  18
BRANCH  16  22
HETATM   22  C   UNL     1     -38.861 -49.400  13.600  1.00  0.00     0.027 A 
HETATM   23  C   UNL     1     -37.525 -49.491  14.322  1.00  0.00     0.009 A 
HETATM   24  C   UNL     1     -38.658 -50.381  14.744  1.00  0.00     0.009 A 
ENDBRANCH  16  22
ENDBRANCH  14  16
ENDBRANCH  11  12
ENDBRANCH   5  11
TORSDOF 6
ENDMDL
MODEL 7
REMARK VINA RESULT:      -5.8      4.362      7.248
REMARK  6 active torsions:
REMARK  status: ('A' for Active; 'I' for Inactive)
REMARK    1  A    between atoms: N_5  and  C_6 
REMARK    2  A    between atoms: C_6  and  C_7 
REMARK       I    between atoms: C_7  and  N_9 
REMARK    3  A    between atoms: N_9  and  C_10 
REMARK    4  A    between atoms: C_10  and  C_12 
REMARK    5  A    between atoms: C_10  and  C_16 
REMARK    6  A    between atoms: C_12  and  N_13 
ROOT
HETATM    1  C   UNL     1     -42.654 -55.670  16.363  1.00  0.00     0.050 C 
HETATM    2  C   UNL     1     -42.448 -54.858  15.111  1.00  0.00    -0.034 A 
HETATM    3  C   UNL     1     -41.081 -54.505  14.777  1.00  0.00     0.025 A 
HETATM    4  C   UNL     1     -40.820 -53.707  13.736  1.00  0.00     0.095 A 
HETATM    5  N   UNL     1     -41.833 -53.244  12.917  1.00  0.00    -0.315 N 
HETATM    6  C   UNL     1     -43.161 -53.624  13.102  1.00  0.00     0.269 A 
HETATM    7  O   UNL     1     -44.053 -53.296  12.321  1.00  0.00    -0.266 OA
HETATM    8  C   UNL     1     -43.461 -54.434  14.325  1.00  0.00     0.118 A 
HETATM    9  C   UNL     1     -44.828 -54.690  14.627  1.00  0.00     0.105 C 
HETATM   10  N   UNL     1     -45.927 -54.899  14.925  1.00  0.00    -0.191 NA
ENDROOT
BRANCH   5  11
HETATM   11  C   UNL     1     -41.517 -52.416  11.754  1.00  0.00     0.234 C 
BRANCH  11  12
HETATM   12  C   UNL     1     -40.859 -51.093  12.162  1.00  0.00     0.237 C 
HETATM   13  O   UNL     1     -41.462 -50.244  12.811  1.00  0.00    -0.272 OA
HETATM   14  N   UNL     1     -39.565 -50.926  11.699  1.00  0.00    -0.339 N 
HETATM   15  H   UNL     1     -39.326 -51.473  10.874  1.00  0.00     0.164 HD
BRANCH  14  16
HETATM   16  C   UNL     1     -38.747 -49.736  11.993  1.00  0.00     0.104 C 
HETATM   17  C   UNL     1     -37.367 -49.820  11.320  1.00  0.00     0.054 C 
BRANCH  16  18
HETATM   18  C   UNL     1     -39.470 -48.495  11.498  1.00  0.00    -0.046 C 
BRANCH  18  19
HETATM   19  N   UNL     1     -40.071 -47.465  11.086  1.00  0.00    -0.367 N 
ATOM     20  HN2 UNL     1     -39.588 -48.302  11.412  1.00  0.00     0.165 HD
ATOM     21  HN1 UNL     1     -40.556 -46.632  10.754  1.00  0.00     0.165 HD
ENDBRANCH  18  19
ENDBRANCH  16  18
BRANCH  16  22
HETATM   22  C   UNL     1     -38.572 -49.537  13.492  1.00  0.00     0.027 A 
HETATM   23  C   UNL     1     -37.648 -48.439  13.996  1.00  0.00     0.009 A 
HETATM   24  C   UNL     1     -37.321 -49.875  14.288  1.00  0.00     0.009 A 
ENDBRANCH  16  22
ENDBRANCH  14  16
ENDBRANCH  11  12
ENDBRANCH   5  11
TORSDOF 6
ENDMDL
MODEL 8
REMARK VINA RESULT:      -5.8      4.200      5.859
REMARK  6 active torsions:
REMARK  status: ('A' for Active; 'I' for Inactive)
REMARK    1  A    between atoms: N_5  and  C_6 
REMARK    2  A    between atoms: C_6  and  C_7 
REMARK       I    between atoms: C_7  and  N_9 
REMARK    3  A    between atoms: N_9  and  C_10 
REMARK    4  A    between atoms: C_10  and  C_12 
REMARK    5  A    between atoms: C_10  and  C_16 
REMARK    6  A    between atoms: C_12  and  N_13 
ROOT
HETATM    1  C   UNL     1     -42.331 -55.623  16.371  1.00  0.00     0.050 C 
HETATM    2  C   UNL     1     -42.131 -54.818  15.113  1.00  0.00    -0.034 A 
HETATM    3  C   UNL     1     -40.760 -54.576  14.703  1.00  0.00     0.025 A 
HETATM    4  C   UNL     1     -40.494 -53.791  13.652  1.00  0.00     0.095 A 
HETATM    5  N   UNL     1     -41.510 -53.237  12.897  1.00  0.00    -0.315 N 
HETATM    6  C   UNL     1     -42.853 -53.508  13.156  1.00  0.00     0.269 A 
HETATM    7  O   UNL     1     -43.758 -53.098  12.431  1.00  0.00    -0.266 OA
HETATM    8  C   UNL     1     -43.148 -54.303  14.390  1.00  0.00     0.118 A 
HETATM    9  C   UNL     1     -44.512 -54.448  14.770  1.00  0.00     0.105 C 
HETATM   10  N   UNL     1     -45.606 -54.568  15.130  1.00  0.00    -0.191 NA
ENDROOT
BRANCH   5  11
HETATM   11  C   UNL     1     -41.194 -52.426  11.722  1.00  0.00     0.234 C 
BRANCH  11  12
HETATM   12  C   UNL     1     -41.019 -50.947  12.085  1.00  0.00     0.237 C 
HETATM   13  O   UNL     1     -40.018 -50.538  12.666  1.00  0.00    -0.272 OA
HETATM   14  N   UNL     1     -42.092 -50.141  11.750  1.00  0.00    -0.339 N 
HETATM   15  H   UNL     1     -42.984 -50.623  11.658  1.00  0.00     0.164 HD
BRANCH  14  16
HETATM   16  C   UNL     1     -42.121 -48.687  11.995  1.00  0.00     0.104 C 
HETATM   17  C   UNL     1     -42.402 -48.370  13.473  1.00  0.00     0.054 C 
BRANCH  16  18
HETATM   18  C   UNL     1     -40.783 -48.085  11.599  1.00  0.00    -0.046 C 
BRANCH  18  19
HETATM   19  N   UNL     1     -39.672 -47.586  11.271  1.00  0.00    -0.367 N 
ATOM     20  HN2 UNL     1     -40.571 -47.985  11.544  1.00  0.00     0.165 HD
ATOM     21  HN1 UNL     1     -38.774 -47.182  11.005  1.00  0.00     0.165 HD
ENDBRANCH  18  19
ENDBRANCH  16  18
BRANCH  16  22
HETATM   22  C   UNL     1     -43.156 -47.996  11.119  1.00  0.00     0.027 A 
HETATM   23  C   UNL     1     -42.860 -47.780   9.643  1.00  0.00     0.009 A 
HETATM   24  C   UNL     1     -43.032 -46.593  10.546  1.00  0.00     0.009 A 
ENDBRANCH  16  22
ENDBRANCH  14  16
ENDBRANCH  11  12
ENDBRANCH   5  11
TORSDOF 6
ENDMDL
MODEL 9
REMARK VINA RESULT:      -5.8      3.275      4.351
REMARK  6 active torsions:
REMARK  status: ('A' for Active; 'I' for Inactive)
REMARK    1  A    between atoms: N_5  and  C_6 
REMARK    2  A    between atoms: C_6  and  C_7 
REMARK       I    between atoms: C_7  and  N_9 
REMARK    3  A    between atoms: N_9  and  C_10 
REMARK    4  A    between atoms: C_10  and  C_12 
REMARK    5  A    between atoms: C_10  and  C_16 
REMARK    6  A    between atoms: C_12  and  N_13 
ROOT
HETATM    1  C   UNL     1     -42.890 -54.603  14.356  1.00  0.00     0.050 C 
HETATM    2  C   UNL     1     -42.060 -53.531  13.700  1.00  0.00    -0.034 A 
HETATM    3  C   UNL     1     -42.762 -52.591  12.846  1.00  0.00     0.025 A 
HETATM    4  C   UNL     1     -42.087 -51.669  12.151  1.00  0.00     0.095 A 
HETATM    5  N   UNL     1     -40.715 -51.546  12.268  1.00  0.00    -0.315 N 
HETATM    6  C   UNL     1     -39.978 -52.336  13.149  1.00  0.00     0.269 A 
HETATM    7  O   UNL     1     -38.773 -52.168  13.331  1.00  0.00    -0.266 OA
HETATM    8  C   UNL     1     -40.721 -53.432  13.848  1.00  0.00     0.118 A 
HETATM    9  C   UNL     1     -39.962 -54.357  14.618  1.00  0.00     0.105 C 
HETATM   10  N   UNL     1     -39.381 -55.147  15.234  1.00  0.00    -0.191 NA
ENDROOT
BRANCH   5  11
HETATM   11  C   UNL     1     -40.006 -50.495  11.540  1.00  0.00     0.234 C 
BRANCH  11  12
HETATM   12  C   UNL     1     -40.741 -49.152  11.627  1.00  0.00     0.237 C 
HETATM   13  O   UNL     1     -40.709 -48.462  12.642  1.00  0.00    -0.272 OA
HETATM   14  N   UNL     1     -41.469 -48.820  10.499  1.00  0.00    -0.339 N 
HETATM   15  H   UNL     1     -41.748 -49.606   9.916  1.00  0.00     0.164 HD
BRANCH  14  16
HETATM   16  C   UNL     1     -42.233 -47.566  10.368  1.00  0.00     0.104 C 
HETATM   17  C   UNL     1     -43.177 -47.353  11.563  1.00  0.00     0.054 C 
BRANCH  16  18
HETATM   18  C   UNL     1     -41.266 -46.397  10.280  1.00  0.00    -0.046 C 
BRANCH  18  19
HETATM   19  N   UNL     1     -40.464 -45.426  10.206  1.00  0.00    -0.367 N 
ATOM     20  HN2 UNL     1     -41.120 -46.205  10.267  1.00  0.00     0.165 HD
ATOM     21  HN1 UNL     1     -39.814 -44.642  10.147  1.00  0.00     0.165 HD
ENDBRANCH  18  19
ENDBRANCH  16  18
BRANCH  16  22
HETATM   22  C   UNL     1     -43.034 -47.534   9.074  1.00  0.00     0.027 A 
HETATM   23  C   UNL     1     -43.767 -46.260   8.681  1.00  0.00     0.009 A 
HETATM   24  C   UNL     1     -44.550 -47.508   8.974  1.00  0.00     0.009 A 
ENDBRANCH  16  22
ENDBRANCH  14  16
ENDBRANCH  11  12
ENDBRANCH   5  11
TORSDOF 6
ENDMDL
