MODEL 1
REMARK VINA RESULT:      -5.6      0.000      0.000
REMARK  7 active torsions:
REMARK  status: ('A' for Active; 'I' for Inactive)
REMARK    1  A    between atoms: N_5  and  C_6 
REMARK    2  A    between atoms: C_6  and  C_7 
REMARK       I    between atoms: C_7  and  N_9 
REMARK    3  A    between atoms: N_9  and  C_10 
REMARK    4  A    between atoms: C_10  and  C_11 
REMARK    5  A    between atoms: C_16  and  C_17 
REMARK    6  A    between atoms: C_17  and  C_18 
REMARK    7  A    between atoms: C_18  and  O_19 
ROOT
HETATM    1  C   UNL     1     -40.586 -51.947  12.241  1.00  0.00     0.070 C 
HETATM    2  C   UNL     1     -41.466 -52.933  12.920  1.00  0.00     0.030 A 
HETATM    3  N   UNL     1     -42.671 -53.208  12.415  1.00  0.00    -0.302 N 
ATOM      4  HN  UNL     1     -43.083 -52.852  11.552  1.00  0.00     0.186 HD
HETATM    5  N   UNL     1     -43.222 -54.061  13.300  1.00  0.00    -0.287 N 
HETATM    6  C   UNL     1     -42.376 -54.395  14.328  1.00  0.00     0.033 A 
HETATM    7  C   UNL     1     -42.722 -55.331  15.429  1.00  0.00     0.070 C 
HETATM    8  C   UNL     1     -41.208 -53.683  14.100  1.00  0.00    -0.009 A 
ENDROOT
BRANCH   5   9
HETATM    9  C   UNL     1     -44.606 -54.454  13.095  1.00  0.00     0.251 C 
BRANCH   9  10
HETATM   10  C   UNL     1     -45.548 -53.275  13.099  1.00  0.00     0.237 C 
HETATM   11  O   UNL     1     -45.963 -52.786  12.049  1.00  0.00    -0.272 OA
HETATM   12  N   UNL     1     -45.941 -52.835  14.342  1.00  0.00    -0.359 N 
HETATM   13  H   UNL     1     -45.514 -53.244  15.166  1.00  0.00     0.162 HD
BRANCH  12  14
HETATM   14  C   UNL     1     -46.832 -51.711  14.525  1.00  0.00     0.127 C 
BRANCH  14  15
HETATM   15  C   UNL     1     -46.666 -51.175  15.912  1.00  0.00     0.003 A 
HETATM   16  C   UNL     1     -46.770 -52.089  17.108  1.00  0.00     0.007 A 
HETATM   17  C   UNL     1     -47.849 -51.076  16.843  1.00  0.00     0.007 A 
ENDBRANCH  14  15
ENDBRANCH  12  14
ENDBRANCH   9  10
ENDBRANCH   5   9
BRANCH   8  18
HETATM   18  C   UNL     1     -39.959 -53.679  14.929  1.00  0.00     0.068 C 
BRANCH  18  19
HETATM   19  C   UNL     1     -39.076 -54.904  14.692  1.00  0.00     0.168 C 
BRANCH  19  20
HETATM   20  O   UNL     1     -38.733 -55.046  13.316  1.00  0.00    -0.401 OA
HETATM   21  H   UNL     1     -39.323 -54.448  12.821  1.00  0.00     0.209 HD
ENDBRANCH  19  20
ENDBRANCH  18  19
ENDBRANCH   8  18
TORSDOF 7
ENDMDL
MODEL 2
REMARK VINA RESULT:      -5.5      3.739      6.073
REMARK  7 active torsions:
REMARK  status: ('A' for Active; 'I' for Inactive)
REMARK    1  A    between atoms: N_5  and  C_6 
REMARK    2  A    between atoms: C_6  and  C_7 
REMARK       I    between atoms: C_7  and  N_9 
REMARK    3  A    between atoms: N_9  and  C_10 
REMARK    4  A    between atoms: C_10  and  C_11 
REMARK    5  A    between atoms: C_16  and  C_17 
REMARK    6  A    between atoms: C_17  and  C_18 
REMARK    7  A    between atoms: C_18  and  O_19 
ROOT
HETATM    1  C   UNL     1     -46.107 -51.610  13.729  1.00  0.00     0.070 C 
HETATM    2  C   UNL     1     -44.678 -51.950  13.510  1.00  0.00     0.030 A 
HETATM    3  N   UNL     1     -43.872 -51.076  12.901  1.00  0.00    -0.302 N 
ATOM      4  HN  UNL     1     -44.098 -50.133  12.585  1.00  0.00     0.186 HD
HETATM    5  N   UNL     1     -42.693 -51.719  12.796  1.00  0.00    -0.287 N 
HETATM    6  C   UNL     1     -42.700 -52.960  13.383  1.00  0.00     0.033 A 
HETATM    7  C   UNL     1     -41.528 -53.873  13.428  1.00  0.00     0.070 C 
HETATM    8  C   UNL     1     -43.984 -53.136  13.874  1.00  0.00    -0.009 A 
ENDROOT
BRANCH   5   9
HETATM    9  C   UNL     1     -41.627 -51.069  12.052  1.00  0.00     0.251 C 
BRANCH   9  10
HETATM   10  C   UNL     1     -41.835 -49.579  11.928  1.00  0.00     0.237 C 
HETATM   11  O   UNL     1     -41.923 -48.862  12.923  1.00  0.00    -0.272 OA
HETATM   12  N   UNL     1     -41.863 -49.090  10.641  1.00  0.00    -0.359 N 
HETATM   13  H   UNL     1     -41.846 -49.744   9.866  1.00  0.00     0.162 HD
BRANCH  12  14
HETATM   14  C   UNL     1     -42.062 -47.689  10.345  1.00  0.00     0.127 C 
BRANCH  14  15
HETATM   15  C   UNL     1     -43.400 -47.511   9.699  1.00  0.00     0.003 A 
HETATM   16  C   UNL     1     -43.558 -47.645   8.205  1.00  0.00     0.007 A 
HETATM   17  C   UNL     1     -43.688 -46.295   8.853  1.00  0.00     0.007 A 
ENDBRANCH  14  15
ENDBRANCH  12  14
ENDBRANCH   9  10
ENDBRANCH   5   9
BRANCH   8  18
HETATM   18  C   UNL     1     -44.533 -54.326  14.603  1.00  0.00     0.068 C 
BRANCH  18  19
HETATM   19  C   UNL     1     -45.498 -55.157  13.756  1.00  0.00     0.168 C 
BRANCH  19  20
HETATM   20  O   UNL     1     -46.727 -55.390  14.437  1.00  0.00    -0.401 OA
HETATM   21  H   UNL     1     -47.412 -54.895  13.951  1.00  0.00     0.209 HD
ENDBRANCH  19  20
ENDBRANCH  18  19
ENDBRANCH   8  18
TORSDOF 7
ENDMDL
MODEL 3
REMARK VINA RESULT:      -5.5      2.182      3.017
REMARK  7 active torsions:
REMARK  status: ('A' for Active; 'I' for Inactive)
REMARK    1  A    between atoms: N_5  and  C_6 
REMARK    2  A    between atoms: C_6  and  C_7 
REMARK       I    between atoms: C_7  and  N_9 
REMARK    3  A    between atoms: N_9  and  C_10 
REMARK    4  A    between atoms: C_10  and  C_11 
REMARK    5  A    between atoms: C_16  and  C_17 
REMARK    6  A    between atoms: C_17  and  C_18 
REMARK    7  A    between atoms: C_18  and  O_19 
ROOT
HETATM    1  C   UNL     1     -42.888 -48.788  12.883  1.00  0.00     0.070 C 
HETATM    2  C   UNL     1     -42.628 -50.242  12.728  1.00  0.00     0.030 A 
HETATM    3  N   UNL     1     -43.650 -51.091  12.595  1.00  0.00    -0.302 N 
ATOM      4  HN  UNL     1     -44.643 -50.867  12.534  1.00  0.00     0.186 HD
HETATM    5  N   UNL     1     -43.076 -52.309  12.558  1.00  0.00    -0.287 N 
HETATM    6  C   UNL     1     -41.704 -52.262  12.596  1.00  0.00     0.033 A 
HETATM    7  C   UNL     1     -40.822 -53.457  12.550  1.00  0.00     0.070 C 
HETATM    8  C   UNL     1     -41.377 -50.918  12.693  1.00  0.00    -0.009 A 
ENDROOT
BRANCH   5   9
HETATM    9  C   UNL     1     -43.948 -53.472  12.546  1.00  0.00     0.251 C 
BRANCH   9  10
HETATM   10  C   UNL     1     -45.373 -53.129  12.906  1.00  0.00     0.237 C 
HETATM   11  O   UNL     1     -46.183 -52.784  12.047  1.00  0.00    -0.272 OA
HETATM   12  N   UNL     1     -45.702 -53.283  14.233  1.00  0.00    -0.359 N 
HETATM   13  H   UNL     1     -44.971 -53.512  14.897  1.00  0.00     0.162 HD
BRANCH  12  14
HETATM   14  C   UNL     1     -47.021 -52.990  14.747  1.00  0.00     0.127 C 
BRANCH  14  15
HETATM   15  C   UNL     1     -47.061 -51.567  15.209  1.00  0.00     0.003 A 
HETATM   16  C   UNL     1     -46.139 -51.086  16.302  1.00  0.00     0.007 A 
HETATM   17  C   UNL     1     -47.612 -51.217  16.570  1.00  0.00     0.007 A 
ENDBRANCH  14  15
ENDBRANCH  12  14
ENDBRANCH   9  10
ENDBRANCH   5   9
BRANCH   8  18
HETATM   18  C   UNL     1     -40.009 -50.311  12.773  1.00  0.00     0.068 C 
BRANCH  18  19
HETATM   19  C   UNL     1     -39.613 -49.554  11.505  1.00  0.00     0.168 C 
BRANCH  19  20
HETATM   20  O   UNL     1     -40.233 -50.106  10.348  1.00  0.00    -0.401 OA
HETATM   21  H   UNL     1     -39.513 -50.358   9.741  1.00  0.00     0.209 HD
ENDBRANCH  19  20
ENDBRANCH  18  19
ENDBRANCH   8  18
TORSDOF 7
ENDMDL
MODEL 4
REMARK VINA RESULT:      -5.4      1.547      2.660
REMARK  7 active torsions:
REMARK  status: ('A' for Active; 'I' for Inactive)
REMARK    1  A    between atoms: N_5  and  C_6 
REMARK    2  A    between atoms: C_6  and  C_7 
REMARK       I    between atoms: C_7  and  N_9 
REMARK    3  A    between atoms: N_9  and  C_10 
REMARK    4  A    between atoms: C_10  and  C_11 
REMARK    5  A    between atoms: C_16  and  C_17 
REMARK    6  A    between atoms: C_17  and  C_18 
REMARK    7  A    between atoms: C_18  and  O_19 
ROOT
HETATM    1  C   UNL     1     -42.302 -56.030  16.632  1.00  0.00     0.070 C 
HETATM    2  C   UNL     1     -41.900 -55.052  15.589  1.00  0.00     0.030 A 
HETATM    3  N   UNL     1     -42.748 -54.743  14.604  1.00  0.00    -0.302 N 
ATOM      4  HN  UNL     1     -43.708 -55.066  14.482  1.00  0.00     0.186 HD
HETATM    5  N   UNL     1     -42.052 -53.910  13.807  1.00  0.00    -0.287 N 
HETATM    6  C   UNL     1     -40.799 -53.621  14.290  1.00  0.00     0.033 A 
HETATM    7  C   UNL     1     -39.831 -52.714  13.620  1.00  0.00     0.070 C 
HETATM    8  C   UNL     1     -40.673 -54.344  15.466  1.00  0.00    -0.009 A 
ENDROOT
BRANCH   5   9
HETATM    9  C   UNL     1     -42.667 -53.489  12.559  1.00  0.00     0.251 C 
BRANCH   9  10
HETATM   10  C   UNL     1     -44.175 -53.516  12.621  1.00  0.00     0.237 C 
HETATM   11  O   UNL     1     -44.793 -54.577  12.668  1.00  0.00    -0.272 OA
HETATM   12  N   UNL     1     -44.787 -52.284  12.677  1.00  0.00    -0.359 N 
HETATM   13  H   UNL     1     -44.220 -51.449  12.573  1.00  0.00     0.162 HD
BRANCH  12  14
HETATM   14  C   UNL     1     -46.223 -52.130  12.731  1.00  0.00     0.127 C 
BRANCH  14  15
HETATM   15  C   UNL     1     -46.585 -51.337  13.948  1.00  0.00     0.003 A 
HETATM   16  C   UNL     1     -45.696 -51.349  15.167  1.00  0.00     0.007 A 
HETATM   17  C   UNL     1     -47.034 -52.032  15.211  1.00  0.00     0.007 A 
ENDBRANCH  14  15
ENDBRANCH  12  14
ENDBRANCH   9  10
ENDBRANCH   5   9
BRANCH   8  18
HETATM   18  C   UNL     1     -39.495 -54.392  16.392  1.00  0.00     0.068 C 
BRANCH  18  19
HETATM   19  C   UNL     1     -38.689 -55.686  16.270  1.00  0.00     0.168 C 
BRANCH  19  20
HETATM   20  O   UNL     1     -38.154 -55.851  14.960  1.00  0.00    -0.401 OA
HETATM   21  H   UNL     1     -38.808 -55.472  14.344  1.00  0.00     0.209 HD
ENDBRANCH  19  20
ENDBRANCH  18  19
ENDBRANCH   8  18
TORSDOF 7
ENDMDL
MODEL 5
REMARK VINA RESULT:      -5.2      4.843      6.547
REMARK  7 active torsions:
REMARK  status: ('A' for Active; 'I' for Inactive)
REMARK    1  A    between atoms: N_5  and  C_6 
REMARK    2  A    between atoms: C_6  and  C_7 
REMARK       I    between atoms: C_7  and  N_9 
REMARK    3  A    between atoms: N_9  and  C_10 
REMARK    4  A    between atoms: C_10  and  C_11 
REMARK    5  A    between atoms: C_16  and  C_17 
REMARK    6  A    between atoms: C_17  and  C_18 
REMARK    7  A    between atoms: C_18  and  O_19 
ROOT
HETATM    1  C   UNL     1     -43.107 -46.649  10.063  1.00  0.00     0.070 C 
HETATM    2  C   UNL     1     -42.032 -47.472  10.675  1.00  0.00     0.030 A 
HETATM    3  N   UNL     1     -42.147 -48.802  10.703  1.00  0.00    -0.302 N 
ATOM      4  HN  UNL     1     -42.889 -49.373  10.299  1.00  0.00     0.186 HD
HETATM    5  N   UNL     1     -41.063 -49.221  11.384  1.00  0.00    -0.287 N 
HETATM    6  C   UNL     1     -40.218 -48.199  11.738  1.00  0.00     0.033 A 
HETATM    7  C   UNL     1     -38.942 -48.383  12.477  1.00  0.00     0.070 C 
HETATM    8  C   UNL     1     -40.818 -47.038  11.274  1.00  0.00    -0.009 A 
ENDROOT
BRANCH   5   9
HETATM    9  C   UNL     1     -40.962 -50.637  11.699  1.00  0.00     0.251 C 
BRANCH   9  10
HETATM   10  C   UNL     1     -41.897 -51.049  12.810  1.00  0.00     0.237 C 
HETATM   11  O   UNL     1     -41.644 -50.791  13.985  1.00  0.00    -0.272 OA
HETATM   12  N   UNL     1     -43.056 -51.673  12.408  1.00  0.00    -0.359 N 
HETATM   13  H   UNL     1     -43.173 -51.908  11.429  1.00  0.00     0.162 HD
BRANCH  12  14
HETATM   14  C   UNL     1     -44.054 -52.139  13.344  1.00  0.00     0.127 C 
BRANCH  14  15
HETATM   15  C   UNL     1     -45.251 -51.245  13.270  1.00  0.00     0.003 A 
HETATM   16  C   UNL     1     -46.427 -51.455  14.191  1.00  0.00     0.007 A 
HETATM   17  C   UNL     1     -46.561 -51.759  12.725  1.00  0.00     0.007 A 
ENDBRANCH  14  15
ENDBRANCH  12  14
ENDBRANCH   9  10
ENDBRANCH   5   9
BRANCH   8  18
HETATM   18  C   UNL     1     -40.314 -45.631  11.400  1.00  0.00     0.068 C 
BRANCH  18  19
HETATM   19  C   UNL     1     -39.640 -45.118  10.127  1.00  0.00     0.168 C 
BRANCH  19  20
HETATM   20  O   UNL     1     -39.906 -43.735   9.913  1.00  0.00    -0.401 OA
HETATM   21  H   UNL     1     -40.794 -43.564  10.276  1.00  0.00     0.209 HD
ENDBRANCH  19  20
ENDBRANCH  18  19
ENDBRANCH   8  18
TORSDOF 7
ENDMDL
MODEL 6
REMARK VINA RESULT:      -5.2      2.196      3.234
REMARK  7 active torsions:
REMARK  status: ('A' for Active; 'I' for Inactive)
REMARK    1  A    between atoms: N_5  and  C_6 
REMARK    2  A    between atoms: C_6  and  C_7 
REMARK       I    between atoms: C_7  and  N_9 
REMARK    3  A    between atoms: N_9  and  C_10 
REMARK    4  A    between atoms: C_10  and  C_11 
REMARK    5  A    between atoms: C_16  and  C_17 
REMARK    6  A    between atoms: C_17  and  C_18 
REMARK    7  A    between atoms: C_18  and  O_19 
ROOT
HETATM    1  C   UNL     1     -40.983 -49.244  11.094  1.00  0.00     0.070 C 
HETATM    2  C   UNL     1     -40.844 -50.521  11.840  1.00  0.00     0.030 A 
HETATM    3  N   UNL     1     -41.846 -51.404  11.841  1.00  0.00    -0.302 N 
ATOM      4  HN  UNL     1     -42.731 -51.345  11.336  1.00  0.00     0.186 HD
HETATM    5  N   UNL     1     -41.430 -52.389  12.660  1.00  0.00    -0.287 N 
HETATM    6  C   UNL     1     -40.155 -52.195  13.134  1.00  0.00     0.033 A 
HETATM    7  C   UNL     1     -39.445 -53.136  14.038  1.00  0.00     0.070 C 
HETATM    8  C   UNL     1     -39.737 -50.985  12.602  1.00  0.00    -0.009 A 
ENDROOT
BRANCH   5   9
HETATM    9  C   UNL     1     -42.366 -53.455  12.974  1.00  0.00     0.251 C 
BRANCH   9  10
HETATM   10  C   UNL     1     -43.307 -53.085  14.094  1.00  0.00     0.237 C 
HETATM   11  O   UNL     1     -43.029 -52.193  14.894  1.00  0.00    -0.272 OA
HETATM   12  N   UNL     1     -44.501 -53.771  14.116  1.00  0.00    -0.359 N 
HETATM   13  H   UNL     1     -44.640 -54.535  13.464  1.00  0.00     0.162 HD
BRANCH  12  14
HETATM   14  C   UNL     1     -45.510 -53.546  15.126  1.00  0.00     0.127 C 
BRANCH  14  15
HETATM   15  C   UNL     1     -46.648 -52.787  14.520  1.00  0.00     0.003 A 
HETATM   16  C   UNL     1     -46.400 -51.519  13.742  1.00  0.00     0.007 A 
HETATM   17  C   UNL     1     -47.069 -51.453  15.087  1.00  0.00     0.007 A 
ENDBRANCH  14  15
ENDBRANCH  12  14
ENDBRANCH   9  10
ENDBRANCH   5   9
BRANCH   8  18
HETATM   18  C   UNL     1     -38.419 -50.299  12.807  1.00  0.00     0.068 C 
BRANCH  18  19
HETATM   19  C   UNL     1     -37.384 -50.656  11.740  1.00  0.00     0.168 C 
BRANCH  19  20
HETATM   20  O   UNL     1     -36.774 -51.917  12.000  1.00  0.00    -0.401 OA
HETATM   21  H   UNL     1     -36.616 -52.332  11.132  1.00  0.00     0.209 HD
ENDBRANCH  19  20
ENDBRANCH  18  19
ENDBRANCH   8  18
TORSDOF 7
ENDMDL
MODEL 7
REMARK VINA RESULT:      -5.1      3.937      5.730
REMARK  7 active torsions:
REMARK  status: ('A' for Active; 'I' for Inactive)
REMARK    1  A    between atoms: N_5  and  C_6 
REMARK    2  A    between atoms: C_6  and  C_7 
REMARK       I    between atoms: C_7  and  N_9 
REMARK    3  A    between atoms: N_9  and  C_10 
REMARK    4  A    between atoms: C_10  and  C_11 
REMARK    5  A    between atoms: C_16  and  C_17 
REMARK    6  A    between atoms: C_17  and  C_18 
REMARK    7  A    between atoms: C_18  and  O_19 
ROOT
HETATM    1  C   UNL     1     -42.619 -53.901  13.201  1.00  0.00     0.070 C 
HETATM    2  C   UNL     1     -41.610 -52.826  13.022  1.00  0.00     0.030 A 
HETATM    3  N   UNL     1     -41.761 -51.927  12.046  1.00  0.00    -0.302 N 
ATOM      4  HN  UNL     1     -42.540 -51.839  11.394  1.00  0.00     0.186 HD
HETATM    5  N   UNL     1     -40.654 -51.163  12.115  1.00  0.00    -0.287 N 
HETATM    6  C   UNL     1     -39.825 -51.504  13.155  1.00  0.00     0.033 A 
HETATM    7  C   UNL     1     -38.548 -50.813  13.472  1.00  0.00     0.070 C 
HETATM    8  C   UNL     1     -40.431 -52.584  13.780  1.00  0.00    -0.009 A 
ENDROOT
BRANCH   5   9
HETATM    9  C   UNL     1     -40.457 -50.156  11.086  1.00  0.00     0.251 C 
BRANCH   9  10
HETATM   10  C   UNL     1     -41.346 -48.951  11.278  1.00  0.00     0.237 C 
HETATM   11  O   UNL     1     -41.880 -48.719  12.361  1.00  0.00    -0.272 OA
HETATM   12  N   UNL     1     -41.462 -48.121  10.187  1.00  0.00    -0.359 N 
HETATM   13  H   UNL     1     -41.044 -48.403   9.308  1.00  0.00     0.162 HD
BRANCH  12  14
HETATM   14  C   UNL     1     -42.281 -46.929  10.199  1.00  0.00     0.127 C 
BRANCH  14  15
HETATM   15  C   UNL     1     -43.651 -47.272   9.705  1.00  0.00     0.003 A 
HETATM   16  C   UNL     1     -43.904 -47.507   8.237  1.00  0.00     0.007 A 
HETATM   17  C   UNL     1     -44.449 -46.274   8.902  1.00  0.00     0.007 A 
ENDBRANCH  14  15
ENDBRANCH  12  14
ENDBRANCH   9  10
ENDBRANCH   5   9
BRANCH   8  18
HETATM   18  C   UNL     1     -39.940 -53.348  14.973  1.00  0.00     0.068 C 
BRANCH  18  19
HETATM   19  C   UNL     1     -39.270 -54.672  14.604  1.00  0.00     0.168 C 
BRANCH  19  20
HETATM   20  O   UNL     1     -38.898 -54.707  13.229  1.00  0.00    -0.401 OA
HETATM   21  H   UNL     1     -38.921 -53.786  12.912  1.00  0.00     0.209 HD
ENDBRANCH  19  20
ENDBRANCH  18  19
ENDBRANCH   8  18
TORSDOF 7
ENDMDL
MODEL 8
REMARK VINA RESULT:      -5.1      3.514      6.290
REMARK  7 active torsions:
REMARK  status: ('A' for Active; 'I' for Inactive)
REMARK    1  A    between atoms: N_5  and  C_6 
REMARK    2  A    between atoms: C_6  and  C_7 
REMARK       I    between atoms: C_7  and  N_9 
REMARK    3  A    between atoms: N_9  and  C_10 
REMARK    4  A    between atoms: C_10  and  C_11 
REMARK    5  A    between atoms: C_16  and  C_17 
REMARK    6  A    between atoms: C_17  and  C_18 
REMARK    7  A    between atoms: C_18  and  O_19 
ROOT
HETATM    1  C   UNL     1     -46.255 -51.577  13.705  1.00  0.00     0.070 C 
HETATM    2  C   UNL     1     -44.825 -51.940  13.528  1.00  0.00     0.030 A 
HETATM    3  N   UNL     1     -44.001 -51.106  12.888  1.00  0.00    -0.302 N 
ATOM      4  HN  UNL     1     -44.213 -50.178  12.520  1.00  0.00     0.186 HD
HETATM    5  N   UNL     1     -42.827 -51.764  12.836  1.00  0.00    -0.287 N 
HETATM    6  C   UNL     1     -42.856 -52.974  13.486  1.00  0.00     0.033 A 
HETATM    7  C   UNL     1     -41.694 -53.893  13.598  1.00  0.00     0.070 C 
HETATM    8  C   UNL     1     -44.150 -53.113  13.964  1.00  0.00    -0.009 A 
ENDROOT
BRANCH   5   9
HETATM    9  C   UNL     1     -41.743 -51.163  12.077  1.00  0.00     0.251 C 
BRANCH   9  10
HETATM   10  C   UNL     1     -41.817 -49.656  12.061  1.00  0.00     0.237 C 
HETATM   11  O   UNL     1     -42.047 -49.017  13.086  1.00  0.00    -0.272 OA
HETATM   12  N   UNL     1     -41.555 -49.063  10.846  1.00  0.00    -0.359 N 
HETATM   13  H   UNL     1     -41.432 -49.651  10.029  1.00  0.00     0.162 HD
BRANCH  12  14
HETATM   14  C   UNL     1     -41.593 -47.631  10.654  1.00  0.00     0.127 C 
BRANCH  14  15
HETATM   15  C   UNL     1     -40.266 -47.051  11.034  1.00  0.00     0.003 A 
HETATM   16  C   UNL     1     -40.163 -46.011  12.121  1.00  0.00     0.007 A 
HETATM   17  C   UNL     1     -39.926 -45.622  10.688  1.00  0.00     0.007 A 
ENDBRANCH  14  15
ENDBRANCH  12  14
ENDBRANCH   9  10
ENDBRANCH   5   9
BRANCH   8  18
HETATM   18  C   UNL     1     -44.722 -54.258  14.744  1.00  0.00     0.068 C 
BRANCH  18  19
HETATM   19  C   UNL     1     -45.568 -55.203  13.890  1.00  0.00     0.168 C 
BRANCH  19  20
HETATM   20  O   UNL     1     -46.862 -55.403  14.452  1.00  0.00    -0.401 OA
HETATM   21  H   UNL     1     -46.728 -55.561  15.405  1.00  0.00     0.209 HD
ENDBRANCH  19  20
ENDBRANCH  18  19
ENDBRANCH   8  18
TORSDOF 7
ENDMDL
MODEL 9
REMARK VINA RESULT:      -5.0      2.501      6.290
REMARK  7 active torsions:
REMARK  status: ('A' for Active; 'I' for Inactive)
REMARK    1  A    between atoms: N_5  and  C_6 
REMARK    2  A    between atoms: C_6  and  C_7 
REMARK       I    between atoms: C_7  and  N_9 
REMARK    3  A    between atoms: N_9  and  C_10 
REMARK    4  A    between atoms: C_10  and  C_11 
REMARK    5  A    between atoms: C_16  and  C_17 
REMARK    6  A    between atoms: C_17  and  C_18 
REMARK    7  A    between atoms: C_18  and  O_19 
ROOT
HETATM    1  C   UNL     1     -46.512 -52.200  12.253  1.00  0.00     0.070 C 
HETATM    2  C   UNL     1     -45.291 -52.851  12.792  1.00  0.00     0.030 A 
HETATM    3  N   UNL     1     -44.099 -52.583  12.252  1.00  0.00    -0.302 N 
ATOM      4  HN  UNL     1     -43.887 -51.919  11.507  1.00  0.00     0.186 HD
HETATM    5  N   UNL     1     -43.240 -53.383  12.912  1.00  0.00    -0.287 N 
HETATM    6  C   UNL     1     -43.839 -54.113  13.910  1.00  0.00     0.033 A 
HETATM    7  C   UNL     1     -43.121 -55.059  14.803  1.00  0.00     0.070 C 
HETATM    8  C   UNL     1     -45.183 -53.775  13.868  1.00  0.00    -0.009 A 
ENDROOT
BRANCH   5   9
HETATM    9  C   UNL     1     -41.859 -53.418  12.461  1.00  0.00     0.251 C 
BRANCH   9  10
HETATM   10  C   UNL     1     -41.162 -52.090  12.633  1.00  0.00     0.237 C 
HETATM   11  O   UNL     1     -40.994 -51.597  13.747  1.00  0.00    -0.272 OA
HETATM   12  N   UNL     1     -40.691 -51.514  11.475  1.00  0.00    -0.359 N 
HETATM   13  H   UNL     1     -40.918 -51.944  10.585  1.00  0.00     0.162 HD
BRANCH  12  14
HETATM   14  C   UNL     1     -40.009 -50.240  11.460  1.00  0.00     0.127 C 
BRANCH  14  15
HETATM   15  C   UNL     1     -38.612 -50.427  11.963  1.00  0.00     0.003 A 
HETATM   16  C   UNL     1     -37.947 -49.365  12.803  1.00  0.00     0.007 A 
HETATM   17  C   UNL     1     -37.477 -49.609  11.397  1.00  0.00     0.007 A 
ENDBRANCH  14  15
ENDBRANCH  12  14
ENDBRANCH   9  10
ENDBRANCH   5   9
BRANCH   8  18
HETATM   18  C   UNL     1     -46.286 -54.291  14.742  1.00  0.00     0.068 C 
BRANCH  18  19
HETATM   19  C   UNL     1     -46.282 -53.674  16.141  1.00  0.00     0.168 C 
BRANCH  19  20
HETATM   20  O   UNL     1     -45.876 -54.615  17.129  1.00  0.00    -0.401 OA
HETATM   21  H   UNL     1     -45.419 -54.107  17.824  1.00  0.00     0.209 HD
ENDBRANCH  19  20
ENDBRANCH  18  19
ENDBRANCH   8  18
TORSDOF 7
ENDMDL
