MODEL 1
REMARK VINA RESULT:      -6.5      0.000      0.000
REMARK  6 active torsions:
REMARK  status: ('A' for Active; 'I' for Inactive)
REMARK    1  A    between atoms: C_7  and  O_8 
REMARK    2  A    between atoms: O_8  and  C_9 
REMARK    3  A    between atoms: C_9  and  C_10 
REMARK    4  A    between atoms: C_10  and  O_11 
REMARK    5  A    between atoms: C_10  and  C_12 
REMARK    6  A    between atoms: C_12  and  N_13 
ROOT
HETATM    1  C   UNL     1     -40.325 -49.508  11.615  1.00  0.00     0.162 C 
ENDROOT
BRANCH   1   2
HETATM    2  C   UNL     1     -39.803 -50.548  12.615  1.00  0.00     0.209 C 
BRANCH   2   3
HETATM    3  O   UNL     1     -40.004 -51.854  12.067  1.00  0.00    -0.347 OA
BRANCH   3   4
HETATM    4  C   UNL     1     -40.995 -52.628  12.610  1.00  0.00     0.091 A 
HETATM    5  C   UNL     1     -40.613 -53.542  13.602  1.00  0.00     0.067 A 
HETATM    6  C   UNL     1     -41.564 -54.350  14.230  1.00  0.00     0.027 A 
HETATM    7 CL   UNL     1     -38.962 -53.709  14.094  1.00  0.00    -0.081 Cl
HETATM    8  C   UNL     1     -42.910 -54.246  13.878  1.00  0.00     0.008 A 
HETATM    9  C   UNL     1     -43.312 -53.338  12.894  1.00  0.00    -0.059 A 
HETATM   10  C   UNL     1     -44.757 -53.199  12.516  1.00  0.00     0.048 C 
HETATM   11  C   UNL     1     -42.347 -52.543  12.256  1.00  0.00     0.045 A 
ENDBRANCH   3   4
ENDBRANCH   2   3
ENDBRANCH   1   2
BRANCH   1  12
HETATM   12  O   UNL     1     -40.389 -50.070  10.296  1.00  0.00    -0.392 OA
HETATM   13  H   UNL     1     -41.337 -50.262  10.141  1.00  0.00     0.210 HD
ENDBRANCH   1  12
BRANCH   1  14
HETATM   14  C   UNL     1     -41.706 -48.970  12.021  1.00  0.00     0.186 C 
BRANCH  14  15
HETATM   15  N   UNL     1     -42.202 -47.923  11.117  1.00  0.00    -0.255 N 
HETATM   16  N   UNL     1     -42.649 -48.350   9.881  1.00  0.00    -0.300 N 
HETATM   17  C   UNL     1     -43.064 -47.452   9.044  1.00  0.00     0.022 A 
ATOM     18  HN  UNL     1     -42.653 -49.340   9.635  1.00  0.00     0.187 HD
HETATM   19  C   UNL     1     -43.585 -47.903   7.704  1.00  0.00     0.069 C 
HETATM   20  C   UNL     1     -43.059 -46.002   9.309  1.00  0.00     0.031 A 
HETATM   21  C   UNL     1     -42.656 -45.610  10.517  1.00  0.00     0.078 A 
HETATM   22  C   UNL     1     -42.219 -46.595  11.528  1.00  0.00     0.262 A 
HETATM   23  O   UNL     1     -41.906 -46.202  12.647  1.00  0.00    -0.267 OA
ENDBRANCH  14  15
ENDBRANCH   1  14
TORSDOF 6
ENDMDL
MODEL 2
REMARK VINA RESULT:      -6.4      3.011      4.528
REMARK  6 active torsions:
REMARK  status: ('A' for Active; 'I' for Inactive)
REMARK    1  A    between atoms: C_7  and  O_8 
REMARK    2  A    between atoms: O_8  and  C_9 
REMARK    3  A    between atoms: C_9  and  C_10 
REMARK    4  A    between atoms: C_10  and  O_11 
REMARK    5  A    between atoms: C_10  and  C_12 
REMARK    6  A    between atoms: C_12  and  N_13 
ROOT
HETATM    1  C   UNL     1     -40.883 -53.728  12.782  1.00  0.00     0.162 C 
ENDROOT
BRANCH   1   2
HETATM    2  C   UNL     1     -42.361 -53.889  13.160  1.00  0.00     0.209 C 
BRANCH   2   3
HETATM    3  O   UNL     1     -42.725 -52.835  14.056  1.00  0.00    -0.347 OA
BRANCH   3   4
HETATM    4  C   UNL     1     -44.024 -52.401  14.037  1.00  0.00     0.091 A 
HETATM    5  C   UNL     1     -44.563 -51.961  15.254  1.00  0.00     0.067 A 
HETATM    6  C   UNL     1     -45.870 -51.475  15.318  1.00  0.00     0.027 A 
HETATM    7 CL   UNL     1     -43.643 -51.998  16.718  1.00  0.00    -0.081 Cl
HETATM    8  C   UNL     1     -46.651 -51.413  14.163  1.00  0.00     0.008 A 
HETATM    9  C   UNL     1     -46.131 -51.843  12.939  1.00  0.00    -0.059 A 
HETATM   10  C   UNL     1     -46.948 -51.768  11.683  1.00  0.00     0.048 C 
HETATM   11  C   UNL     1     -44.821 -52.348  12.887  1.00  0.00     0.045 A 
ENDBRANCH   3   4
ENDBRANCH   2   3
ENDBRANCH   1   2
BRANCH   1  12
HETATM   12  O   UNL     1     -40.757 -53.384  11.394  1.00  0.00    -0.392 OA
HETATM   13  H   UNL     1     -39.928 -53.812  11.094  1.00  0.00     0.210 HD
ENDBRANCH   1  12
BRANCH   1  14
HETATM   14  C   UNL     1     -40.186 -52.666  13.648  1.00  0.00     0.186 C 
BRANCH  14  15
HETATM   15  N   UNL     1     -39.979 -51.395  12.941  1.00  0.00    -0.255 N 
HETATM   16  N   UNL     1     -41.119 -50.674  12.640  1.00  0.00    -0.300 N 
HETATM   17  C   UNL     1     -40.979 -49.563  11.988  1.00  0.00     0.022 A 
ATOM     18  HN  UNL     1     -42.041 -51.006  12.923  1.00  0.00     0.187 HD
HETATM   19  C   UNL     1     -42.209 -48.749  11.681  1.00  0.00     0.069 C 
HETATM   20  C   UNL     1     -39.687 -49.033  11.515  1.00  0.00     0.031 A 
HETATM   21  C   UNL     1     -38.595 -49.724  11.841  1.00  0.00     0.078 A 
HETATM   22  C   UNL     1     -38.693 -50.971  12.626  1.00  0.00     0.262 A 
HETATM   23  O   UNL     1     -37.662 -51.551  12.955  1.00  0.00    -0.267 OA
ENDBRANCH  14  15
ENDBRANCH   1  14
TORSDOF 6
ENDMDL
MODEL 3
REMARK VINA RESULT:      -6.2      3.870      5.980
REMARK  6 active torsions:
REMARK  status: ('A' for Active; 'I' for Inactive)
REMARK    1  A    between atoms: C_7  and  O_8 
REMARK    2  A    between atoms: O_8  and  C_9 
REMARK    3  A    between atoms: C_9  and  C_10 
REMARK    4  A    between atoms: C_10  and  O_11 
REMARK    5  A    between atoms: C_10  and  C_12 
REMARK    6  A    between atoms: C_12  and  N_13 
ROOT
HETATM    1  C   UNL     1     -42.089 -52.483  12.774  1.00  0.00     0.162 C 
ENDROOT
BRANCH   1   2
HETATM    2  C   UNL     1     -40.668 -52.800  13.257  1.00  0.00     0.209 C 
BRANCH   2   3
HETATM    3  O   UNL     1     -39.732 -52.144  12.397  1.00  0.00    -0.347 OA
BRANCH   3   4
HETATM    4  C   UNL     1     -39.068 -51.052  12.890  1.00  0.00     0.091 A 
HETATM    5  C   UNL     1     -39.355 -49.815  12.297  1.00  0.00     0.067 A 
HETATM    6  C   UNL     1     -38.745 -48.647  12.758  1.00  0.00     0.027 A 
HETATM    7 CL   UNL     1     -40.468 -49.678  10.980  1.00  0.00    -0.081 Cl
HETATM    8  C   UNL     1     -37.848 -48.701  13.826  1.00  0.00     0.008 A 
HETATM    9  C   UNL     1     -37.552 -49.924  14.433  1.00  0.00    -0.059 A 
HETATM   10  C   UNL     1     -36.604 -49.999  15.594  1.00  0.00     0.048 C 
HETATM   11  C   UNL     1     -38.156 -51.096  13.951  1.00  0.00     0.045 A 
ENDBRANCH   3   4
ENDBRANCH   2   3
ENDBRANCH   1   2
BRANCH   1  12
HETATM   12  O   UNL     1     -42.173 -52.614  11.346  1.00  0.00    -0.392 OA
HETATM   13  H   UNL     1     -42.802 -53.348  11.189  1.00  0.00     0.210 HD
ENDBRANCH   1  12
BRANCH   1  14
HETATM   14  C   UNL     1     -43.133 -53.391  13.443  1.00  0.00     0.186 C 
BRANCH  14  15
HETATM   15  N   UNL     1     -44.435 -52.733  13.621  1.00  0.00    -0.255 N 
HETATM   16  N   UNL     1     -45.178 -52.537  12.472  1.00  0.00    -0.300 N 
HETATM   17  C   UNL     1     -46.318 -51.931  12.585  1.00  0.00     0.022 A 
ATOM     18  HN  UNL     1     -44.841 -52.859  11.565  1.00  0.00     0.187 HD
HETATM   19  C   UNL     1     -47.155 -51.737  11.347  1.00  0.00     0.069 C 
HETATM   20  C   UNL     1     -46.860 -51.405  13.851  1.00  0.00     0.031 A 
HETATM   21  C   UNL     1     -46.146 -51.632  14.954  1.00  0.00     0.078 A 
HETATM   22  C   UNL     1     -44.863 -52.362  14.890  1.00  0.00     0.262 A 
HETATM   23  O   UNL     1     -44.261 -52.599  15.933  1.00  0.00    -0.267 OA
ENDBRANCH  14  15
ENDBRANCH   1  14
TORSDOF 6
ENDMDL
MODEL 4
REMARK VINA RESULT:      -6.2      2.905      3.900
REMARK  6 active torsions:
REMARK  status: ('A' for Active; 'I' for Inactive)
REMARK    1  A    between atoms: C_7  and  O_8 
REMARK    2  A    between atoms: O_8  and  C_9 
REMARK    3  A    between atoms: C_9  and  C_10 
REMARK    4  A    between atoms: C_10  and  O_11 
REMARK    5  A    between atoms: C_10  and  C_12 
REMARK    6  A    between atoms: C_12  and  N_13 
ROOT
HETATM    1  C   UNL     1     -40.742 -50.907  12.081  1.00  0.00     0.162 C 
ENDROOT
BRANCH   1   2
HETATM    2  C   UNL     1     -41.216 -52.295  11.632  1.00  0.00     0.209 C 
BRANCH   2   3
HETATM    3  O   UNL     1     -40.650 -53.279  12.502  1.00  0.00    -0.347 OA
BRANCH   3   4
HETATM    4  C   UNL     1     -41.472 -53.855  13.434  1.00  0.00     0.091 A 
HETATM    5  C   UNL     1     -40.912 -54.131  14.689  1.00  0.00     0.067 A 
HETATM    6  C   UNL     1     -41.687 -54.690  15.706  1.00  0.00     0.027 A 
HETATM    7 CL   UNL     1     -39.251 -53.792  15.033  1.00  0.00    -0.081 Cl
HETATM    8  C   UNL     1     -43.035 -54.972  15.484  1.00  0.00     0.008 A 
HETATM    9  C   UNL     1     -43.614 -54.701  14.241  1.00  0.00    -0.059 A 
HETATM   10  C   UNL     1     -45.066 -54.980  13.989  1.00  0.00     0.048 C 
HETATM   11  C   UNL     1     -42.823 -54.156  13.217  1.00  0.00     0.045 A 
ENDBRANCH   3   4
ENDBRANCH   2   3
ENDBRANCH   1   2
BRANCH   1  12
HETATM   12  O   UNL     1     -39.826 -50.357  11.122  1.00  0.00    -0.392 OA
HETATM   13  H   UNL     1     -39.323 -51.122  10.774  1.00  0.00     0.210 HD
ENDBRANCH   1  12
BRANCH   1  14
HETATM   14  C   UNL     1     -41.920 -49.943  12.291  1.00  0.00     0.186 C 
BRANCH  14  15
HETATM   15  N   UNL     1     -42.919 -50.456  13.238  1.00  0.00    -0.255 N 
HETATM   16  N   UNL     1     -44.151 -50.783  12.703  1.00  0.00    -0.300 N 
HETATM   17  C   UNL     1     -45.069 -51.209  13.512  1.00  0.00     0.022 A 
ATOM     18  HN  UNL     1     -44.331 -50.693  11.703  1.00  0.00     0.187 HD
HETATM   19  C   UNL     1     -46.406 -51.601  12.940  1.00  0.00     0.069 C 
HETATM   20  C   UNL     1     -44.899 -51.334  14.971  1.00  0.00     0.031 A 
HETATM   21  C   UNL     1     -43.696 -51.045  15.466  1.00  0.00     0.078 A 
HETATM   22  C   UNL     1     -42.598 -50.603  14.582  1.00  0.00     0.262 A 
HETATM   23  O   UNL     1     -41.489 -50.399  15.067  1.00  0.00    -0.267 OA
ENDBRANCH  14  15
ENDBRANCH   1  14
TORSDOF 6
ENDMDL
MODEL 5
REMARK VINA RESULT:      -6.2      1.757      2.443
REMARK  6 active torsions:
REMARK  status: ('A' for Active; 'I' for Inactive)
REMARK    1  A    between atoms: C_7  and  O_8 
REMARK    2  A    between atoms: O_8  and  C_9 
REMARK    3  A    between atoms: C_9  and  C_10 
REMARK    4  A    between atoms: C_10  and  O_11 
REMARK    5  A    between atoms: C_10  and  C_12 
REMARK    6  A    between atoms: C_12  and  N_13 
ROOT
HETATM    1  C   UNL     1     -40.710 -50.426  11.722  1.00  0.00     0.162 C 
ENDROOT
BRANCH   1   2
HETATM    2  C   UNL     1     -40.978 -51.931  11.850  1.00  0.00     0.209 C 
BRANCH   2   3
HETATM    3  O   UNL     1     -42.298 -52.122  12.365  1.00  0.00    -0.347 OA
BRANCH   3   4
HETATM    4  C   UNL     1     -42.480 -53.101  13.306  1.00  0.00     0.091 A 
HETATM    5  C   UNL     1     -43.761 -53.663  13.395  1.00  0.00     0.067 A 
HETATM    6  C   UNL     1     -44.026 -54.687  14.306  1.00  0.00     0.027 A 
HETATM    7 CL   UNL     1     -45.060 -53.121  12.389  1.00  0.00    -0.081 Cl
HETATM    8  C   UNL     1     -43.010 -55.168  15.133  1.00  0.00     0.008 A 
HETATM    9  C   UNL     1     -41.725 -54.624  15.056  1.00  0.00    -0.059 A 
HETATM   10  C   UNL     1     -40.615 -55.141  15.924  1.00  0.00     0.048 C 
HETATM   11  C   UNL     1     -41.472 -53.582  14.150  1.00  0.00     0.045 A 
ENDBRANCH   3   4
ENDBRANCH   2   3
ENDBRANCH   1   2
BRANCH   1  12
HETATM   12  O   UNL     1     -40.417 -50.084  10.358  1.00  0.00    -0.392 OA
HETATM   13  H   UNL     1     -39.878 -50.826  10.014  1.00  0.00     0.210 HD
ENDBRANCH   1  12
BRANCH   1  14
HETATM   14  C   UNL     1     -41.899 -49.591  12.225  1.00  0.00     0.186 C 
BRANCH  14  15
HETATM   15  N   UNL     1     -42.084 -48.344  11.471  1.00  0.00    -0.255 N 
HETATM   16  N   UNL     1     -42.759 -48.454  10.270  1.00  0.00    -0.300 N 
HETATM   17  C   UNL     1     -42.913 -47.380   9.561  1.00  0.00     0.022 A 
ATOM     18  HN  UNL     1     -43.124 -49.352   9.952  1.00  0.00     0.187 HD
HETATM   19  C   UNL     1     -43.675 -47.477   8.265  1.00  0.00     0.069 C 
HETATM   20  C   UNL     1     -42.386 -46.054   9.933  1.00  0.00     0.031 A 
HETATM   21  C   UNL     1     -41.766 -45.960  11.109  1.00  0.00     0.078 A 
HETATM   22  C   UNL     1     -41.606 -47.141  11.980  1.00  0.00     0.262 A 
HETATM   23  O   UNL     1     -41.078 -47.004  13.080  1.00  0.00    -0.267 OA
ENDBRANCH  14  15
ENDBRANCH   1  14
TORSDOF 6
ENDMDL
MODEL 6
REMARK VINA RESULT:      -6.0      2.038      3.041
REMARK  6 active torsions:
REMARK  status: ('A' for Active; 'I' for Inactive)
REMARK    1  A    between atoms: C_7  and  O_8 
REMARK    2  A    between atoms: O_8  and  C_9 
REMARK    3  A    between atoms: C_9  and  C_10 
REMARK    4  A    between atoms: C_10  and  O_11 
REMARK    5  A    between atoms: C_10  and  C_12 
REMARK    6  A    between atoms: C_12  and  N_13 
ROOT
HETATM    1  C   UNL     1     -40.945 -52.125  12.540  1.00  0.00     0.162 C 
ENDROOT
BRANCH   1   2
HETATM    2  C   UNL     1     -41.253 -53.374  13.376  1.00  0.00     0.209 C 
BRANCH   2   3
HETATM    3  O   UNL     1     -42.297 -54.111  12.734  1.00  0.00    -0.347 OA
BRANCH   3   4
HETATM    4  C   UNL     1     -43.585 -53.874  13.136  1.00  0.00     0.091 A 
HETATM    5  C   UNL     1     -44.001 -54.487  14.326  1.00  0.00     0.067 A 
HETATM    6  C   UNL     1     -45.288 -54.275  14.824  1.00  0.00     0.027 A 
HETATM    7 CL   UNL     1     -42.947 -55.522  15.227  1.00  0.00    -0.081 Cl
HETATM    8  C   UNL     1     -46.173 -53.439  14.142  1.00  0.00     0.008 A 
HETATM    9  C   UNL     1     -45.777 -52.816  12.955  1.00  0.00    -0.059 A 
HETATM   10  C   UNL     1     -46.708 -51.899  12.217  1.00  0.00     0.048 C 
HETATM   11  C   UNL     1     -44.486 -53.049  12.452  1.00  0.00     0.045 A 
ENDBRANCH   3   4
ENDBRANCH   2   3
ENDBRANCH   1   2
BRANCH   1  12
HETATM   12  O   UNL     1     -41.293 -52.345  11.165  1.00  0.00    -0.392 OA
HETATM   13  H   UNL     1     -41.482 -51.456  10.799  1.00  0.00     0.210 HD
ENDBRANCH   1  12
BRANCH   1  14
HETATM   14  C   UNL     1     -41.683 -50.887  13.074  1.00  0.00     0.186 C 
BRANCH  14  15
HETATM   15  N   UNL     1     -41.320 -49.652  12.364  1.00  0.00    -0.255 N 
HETATM   16  N   UNL     1     -42.160 -49.275  11.333  1.00  0.00    -0.300 N 
HETATM   17  C   UNL     1     -41.854 -48.209  10.663  1.00  0.00     0.022 A 
ATOM     18  HN  UNL     1     -42.993 -49.818  11.108  1.00  0.00     0.187 HD
HETATM   19  C   UNL     1     -42.777 -47.766   9.557  1.00  0.00     0.069 C 
HETATM   20  C   UNL     1     -40.652 -47.391  10.902  1.00  0.00     0.031 A 
HETATM   21  C   UNL     1     -39.870 -47.750  11.921  1.00  0.00     0.078 A 
HETATM   22  C   UNL     1     -40.197 -48.928  12.750  1.00  0.00     0.262 A 
HETATM   23  O   UNL     1     -39.484 -49.196  13.712  1.00  0.00    -0.267 OA
ENDBRANCH  14  15
ENDBRANCH   1  14
TORSDOF 6
ENDMDL
MODEL 7
REMARK VINA RESULT:      -6.0      3.301      3.872
REMARK  6 active torsions:
REMARK  status: ('A' for Active; 'I' for Inactive)
REMARK    1  A    between atoms: C_7  and  O_8 
REMARK    2  A    between atoms: O_8  and  C_9 
REMARK    3  A    between atoms: C_9  and  C_10 
REMARK    4  A    between atoms: C_10  and  O_11 
REMARK    5  A    between atoms: C_10  and  C_12 
REMARK    6  A    between atoms: C_12  and  N_13 
ROOT
HETATM    1  C   UNL     1     -42.027 -49.338  12.314  1.00  0.00     0.162 C 
ENDROOT
BRANCH   1   2
HETATM    2  C   UNL     1     -42.663 -50.589  12.934  1.00  0.00     0.209 C 
BRANCH   2   3
HETATM    3  O   UNL     1     -44.084 -50.489  12.819  1.00  0.00    -0.347 OA
BRANCH   3   4
HETATM    4  C   UNL     1     -44.836 -50.764  13.931  1.00  0.00     0.091 A 
HETATM    5  C   UNL     1     -46.102 -51.326  13.716  1.00  0.00     0.067 A 
HETATM    6  C   UNL     1     -46.921 -51.666  14.794  1.00  0.00     0.027 A 
HETATM    7 CL   UNL     1     -46.702 -51.626  12.121  1.00  0.00    -0.081 Cl
HETATM    8  C   UNL     1     -46.480 -51.455  16.101  1.00  0.00     0.008 A 
HETATM    9  C   UNL     1     -45.220 -50.899  16.336  1.00  0.00    -0.059 A 
HETATM   10  C   UNL     1     -44.720 -50.683  17.735  1.00  0.00     0.048 C 
HETATM   11  C   UNL     1     -44.409 -50.544  15.246  1.00  0.00     0.045 A 
ENDBRANCH   3   4
ENDBRANCH   2   3
ENDBRANCH   1   2
BRANCH   1  12
HETATM   12  O   UNL     1     -41.831 -49.523  10.904  1.00  0.00    -0.392 OA
HETATM   13  H   UNL     1     -40.957 -49.957  10.818  1.00  0.00     0.210 HD
ENDBRANCH   1  12
BRANCH   1  14
HETATM   14  C   UNL     1     -42.880 -48.084  12.563  1.00  0.00     0.186 C 
BRANCH  14  15
HETATM   15  N   UNL     1     -43.334 -47.444  11.320  1.00  0.00    -0.255 N 
HETATM   16  N   UNL     1     -44.421 -48.028  10.699  1.00  0.00    -0.300 N 
HETATM   17  C   UNL     1     -44.831 -47.511   9.583  1.00  0.00     0.022 A 
ATOM     18  HN  UNL     1     -44.886 -48.840  11.105  1.00  0.00     0.187 HD
HETATM   19  C   UNL     1     -46.035 -48.116   8.910  1.00  0.00     0.069 C 
HETATM   20  C   UNL     1     -44.194 -46.362   8.914  1.00  0.00     0.031 A 
HETATM   21  C   UNL     1     -43.167 -45.791   9.544  1.00  0.00     0.078 A 
HETATM   22  C   UNL     1     -42.689 -46.309  10.842  1.00  0.00     0.262 A 
HETATM   23  O   UNL     1     -41.777 -45.723  11.418  1.00  0.00    -0.267 OA
ENDBRANCH  14  15
ENDBRANCH   1  14
TORSDOF 6
ENDMDL
MODEL 8
REMARK VINA RESULT:      -6.0      2.853      6.407
REMARK  6 active torsions:
REMARK  status: ('A' for Active; 'I' for Inactive)
REMARK    1  A    between atoms: C_7  and  O_8 
REMARK    2  A    between atoms: O_8  and  C_9 
REMARK    3  A    between atoms: C_9  and  C_10 
REMARK    4  A    between atoms: C_10  and  O_11 
REMARK    5  A    between atoms: C_10  and  C_12 
REMARK    6  A    between atoms: C_12  and  N_13 
ROOT
HETATM    1  C   UNL     1     -41.880 -52.351  12.188  1.00  0.00     0.162 C 
ENDROOT
BRANCH   1   2
HETATM    2  C   UNL     1     -40.935 -51.409  12.946  1.00  0.00     0.209 C 
BRANCH   2   3
HETATM    3  O   UNL     1     -40.077 -50.761  12.003  1.00  0.00    -0.347 OA
BRANCH   3   4
HETATM    4  C   UNL     1     -40.363 -49.465  11.666  1.00  0.00     0.091 A 
HETATM    5  C   UNL     1     -39.463 -48.483  12.105  1.00  0.00     0.067 A 
HETATM    6  C   UNL     1     -39.663 -47.140  11.781  1.00  0.00     0.027 A 
HETATM    7 CL   UNL     1     -38.076 -48.887  13.056  1.00  0.00    -0.081 Cl
HETATM    8  C   UNL     1     -40.760 -46.763  11.006  1.00  0.00     0.008 A 
HETATM    9  C   UNL     1     -41.667 -47.726  10.556  1.00  0.00    -0.059 A 
HETATM   10  C   UNL     1     -42.843 -47.342   9.707  1.00  0.00     0.048 C 
HETATM   11  C   UNL     1     -41.469 -49.073  10.901  1.00  0.00     0.045 A 
ENDBRANCH   3   4
ENDBRANCH   2   3
ENDBRANCH   1   2
BRANCH   1  12
HETATM   12  O   UNL     1     -41.269 -52.798  10.968  1.00  0.00    -0.392 OA
HETATM   13  H   UNL     1     -40.377 -52.394  10.961  1.00  0.00     0.210 HD
ENDBRANCH   1  12
BRANCH   1  14
HETATM   14  C   UNL     1     -42.282 -53.563  13.044  1.00  0.00     0.186 C 
BRANCH  14  15
HETATM   15  N   UNL     1     -43.716 -53.589  13.363  1.00  0.00    -0.255 N 
HETATM   16  N   UNL     1     -44.508 -52.692  12.672  1.00  0.00    -0.300 N 
HETATM   17  C   UNL     1     -45.774 -52.663  12.950  1.00  0.00     0.022 A 
ATOM     18  HN  UNL     1     -44.110 -52.072  11.967  1.00  0.00     0.187 HD
HETATM   19  C   UNL     1     -46.657 -51.713  12.183  1.00  0.00     0.069 C 
HETATM   20  C   UNL     1     -46.420 -53.499  13.977  1.00  0.00     0.031 A 
HETATM   21  C   UNL     1     -45.648 -54.381  14.611  1.00  0.00     0.078 A 
HETATM   22  C   UNL     1     -44.208 -54.492  14.299  1.00  0.00     0.262 A 
HETATM   23  O   UNL     1     -43.541 -55.353  14.864  1.00  0.00    -0.267 OA
ENDBRANCH  14  15
ENDBRANCH   1  14
TORSDOF 6
ENDMDL
MODEL 9
REMARK VINA RESULT:      -5.9      3.162      4.862
REMARK  6 active torsions:
REMARK  status: ('A' for Active; 'I' for Inactive)
REMARK    1  A    between atoms: C_7  and  O_8 
REMARK    2  A    between atoms: O_8  and  C_9 
REMARK    3  A    between atoms: C_9  and  C_10 
REMARK    4  A    between atoms: C_10  and  O_11 
REMARK    5  A    between atoms: C_10  and  C_12 
REMARK    6  A    between atoms: C_12  and  N_13 
ROOT
HETATM    1  C   UNL     1     -41.292 -53.113  12.345  1.00  0.00     0.162 C 
ENDROOT
BRANCH   1   2
HETATM    2  C   UNL     1     -42.704 -53.256  12.927  1.00  0.00     0.209 C 
BRANCH   2   3
HETATM    3  O   UNL     1     -43.382 -52.002  12.806  1.00  0.00    -0.347 OA
BRANCH   3   4
HETATM    4  C   UNL     1     -44.230 -51.636  13.818  1.00  0.00     0.091 A 
HETATM    5  C   UNL     1     -45.603 -51.791  13.580  1.00  0.00     0.067 A 
HETATM    6  C   UNL     1     -46.536 -51.470  14.568  1.00  0.00     0.027 A 
HETATM    7 CL   UNL     1     -46.200 -52.386  12.070  1.00  0.00    -0.081 Cl
HETATM    8  C   UNL     1     -46.106 -50.998  15.809  1.00  0.00     0.008 A 
HETATM    9  C   UNL     1     -44.742 -50.838  16.066  1.00  0.00    -0.059 A 
HETATM   10  C   UNL     1     -44.260 -50.349  17.400  1.00  0.00     0.048 C 
HETATM   11  C   UNL     1     -43.811 -51.147  15.061  1.00  0.00     0.045 A 
ENDBRANCH   3   4
ENDBRANCH   2   3
ENDBRANCH   1   2
BRANCH   1  12
HETATM   12  O   UNL     1     -41.338 -52.426  11.085  1.00  0.00    -0.392 OA
HETATM   13  H   UNL     1     -41.605 -51.508  11.299  1.00  0.00     0.210 HD
ENDBRANCH   1  12
BRANCH   1  14
HETATM   14  C   UNL     1     -40.351 -52.373  13.309  1.00  0.00     0.186 C 
BRANCH  14  15
HETATM   15  N   UNL     1     -39.965 -51.041  12.824  1.00  0.00    -0.255 N 
HETATM   16  N   UNL     1     -40.980 -50.107  12.740  1.00  0.00    -0.300 N 
HETATM   17  C   UNL     1     -40.684 -48.930  12.286  1.00  0.00     0.022 A 
ATOM     18  HN  UNL     1     -41.931 -50.336  13.027  1.00  0.00     0.187 HD
HETATM   19  C   UNL     1     -41.772 -47.890  12.219  1.00  0.00     0.069 C 
HETATM   20  C   UNL     1     -39.344 -48.530  11.819  1.00  0.00     0.031 A 
HETATM   21  C   UNL     1     -38.370 -49.432  11.937  1.00  0.00     0.078 A 
HETATM   22  C   UNL     1     -38.641 -50.773  12.495  1.00  0.00     0.262 A 
HETATM   23  O   UNL     1     -37.708 -51.558  12.639  1.00  0.00    -0.267 OA
ENDBRANCH  14  15
ENDBRANCH   1  14
TORSDOF 6
ENDMDL
