MODEL 1
REMARK VINA RESULT:      -6.3      0.000      0.000
REMARK  6 active torsions:
REMARK  status: ('A' for Active; 'I' for Inactive)
REMARK    1  A    between atoms: C_2  and  C_5 
REMARK    2  A    between atoms: C_5  and  O_6 
REMARK    3  A    between atoms: O_6  and  C_7 
REMARK    4  A    between atoms: C_11  and  N_13 
REMARK       I    between atoms: N_13  and  C_14 
REMARK    5  A    between atoms: C_14  and  C_16 
REMARK    6  A    between atoms: C_16  and  N_17 
ROOT
HETATM    1  C   UNL     1     -39.781 -51.621  13.921  1.00  0.00     0.123 C 
HETATM    2  C   UNL     1     -38.798 -52.545  14.652  1.00  0.00     0.032 C 
HETATM    3  C   UNL     1     -39.019 -54.012  14.273  1.00  0.00     0.004 C 
HETATM    4  C   UNL     1     -40.463 -54.452  14.509  1.00  0.00     0.025 C 
HETATM    5  C   UNL     1     -41.474 -53.507  13.846  1.00  0.00     0.086 C 
HETATM    6  C   UNL     1     -41.216 -52.043  14.249  1.00  0.00     0.057 C 
ENDROOT
BRANCH   5   7
HETATM    7  N   UNL     1     -42.857 -53.910  14.086  1.00  0.00    -0.355 N 
HETATM    8  C   UNL     1     -43.866 -53.794  13.151  1.00  0.00     0.236 C 
HETATM    9  O   UNL     1     -43.710 -53.319  12.028  1.00  0.00    -0.272 OA
HETATM   10  H   UNL     1     -43.141 -54.078  15.049  1.00  0.00     0.162 HD
BRANCH   8  11
HETATM   11  C   UNL     1     -45.231 -54.283  13.629  1.00  0.00     0.234 C 
BRANCH  11  12
HETATM   12  N   UNL     1     -45.849 -53.339  14.553  1.00  0.00    -0.316 N 
HETATM   13  C   UNL     1     -46.457 -52.199  14.061  1.00  0.00     0.095 A 
HETATM   14  C   UNL     1     -47.076 -51.340  14.878  1.00  0.00     0.017 A 
HETATM   15  C   UNL     1     -47.124 -51.604  16.294  1.00  0.00     0.007 A 
HETATM   16  C   UNL     1     -46.515 -52.681  16.808  1.00  0.00     0.074 A 
HETATM   17  C   UNL     1     -45.786 -53.623  15.915  1.00  0.00     0.247 A 
HETATM   18  O   UNL     1     -45.182 -54.581  16.392  1.00  0.00    -0.268 OA
ENDBRANCH  11  12
ENDBRANCH   8  11
ENDBRANCH   5   7
BRANCH   1  19
HETATM   19  O   UNL     1     -39.485 -51.731  12.522  1.00  0.00    -0.377 OA
BRANCH  19  20
HETATM   20  C   UNL     1     -39.147 -50.498  11.873  1.00  0.00     0.285 C 
BRANCH  20  21
HETATM   21  C   UNL     1     -37.653 -50.177  11.977  1.00  0.00     0.408 C 
HETATM   22  F   UNL     1     -36.889 -51.268  12.202  1.00  0.00    -0.169 F 
HETATM   23  F   UNL     1     -37.420 -49.301  12.983  1.00  0.00    -0.169 F 
HETATM   24  F   UNL     1     -37.208 -49.600  10.834  1.00  0.00    -0.169 F 
ENDBRANCH  20  21
ENDBRANCH  19  20
ENDBRANCH   1  19
TORSDOF 6
ENDMDL
MODEL 2
REMARK VINA RESULT:      -6.2      4.872      6.393
REMARK  6 active torsions:
REMARK  status: ('A' for Active; 'I' for Inactive)
REMARK    1  A    between atoms: C_2  and  C_5 
REMARK    2  A    between atoms: C_5  and  O_6 
REMARK    3  A    between atoms: O_6  and  C_7 
REMARK    4  A    between atoms: C_11  and  N_13 
REMARK       I    between atoms: N_13  and  C_14 
REMARK    5  A    between atoms: C_14  and  C_16 
REMARK    6  A    between atoms: C_16  and  N_17 
ROOT
HETATM    1  C   UNL     1     -42.294 -45.060  10.770  1.00  0.00     0.123 C 
HETATM    2  C   UNL     1     -40.885 -44.481  10.952  1.00  0.00     0.032 C 
HETATM    3  C   UNL     1     -39.812 -45.569  10.843  1.00  0.00     0.004 C 
HETATM    4  C   UNL     1     -40.063 -46.717  11.818  1.00  0.00     0.025 C 
HETATM    5  C   UNL     1     -41.489 -47.273  11.708  1.00  0.00     0.086 C 
HETATM    6  C   UNL     1     -42.536 -46.150  11.818  1.00  0.00     0.057 C 
ENDROOT
BRANCH   5   7
HETATM    7  N   UNL     1     -41.742 -48.358  12.653  1.00  0.00    -0.355 N 
HETATM    8  C   UNL     1     -41.481 -49.687  12.387  1.00  0.00     0.236 C 
HETATM    9  O   UNL     1     -41.031 -50.099  11.319  1.00  0.00    -0.272 OA
HETATM   10  H   UNL     1     -42.336 -48.158  13.455  1.00  0.00     0.162 HD
BRANCH   8  11
HETATM   11  C   UNL     1     -41.826 -50.640  13.528  1.00  0.00     0.234 C 
BRANCH  11  12
HETATM   12  N   UNL     1     -43.054 -51.381  13.262  1.00  0.00    -0.316 N 
HETATM   13  C   UNL     1     -44.277 -50.794  13.522  1.00  0.00     0.095 A 
HETATM   14  C   UNL     1     -45.420 -51.429  13.241  1.00  0.00     0.017 A 
HETATM   15  C   UNL     1     -45.385 -52.742  12.649  1.00  0.00     0.007 A 
HETATM   16  C   UNL     1     -44.217 -53.355  12.416  1.00  0.00     0.074 A 
HETATM   17  C   UNL     1     -42.938 -52.677  12.763  1.00  0.00     0.247 A 
HETATM   18  O   UNL     1     -41.868 -53.260  12.600  1.00  0.00    -0.268 OA
ENDBRANCH  11  12
ENDBRANCH   8  11
ENDBRANCH   5   7
BRANCH   1  19
HETATM   19  O   UNL     1     -42.361 -45.566   9.430  1.00  0.00    -0.377 OA
BRANCH  19  20
HETATM   20  C   UNL     1     -43.651 -46.036   9.021  1.00  0.00     0.285 C 
BRANCH  20  21
HETATM   21  C   UNL     1     -43.590 -47.427   8.384  1.00  0.00     0.408 C 
HETATM   22  F   UNL     1     -44.771 -48.082   8.425  1.00  0.00    -0.169 F 
HETATM   23  F   UNL     1     -42.672 -48.200   9.008  1.00  0.00    -0.169 F 
HETATM   24  F   UNL     1     -43.222 -47.341   7.082  1.00  0.00    -0.169 F 
ENDBRANCH  20  21
ENDBRANCH  19  20
ENDBRANCH   1  19
TORSDOF 6
ENDMDL
MODEL 3
REMARK VINA RESULT:      -6.1      5.288      7.342
REMARK  6 active torsions:
REMARK  status: ('A' for Active; 'I' for Inactive)
REMARK    1  A    between atoms: C_2  and  C_5 
REMARK    2  A    between atoms: C_5  and  O_6 
REMARK    3  A    between atoms: O_6  and  C_7 
REMARK    4  A    between atoms: C_11  and  N_13 
REMARK       I    between atoms: N_13  and  C_14 
REMARK    5  A    between atoms: C_14  and  C_16 
REMARK    6  A    between atoms: C_16  and  N_17 
ROOT
HETATM    1  C   UNL     1     -43.607 -53.718  13.143  1.00  0.00     0.123 C 
HETATM    2  C   UNL     1     -42.525 -54.228  14.103  1.00  0.00     0.032 C 
HETATM    3  C   UNL     1     -41.812 -53.070  14.810  1.00  0.00     0.004 C 
HETATM    4  C   UNL     1     -41.235 -52.064  13.818  1.00  0.00     0.025 C 
HETATM    5  C   UNL     1     -42.278 -51.587  12.799  1.00  0.00     0.086 C 
HETATM    6  C   UNL     1     -42.973 -52.777  12.114  1.00  0.00     0.057 C 
ENDROOT
BRANCH   5   7
HETATM    7  N   UNL     1     -41.726 -50.640  11.833  1.00  0.00    -0.355 N 
HETATM    8  C   UNL     1     -42.098 -49.312  11.758  1.00  0.00     0.236 C 
HETATM    9  O   UNL     1     -42.948 -48.795  12.480  1.00  0.00    -0.272 OA
HETATM   10  H   UNL     1     -41.210 -51.018  11.041  1.00  0.00     0.162 HD
BRANCH   8  11
HETATM   11  C   UNL     1     -41.383 -48.516  10.670  1.00  0.00     0.234 C 
BRANCH  11  12
HETATM   12  N   UNL     1     -42.238 -47.474  10.113  1.00  0.00    -0.316 N 
HETATM   13  C   UNL     1     -43.139 -47.790   9.114  1.00  0.00     0.095 A 
HETATM   14  C   UNL     1     -43.971 -46.868   8.618  1.00  0.00     0.017 A 
HETATM   15  C   UNL     1     -43.942 -45.522   9.135  1.00  0.00     0.007 A 
HETATM   16  C   UNL     1     -43.057 -45.174  10.079  1.00  0.00     0.074 A 
HETATM   17  C   UNL     1     -42.097 -46.180  10.609  1.00  0.00     0.247 A 
HETATM   18  O   UNL     1     -41.249 -45.848  11.435  1.00  0.00    -0.268 OA
ENDBRANCH  11  12
ENDBRANCH   8  11
ENDBRANCH   5   7
BRANCH   1  19
HETATM   19  O   UNL     1     -44.596 -53.061  13.948  1.00  0.00    -0.377 OA
BRANCH  19  20
HETATM   20  C   UNL     1     -45.901 -52.978  13.361  1.00  0.00     0.285 C 
BRANCH  20  21
HETATM   21  C   UNL     1     -46.359 -51.531  13.162  1.00  0.00     0.408 C 
HETATM   22  F   UNL     1     -45.334 -50.655  13.083  1.00  0.00    -0.169 F 
HETATM   23  F   UNL     1     -47.157 -51.136  14.182  1.00  0.00    -0.169 F 
HETATM   24  F   UNL     1     -47.081 -51.411  12.021  1.00  0.00    -0.169 F 
ENDBRANCH  20  21
ENDBRANCH  19  20
ENDBRANCH   1  19
TORSDOF 6
ENDMDL
MODEL 4
REMARK VINA RESULT:      -6.1      4.612      7.266
REMARK  6 active torsions:
REMARK  status: ('A' for Active; 'I' for Inactive)
REMARK    1  A    between atoms: C_2  and  C_5 
REMARK    2  A    between atoms: C_5  and  O_6 
REMARK    3  A    between atoms: O_6  and  C_7 
REMARK    4  A    between atoms: C_11  and  N_13 
REMARK       I    between atoms: N_13  and  C_14 
REMARK    5  A    between atoms: C_14  and  C_16 
REMARK    6  A    between atoms: C_16  and  N_17 
ROOT
HETATM    1  C   UNL     1     -44.908 -54.216  13.631  1.00  0.00     0.123 C 
HETATM    2  C   UNL     1     -43.926 -55.279  14.139  1.00  0.00     0.032 C 
HETATM    3  C   UNL     1     -42.645 -54.644  14.689  1.00  0.00     0.004 C 
HETATM    4  C   UNL     1     -41.979 -53.727  13.667  1.00  0.00     0.025 C 
HETATM    5  C   UNL     1     -42.955 -52.693  13.089  1.00  0.00     0.086 C 
HETATM    6  C   UNL     1     -44.228 -53.370  12.550  1.00  0.00     0.057 C 
ENDROOT
BRANCH   5   7
HETATM    7  N   UNL     1     -42.328 -51.826  12.094  1.00  0.00    -0.355 N 
HETATM    8  C   UNL     1     -41.628 -50.678  12.406  1.00  0.00     0.236 C 
HETATM    9  O   UNL     1     -41.479 -50.253  13.550  1.00  0.00    -0.272 OA
HETATM   10  H   UNL     1     -42.601 -51.948  11.121  1.00  0.00     0.162 HD
BRANCH   8  11
HETATM   11  C   UNL     1     -41.061 -49.935  11.199  1.00  0.00     0.234 C 
BRANCH  11  12
HETATM   12  N   UNL     1     -41.425 -48.523  11.213  1.00  0.00    -0.316 N 
HETATM   13  C   UNL     1     -42.724 -48.149  10.924  1.00  0.00     0.095 A 
HETATM   14  C   UNL     1     -43.100 -46.866  10.978  1.00  0.00     0.017 A 
HETATM   15  C   UNL     1     -42.146 -45.853  11.352  1.00  0.00     0.007 A 
HETATM   16  C   UNL     1     -40.871 -46.177  11.604  1.00  0.00     0.074 A 
HETATM   17  C   UNL     1     -40.428 -47.595  11.507  1.00  0.00     0.247 A 
HETATM   18  O   UNL     1     -39.247 -47.886  11.685  1.00  0.00    -0.268 OA
ENDBRANCH  11  12
ENDBRANCH   8  11
ENDBRANCH   5   7
BRANCH   1  19
HETATM   19  O   UNL     1     -45.296 -53.436  14.771  1.00  0.00    -0.377 OA
BRANCH  19  20
HETATM   20  C   UNL     1     -46.651 -52.969  14.756  1.00  0.00     0.285 C 
BRANCH  20  21
HETATM   21  C   UNL     1     -46.740 -51.444  14.652  1.00  0.00     0.408 C 
HETATM   22  F   UNL     1     -47.593 -50.900  15.547  1.00  0.00    -0.169 F 
HETATM   23  F   UNL     1     -47.150 -51.071  13.417  1.00  0.00    -0.169 F 
HETATM   24  F   UNL     1     -45.525 -50.879  14.857  1.00  0.00    -0.169 F 
ENDBRANCH  20  21
ENDBRANCH  19  20
ENDBRANCH   1  19
TORSDOF 6
ENDMDL
MODEL 5
REMARK VINA RESULT:      -6.0      4.095      7.304
REMARK  6 active torsions:
REMARK  status: ('A' for Active; 'I' for Inactive)
REMARK    1  A    between atoms: C_2  and  C_5 
REMARK    2  A    between atoms: C_5  and  O_6 
REMARK    3  A    between atoms: O_6  and  C_7 
REMARK    4  A    between atoms: C_11  and  N_13 
REMARK       I    between atoms: N_13  and  C_14 
REMARK    5  A    between atoms: C_14  and  C_16 
REMARK    6  A    between atoms: C_16  and  N_17 
ROOT
HETATM    1  C   UNL     1     -45.080 -54.392  13.789  1.00  0.00     0.123 C 
HETATM    2  C   UNL     1     -44.231 -55.546  14.337  1.00  0.00     0.032 C 
HETATM    3  C   UNL     1     -42.989 -55.030  15.070  1.00  0.00     0.004 C 
HETATM    4  C   UNL     1     -42.152 -54.103  14.191  1.00  0.00     0.025 C 
HETATM    5  C   UNL     1     -42.989 -52.976  13.572  1.00  0.00     0.086 C 
HETATM    6  C   UNL     1     -44.227 -53.534  12.849  1.00  0.00     0.057 C 
ENDROOT
BRANCH   5   7
HETATM    7  N   UNL     1     -42.197 -52.098  12.713  1.00  0.00    -0.355 N 
HETATM    8  C   UNL     1     -42.176 -50.723  12.829  1.00  0.00     0.236 C 
HETATM    9  O   UNL     1     -42.839 -50.092  13.651  1.00  0.00    -0.272 OA
HETATM   10  H   UNL     1     -41.816 -52.493  11.855  1.00  0.00     0.162 HD
BRANCH   8  11
HETATM   11  C   UNL     1     -41.273 -50.017  11.821  1.00  0.00     0.234 C 
BRANCH  11  12
HETATM   12  N   UNL     1     -40.074 -49.480  12.454  1.00  0.00    -0.316 N 
HETATM   13  C   UNL     1     -40.010 -48.136  12.767  1.00  0.00     0.095 A 
HETATM   14  C   UNL     1     -38.944 -47.624  13.392  1.00  0.00     0.017 A 
HETATM   15  C   UNL     1     -37.845 -48.482  13.758  1.00  0.00     0.007 A 
HETATM   16  C   UNL     1     -37.859 -49.782  13.438  1.00  0.00     0.074 A 
HETATM   17  C   UNL     1     -39.021 -50.357  12.704  1.00  0.00     0.247 A 
HETATM   18  O   UNL     1     -39.010 -51.537  12.363  1.00  0.00    -0.268 OA
ENDBRANCH  11  12
ENDBRANCH   8  11
ENDBRANCH   5   7
BRANCH   1  19
HETATM   19  O   UNL     1     -45.553 -53.654  14.924  1.00  0.00    -0.377 OA
BRANCH  19  20
HETATM   20  C   UNL     1     -46.845 -53.054  14.764  1.00  0.00     0.285 C 
BRANCH  20  21
HETATM   21  C   UNL     1     -46.777 -51.525  14.728  1.00  0.00     0.408 C 
HETATM   22  F   UNL     1     -47.612 -50.935  15.611  1.00  0.00    -0.169 F 
HETATM   23  F   UNL     1     -47.092 -51.060  13.496  1.00  0.00    -0.169 F 
HETATM   24  F   UNL     1     -45.523 -51.095  15.008  1.00  0.00    -0.169 F 
ENDBRANCH  20  21
ENDBRANCH  19  20
ENDBRANCH   1  19
TORSDOF 6
ENDMDL
MODEL 6
REMARK VINA RESULT:      -5.9      2.406      3.251
REMARK  6 active torsions:
REMARK  status: ('A' for Active; 'I' for Inactive)
REMARK    1  A    between atoms: C_2  and  C_5 
REMARK    2  A    between atoms: C_5  and  O_6 
REMARK    3  A    between atoms: O_6  and  C_7 
REMARK    4  A    between atoms: C_11  and  N_13 
REMARK       I    between atoms: N_13  and  C_14 
REMARK    5  A    between atoms: C_14  and  C_16 
REMARK    6  A    between atoms: C_16  and  N_17 
ROOT
HETATM    1  C   UNL     1     -38.981 -48.749  13.663  1.00  0.00     0.123 C 
HETATM    2  C   UNL     1     -37.601 -49.393  13.851  1.00  0.00     0.032 C 
HETATM    3  C   UNL     1     -37.536 -50.780  13.203  1.00  0.00     0.004 C 
HETATM    4  C   UNL     1     -38.643 -51.700  13.712  1.00  0.00     0.025 C 
HETATM    5  C   UNL     1     -40.031 -51.056  13.600  1.00  0.00     0.086 C 
HETATM    6  C   UNL     1     -40.055 -49.664  14.258  1.00  0.00     0.057 C 
ENDROOT
BRANCH   5   7
HETATM    7  N   UNL     1     -41.094 -51.923  14.104  1.00  0.00    -0.355 N 
HETATM    8  C   UNL     1     -42.014 -52.562  13.297  1.00  0.00     0.236 C 
HETATM    9  O   UNL     1     -42.050 -52.449  12.073  1.00  0.00    -0.272 OA
HETATM   10  H   UNL     1     -41.304 -51.884  15.099  1.00  0.00     0.162 HD
BRANCH   8  11
HETATM   11  C   UNL     1     -43.029 -53.417  14.050  1.00  0.00     0.234 C 
BRANCH  11  12
HETATM   12  N   UNL     1     -44.315 -52.743  14.178  1.00  0.00    -0.316 N 
HETATM   13  C   UNL     1     -44.537 -51.890  15.242  1.00  0.00     0.095 A 
HETATM   14  C   UNL     1     -45.689 -51.219  15.360  1.00  0.00     0.017 A 
HETATM   15  C   UNL     1     -46.715 -51.374  14.360  1.00  0.00     0.007 A 
HETATM   16  C   UNL     1     -46.546 -52.218  13.334  1.00  0.00     0.074 A 
HETATM   17  C   UNL     1     -45.287 -53.004  13.214  1.00  0.00     0.247 A 
HETATM   18  O   UNL     1     -45.154 -53.819  12.304  1.00  0.00    -0.268 OA
ENDBRANCH  11  12
ENDBRANCH   8  11
ENDBRANCH   5   7
BRANCH   1  19
HETATM   19  O   UNL     1     -39.153 -48.550  12.253  1.00  0.00    -0.377 OA
BRANCH  19  20
HETATM   20  C   UNL     1     -40.391 -47.936  11.872  1.00  0.00     0.285 C 
BRANCH  20  21
HETATM   21  C   UNL     1     -41.228 -48.832  10.955  1.00  0.00     0.408 C 
HETATM   22  F   UNL     1     -41.683 -48.191   9.857  1.00  0.00    -0.169 F 
HETATM   23  F   UNL     1     -42.303 -49.323  11.616  1.00  0.00    -0.169 F 
HETATM   24  F   UNL     1     -40.501 -49.894  10.531  1.00  0.00    -0.169 F 
ENDBRANCH  20  21
ENDBRANCH  19  20
ENDBRANCH   1  19
TORSDOF 6
ENDMDL
MODEL 7
REMARK VINA RESULT:      -5.8      3.977      7.472
REMARK  6 active torsions:
REMARK  status: ('A' for Active; 'I' for Inactive)
REMARK    1  A    between atoms: C_2  and  C_5 
REMARK    2  A    between atoms: C_5  and  O_6 
REMARK    3  A    between atoms: O_6  and  C_7 
REMARK    4  A    between atoms: C_11  and  N_13 
REMARK       I    between atoms: N_13  and  C_14 
REMARK    5  A    between atoms: C_14  and  C_16 
REMARK    6  A    between atoms: C_16  and  N_17 
ROOT
HETATM    1  C   UNL     1     -44.270 -53.770  14.148  1.00  0.00     0.123 C 
HETATM    2  C   UNL     1     -44.059 -55.281  14.308  1.00  0.00     0.032 C 
HETATM    3  C   UNL     1     -43.171 -55.600  15.514  1.00  0.00     0.004 C 
HETATM    4  C   UNL     1     -41.834 -54.865  15.448  1.00  0.00     0.025 C 
HETATM    5  C   UNL     1     -42.010 -53.358  15.219  1.00  0.00     0.086 C 
HETATM    6  C   UNL     1     -42.910 -53.079  14.002  1.00  0.00     0.057 C 
ENDROOT
BRANCH   5   7
HETATM    7  N   UNL     1     -40.733 -52.652  15.134  1.00  0.00    -0.355 N 
HETATM    8  C   UNL     1     -39.791 -52.881  14.152  1.00  0.00     0.236 C 
HETATM    9  O   UNL     1     -39.917 -53.719  13.261  1.00  0.00    -0.272 OA
HETATM   10  H   UNL     1     -40.427 -52.127  15.950  1.00  0.00     0.162 HD
BRANCH   8  11
HETATM   11  C   UNL     1     -38.535 -52.021  14.267  1.00  0.00     0.234 C 
BRANCH  11  12
HETATM   12  N   UNL     1     -38.524 -50.947  13.280  1.00  0.00    -0.316 N 
HETATM   13  C   UNL     1     -39.493 -49.964  13.328  1.00  0.00     0.095 A 
HETATM   14  C   UNL     1     -39.480 -48.939  12.468  1.00  0.00     0.017 A 
HETATM   15  C   UNL     1     -38.436 -48.846  11.479  1.00  0.00     0.007 A 
HETATM   16  C   UNL     1     -37.501 -49.800  11.382  1.00  0.00     0.074 A 
HETATM   17  C   UNL     1     -37.529 -50.968  12.305  1.00  0.00     0.247 A 
HETATM   18  O   UNL     1     -36.704 -51.871  12.181  1.00  0.00    -0.268 OA
ENDBRANCH  11  12
ENDBRANCH   8  11
ENDBRANCH   5   7
BRANCH   1  19
HETATM   19  O   UNL     1     -44.985 -53.329  15.310  1.00  0.00    -0.377 OA
BRANCH  19  20
HETATM   20  C   UNL     1     -46.365 -53.009  15.090  1.00  0.00     0.285 C 
BRANCH  20  21
HETATM   21  C   UNL     1     -46.587 -51.511  14.865  1.00  0.00     0.408 C 
HETATM   22  F   UNL     1     -46.914 -51.208  13.590  1.00  0.00    -0.169 F 
HETATM   23  F   UNL     1     -45.473 -50.809  15.180  1.00  0.00    -0.169 F 
HETATM   24  F   UNL     1     -47.586 -51.052  15.658  1.00  0.00    -0.169 F 
ENDBRANCH  20  21
ENDBRANCH  19  20
ENDBRANCH   1  19
TORSDOF 6
ENDMDL
MODEL 8
REMARK VINA RESULT:      -5.7      3.568      7.054
REMARK  6 active torsions:
REMARK  status: ('A' for Active; 'I' for Inactive)
REMARK    1  A    between atoms: C_2  and  C_5 
REMARK    2  A    between atoms: C_5  and  O_6 
REMARK    3  A    between atoms: O_6  and  C_7 
REMARK    4  A    between atoms: C_11  and  N_13 
REMARK       I    between atoms: N_13  and  C_14 
REMARK    5  A    between atoms: C_14  and  C_16 
REMARK    6  A    between atoms: C_16  and  N_17 
ROOT
HETATM    1  C   UNL     1     -44.937 -51.864  15.644  1.00  0.00     0.123 C 
HETATM    2  C   UNL     1     -46.334 -51.485  15.137  1.00  0.00     0.032 C 
HETATM    3  C   UNL     1     -46.477 -51.749  13.635  1.00  0.00     0.004 C 
HETATM    4  C   UNL     1     -45.391 -51.042  12.826  1.00  0.00     0.025 C 
HETATM    5  C   UNL     1     -43.982 -51.347  13.353  1.00  0.00     0.086 C 
HETATM    6  C   UNL     1     -43.881 -51.073  14.865  1.00  0.00     0.057 C 
ENDROOT
BRANCH   5   7
HETATM    7  N   UNL     1     -42.940 -50.657  12.597  1.00  0.00    -0.355 N 
HETATM    8  C   UNL     1     -41.716 -51.215  12.288  1.00  0.00     0.236 C 
HETATM    9  O   UNL     1     -41.366 -52.341  12.637  1.00  0.00    -0.272 OA
HETATM   10  H   UNL     1     -43.028 -49.649  12.480  1.00  0.00     0.162 HD
BRANCH   8  11
HETATM   11  C   UNL     1     -40.789 -50.304  11.488  1.00  0.00     0.234 C 
BRANCH  11  12
HETATM   12  N   UNL     1     -39.871 -49.572  12.353  1.00  0.00    -0.316 N 
HETATM   13  C   UNL     1     -40.235 -48.334  12.846  1.00  0.00     0.095 A 
HETATM   14  C   UNL     1     -39.436 -47.661  13.681  1.00  0.00     0.017 A 
HETATM   15  C   UNL     1     -38.177 -48.234  14.086  1.00  0.00     0.007 A 
HETATM   16  C   UNL     1     -37.777 -49.416  13.600  1.00  0.00     0.074 A 
HETATM   17  C   UNL     1     -38.638 -50.156  12.637  1.00  0.00     0.247 A 
HETATM   18  O   UNL     1     -38.247 -51.214  12.148  1.00  0.00    -0.268 OA
ENDBRANCH  11  12
ENDBRANCH   8  11
ENDBRANCH   5   7
BRANCH   1  19
HETATM   19  O   UNL     1     -44.803 -53.280  15.463  1.00  0.00    -0.377 OA
BRANCH  19  20
HETATM   20  C   UNL     1     -43.539 -53.827  15.860  1.00  0.00     0.285 C 
BRANCH  20  21
HETATM   21  C   UNL     1     -42.977 -54.806  14.826  1.00  0.00     0.408 C 
HETATM   22  F   UNL     1     -43.236 -56.098  15.122  1.00  0.00    -0.169 F 
HETATM   23  F   UNL     1     -41.634 -54.673  14.720  1.00  0.00    -0.169 F 
HETATM   24  F   UNL     1     -43.500 -54.559  13.600  1.00  0.00    -0.169 F 
ENDBRANCH  20  21
ENDBRANCH  19  20
ENDBRANCH   1  19
TORSDOF 6
ENDMDL
MODEL 9
REMARK VINA RESULT:      -5.6      2.479      3.401
REMARK  6 active torsions:
REMARK  status: ('A' for Active; 'I' for Inactive)
REMARK    1  A    between atoms: C_2  and  C_5 
REMARK    2  A    between atoms: C_5  and  O_6 
REMARK    3  A    between atoms: O_6  and  C_7 
REMARK    4  A    between atoms: C_11  and  N_13 
REMARK       I    between atoms: N_13  and  C_14 
REMARK    5  A    between atoms: C_14  and  C_16 
REMARK    6  A    between atoms: C_16  and  N_17 
ROOT
HETATM    1  C   UNL     1     -39.981 -54.138  17.513  1.00  0.00     0.123 C 
HETATM    2  C   UNL     1     -39.650 -55.453  18.230  1.00  0.00     0.032 C 
HETATM    3  C   UNL     1     -39.891 -56.663  17.323  1.00  0.00     0.004 C 
HETATM    4  C   UNL     1     -41.313 -56.685  16.767  1.00  0.00     0.025 C 
HETATM    5  C   UNL     1     -41.698 -55.357  16.103  1.00  0.00     0.086 C 
HETATM    6  C   UNL     1     -41.439 -54.167  17.044  1.00  0.00     0.057 C 
ENDROOT
BRANCH   5   7
HETATM    7  N   UNL     1     -43.066 -55.364  15.587  1.00  0.00    -0.355 N 
HETATM    8  C   UNL     1     -43.433 -54.821  14.373  1.00  0.00     0.236 C 
HETATM    9  O   UNL     1     -42.654 -54.254  13.610  1.00  0.00    -0.272 OA
HETATM   10  H   UNL     1     -43.816 -55.581  16.240  1.00  0.00     0.162 HD
BRANCH   8  11
HETATM   11  C   UNL     1     -44.919 -54.950  14.046  1.00  0.00     0.234 C 
BRANCH  11  12
HETATM   12  N   UNL     1     -45.644 -53.717  14.332  1.00  0.00    -0.316 N 
HETATM   13  C   UNL     1     -46.070 -53.458  15.621  1.00  0.00     0.095 A 
HETATM   14  C   UNL     1     -46.693 -52.314  15.924  1.00  0.00     0.017 A 
HETATM   15  C   UNL     1     -46.920 -51.326  14.899  1.00  0.00     0.007 A 
HETATM   16  C   UNL     1     -46.551 -51.560  13.633  1.00  0.00     0.074 A 
HETATM   17  C   UNL     1     -45.894 -52.847  13.273  1.00  0.00     0.247 A 
HETATM   18  O   UNL     1     -45.605 -53.085  12.102  1.00  0.00    -0.268 OA
ENDBRANCH  11  12
ENDBRANCH   8  11
ENDBRANCH   5   7
BRANCH   1  19
HETATM   19  O   UNL     1     -39.058 -54.020  16.422  1.00  0.00    -0.377 OA
BRANCH  19  20
HETATM   20  C   UNL     1     -38.957 -52.710  15.849  1.00  0.00     0.285 C 
BRANCH  20  21
HETATM   21  C   UNL     1     -39.314 -52.696  14.360  1.00  0.00     0.408 C 
HETATM   22  F   UNL     1     -40.461 -52.033  14.095  1.00  0.00    -0.169 F 
HETATM   23  F   UNL     1     -39.454 -53.958  13.889  1.00  0.00    -0.169 F 
HETATM   24  F   UNL     1     -38.330 -52.107  13.638  1.00  0.00    -0.169 F 
ENDBRANCH  20  21
ENDBRANCH  19  20
ENDBRANCH   1  19
TORSDOF 6
ENDMDL
