MODEL 1
REMARK VINA RESULT:      -6.3      0.000      0.000
REMARK  8 active torsions:
REMARK  status: ('A' for Active; 'I' for Inactive)
REMARK    1  A    between atoms: N_2  and  C_17 
REMARK    2  A    between atoms: C_6  and  N_7 
REMARK    3  A    between atoms: N_10  and  C_26 
REMARK    4  A    between atoms: C_16  and  C_17 
REMARK    5  A    between atoms: C_16  and  C_25 
REMARK    6  A    between atoms: C_25  and  O_27 
REMARK    7  A    between atoms: C_26  and  C_29 
REMARK    8  A    between atoms: O_28  and  C_29 
ROOT
HETATM    1  C   UNL     1     -42.412 -50.307  12.765  1.00  0.00     0.117 A 
HETATM    2  N   UNL     1     -43.592 -51.516  14.131  1.00  0.00    -0.326 N 
HETATM    3  C   UNL     1     -42.636 -51.615  13.158  1.00  0.00     0.140 A 
HETATM    4  N   UNL     1     -43.230 -49.437  13.458  1.00  0.00    -0.346 N 
ATOM      5  HN  UNL     1     -43.300 -48.426  13.343  1.00  0.00     0.167 HD
HETATM    6  C   UNL     1     -41.427 -50.091  11.782  1.00  0.00     0.115 A 
HETATM    7  C   UNL     1     -43.898 -50.195  14.294  1.00  0.00     0.185 A 
HETATM    8  N   UNL     1     -42.045 -52.731  12.693  1.00  0.00    -0.336 N 
ATOM      9  HN  UNL     1     -42.263 -53.679  13.001  1.00  0.00     0.168 HD
HETATM   10  N   UNL     1     -40.780 -51.188  11.295  1.00  0.00    -0.341 N 
ATOM     11  HN  UNL     1     -40.048 -51.086  10.592  1.00  0.00     0.167 HD
HETATM   12  C   UNL     1     -41.121 -52.412  11.757  1.00  0.00     0.183 A 
ENDROOT
BRANCH   6  13
HETATM   13  N   UNL     1     -41.099 -48.799  11.354  1.00  0.00    -0.257 NA
HETATM   14  C   UNL     1     -42.251 -48.054  10.822  1.00  0.00     0.200 C 
HETATM   15  C   UNL     1     -41.889 -46.626  10.387  1.00  0.00     0.233 C 
HETATM   16  N   UNL     1     -40.957 -45.978  11.196  1.00  0.00    -0.348 N 
HETATM   17  O   UNL     1     -42.517 -46.041   9.503  1.00  0.00    -0.272 OA
HETATM   18  C   UNL     1     -39.858 -46.745  11.778  1.00  0.00     0.140 C 
HETATM   19  C   UNL     1     -40.346 -48.065  12.382  1.00  0.00     0.117 C 
BRANCH  16  20
HETATM   20  C   UNL     1     -40.917 -44.521  11.221  1.00  0.00     0.152 C 
BRANCH  20  21
HETATM   21  C   UNL     1     -41.516 -43.977  12.530  1.00  0.00     0.186 C 
BRANCH  21  22
HETATM   22  O   UNL     1     -42.850 -43.501  12.287  1.00  0.00    -0.394 OA
HETATM   23  C   UNL     1     -42.944 -42.843  11.030  1.00  0.00     0.201 C 
ENDBRANCH  21  22
ENDBRANCH  20  21
ENDBRANCH  16  20
ENDBRANCH   6  13
BRANCH   2  24
HETATM   24  C   UNL     1     -44.173 -52.604  14.895  1.00  0.00     0.147 C 
BRANCH  24  25
HETATM   25  C   UNL     1     -45.311 -53.303  14.162  1.00  0.00     0.040 C 
HETATM   26  C   UNL     1     -46.209 -54.242  14.997  1.00  0.00     0.183 C 
HETATM   27  O   UNL     1     -45.965 -55.337  14.084  1.00  0.00    -0.389 OA
HETATM   28  C   UNL     1     -44.851 -54.618  13.500  1.00  0.00     0.183 C 
BRANCH  25  29
HETATM   29  C   UNL     1     -46.137 -52.399  13.258  1.00  0.00     0.179 C 
BRANCH  29  30
HETATM   30  O   UNL     1     -46.414 -53.065  12.033  1.00  0.00    -0.400 OA
HETATM   31  H   UNL     1     -47.301 -53.471  12.124  1.00  0.00     0.209 HD
ENDBRANCH  29  30
ENDBRANCH  25  29
ENDBRANCH  24  25
ENDBRANCH   2  24
TORSDOF 8
ENDMDL
MODEL 2
REMARK VINA RESULT:      -6.2      1.725      8.171
REMARK  8 active torsions:
REMARK  status: ('A' for Active; 'I' for Inactive)
REMARK    1  A    between atoms: N_2  and  C_17 
REMARK    2  A    between atoms: C_6  and  N_7 
REMARK    3  A    between atoms: N_10  and  C_26 
REMARK    4  A    between atoms: C_16  and  C_17 
REMARK    5  A    between atoms: C_16  and  C_25 
REMARK    6  A    between atoms: C_25  and  O_27 
REMARK    7  A    between atoms: C_26  and  C_29 
REMARK    8  A    between atoms: O_28  and  C_29 
ROOT
HETATM    1  C   UNL     1     -42.003 -48.730  11.473  1.00  0.00     0.117 A 
HETATM    2  N   UNL     1     -42.317 -46.761  10.608  1.00  0.00    -0.326 N 
HETATM    3  C   UNL     1     -41.331 -47.591  11.065  1.00  0.00     0.140 A 
HETATM    4  N   UNL     1     -43.366 -48.587  11.298  1.00  0.00    -0.346 N 
ATOM      5  HN  UNL     1     -44.097 -49.253  11.547  1.00  0.00     0.167 HD
HETATM    6  C   UNL     1     -41.224 -49.795  11.964  1.00  0.00     0.115 A 
HETATM    7  C   UNL     1     -43.513 -47.408  10.743  1.00  0.00     0.185 A 
HETATM    8  N   UNL     1     -40.007 -47.354  11.104  1.00  0.00    -0.336 N 
ATOM      9  HN  UNL     1     -39.560 -46.485  10.811  1.00  0.00     0.168 HD
HETATM   10  N   UNL     1     -39.873 -49.616  12.001  1.00  0.00    -0.341 N 
ATOM     11  HN  UNL     1     -39.261 -50.361  12.334  1.00  0.00     0.167 HD
HETATM   12  C   UNL     1     -39.355 -48.437  11.590  1.00  0.00     0.183 A 
ENDROOT
BRANCH   6  13
HETATM   13  N   UNL     1     -41.812 -51.004  12.357  1.00  0.00    -0.257 NA
HETATM   14  C   UNL     1     -40.840 -52.095  12.527  1.00  0.00     0.200 C 
HETATM   15  C   UNL     1     -41.489 -53.407  12.991  1.00  0.00     0.233 C 
HETATM   16  N   UNL     1     -42.535 -53.261  13.900  1.00  0.00    -0.348 N 
HETATM   17  O   UNL     1     -40.996 -54.503  12.720  1.00  0.00    -0.272 OA
HETATM   18  C   UNL     1     -43.451 -52.132  13.763  1.00  0.00     0.140 C 
HETATM   19  C   UNL     1     -42.700 -50.820  13.514  1.00  0.00     0.117 C 
BRANCH  16  20
HETATM   20  C   UNL     1     -42.876 -54.368  14.787  1.00  0.00     0.152 C 
BRANCH  20  21
HETATM   21  C   UNL     1     -44.222 -54.998  14.387  1.00  0.00     0.186 C 
BRANCH  21  22
HETATM   22  O   UNL     1     -45.193 -54.750  15.416  1.00  0.00    -0.394 OA
HETATM   23  C   UNL     1     -46.428 -54.309  14.867  1.00  0.00     0.201 C 
ENDBRANCH  21  22
ENDBRANCH  20  21
ENDBRANCH  16  20
ENDBRANCH   6  13
BRANCH   2  24
HETATM   24  C   UNL     1     -42.149 -45.436  10.042  1.00  0.00     0.147 C 
BRANCH  24  25
HETATM   25  C   UNL     1     -41.796 -44.385  11.088  1.00  0.00     0.040 C 
HETATM   26  C   UNL     1     -42.248 -44.662  12.538  1.00  0.00     0.183 C 
HETATM   27  O   UNL     1     -42.936 -43.390  12.599  1.00  0.00    -0.389 OA
HETATM   28  C   UNL     1     -42.852 -43.262  11.157  1.00  0.00     0.183 C 
BRANCH  25  29
HETATM   29  C   UNL     1     -40.357 -43.892  11.036  1.00  0.00     0.179 C 
BRANCH  29  30
HETATM   30  O   UNL     1     -39.702 -44.438   9.898  1.00  0.00    -0.400 OA
HETATM   31  H   UNL     1     -40.268 -45.166   9.565  1.00  0.00     0.209 HD
ENDBRANCH  29  30
ENDBRANCH  25  29
ENDBRANCH  24  25
ENDBRANCH   2  24
TORSDOF 8
ENDMDL
MODEL 3
REMARK VINA RESULT:      -5.9      1.741      7.730
REMARK  8 active torsions:
REMARK  status: ('A' for Active; 'I' for Inactive)
REMARK    1  A    between atoms: N_2  and  C_17 
REMARK    2  A    between atoms: C_6  and  N_7 
REMARK    3  A    between atoms: N_10  and  C_26 
REMARK    4  A    between atoms: C_16  and  C_17 
REMARK    5  A    between atoms: C_16  and  C_25 
REMARK    6  A    between atoms: C_25  and  O_27 
REMARK    7  A    between atoms: C_26  and  C_29 
REMARK    8  A    between atoms: O_28  and  C_29 
ROOT
HETATM    1  C   UNL     1     -41.916 -49.703  12.076  1.00  0.00     0.117 A 
HETATM    2  N   UNL     1     -42.180 -47.790  11.080  1.00  0.00    -0.326 N 
HETATM    3  C   UNL     1     -41.232 -48.733  11.365  1.00  0.00     0.140 A 
HETATM    4  N   UNL     1     -43.239 -49.347  12.248  1.00  0.00    -0.346 N 
ATOM      5  HN  UNL     1     -43.958 -49.856  12.762  1.00  0.00     0.167 HD
HETATM    6  C   UNL     1     -41.187 -50.840  12.477  1.00  0.00     0.115 A 
HETATM    7  C   UNL     1     -43.369 -48.211  11.605  1.00  0.00     0.185 A 
HETATM    8  N   UNL     1     -39.929 -48.721  11.025  1.00  0.00    -0.336 N 
ATOM      9  HN  UNL     1     -39.465 -47.969  10.517  1.00  0.00     0.168 HD
HETATM   10  N   UNL     1     -39.869 -50.890  12.135  1.00  0.00    -0.341 N 
ATOM     11  HN  UNL     1     -39.299 -51.697  12.388  1.00  0.00     0.167 HD
HETATM   12  C   UNL     1     -39.326 -49.854  11.456  1.00  0.00     0.183 A 
ENDROOT
BRANCH   6  13
HETATM   13  N   UNL     1     -41.806 -51.894  13.161  1.00  0.00    -0.257 NA
HETATM   14  C   UNL     1     -42.348 -51.497  14.470  1.00  0.00     0.200 C 
HETATM   15  C   UNL     1     -43.054 -52.650  15.199  1.00  0.00     0.233 C 
HETATM   16  N   UNL     1     -43.780 -53.513  14.380  1.00  0.00    -0.348 N 
HETATM   17  O   UNL     1     -43.122 -52.692  16.429  1.00  0.00    -0.272 OA
HETATM   18  C   UNL     1     -43.265 -53.842  13.053  1.00  0.00     0.140 C 
HETATM   19  C   UNL     1     -42.777 -52.595  12.309  1.00  0.00     0.117 C 
BRANCH  16  20
HETATM   20  C   UNL     1     -44.873 -54.293  14.947  1.00  0.00     0.152 C 
BRANCH  20  21
HETATM   21  C   UNL     1     -46.236 -53.739  14.494  1.00  0.00     0.186 C 
BRANCH  21  22
HETATM   22  O   UNL     1     -46.637 -52.673  15.369  1.00  0.00    -0.394 OA
HETATM   23  C   UNL     1     -46.778 -51.448  14.663  1.00  0.00     0.201 C 
ENDBRANCH  21  22
ENDBRANCH  20  21
ENDBRANCH  16  20
ENDBRANCH   6  13
BRANCH   2  24
HETATM   24  C   UNL     1     -41.992 -46.565  10.327  1.00  0.00     0.147 C 
BRANCH  24  25
HETATM   25  C   UNL     1     -41.509 -45.405  11.190  1.00  0.00     0.040 C 
HETATM   26  C   UNL     1     -41.933 -45.414  12.674  1.00  0.00     0.183 C 
HETATM   27  O   UNL     1     -42.501 -44.088  12.551  1.00  0.00    -0.389 OA
HETATM   28  C   UNL     1     -42.456 -44.190  11.106  1.00  0.00     0.183 C 
BRANCH  25  29
HETATM   29  C   UNL     1     -40.034 -45.065  11.032  1.00  0.00     0.179 C 
BRANCH  29  30
HETATM   30  O   UNL     1     -39.484 -45.796   9.943  1.00  0.00    -0.400 OA
HETATM   31  H   UNL     1     -39.123 -45.138   9.313  1.00  0.00     0.209 HD
ENDBRANCH  29  30
ENDBRANCH  25  29
ENDBRANCH  24  25
ENDBRANCH   2  24
TORSDOF 8
ENDMDL
MODEL 4
REMARK VINA RESULT:      -5.9      2.672      3.726
REMARK  8 active torsions:
REMARK  status: ('A' for Active; 'I' for Inactive)
REMARK    1  A    between atoms: N_2  and  C_17 
REMARK    2  A    between atoms: C_6  and  N_7 
REMARK    3  A    between atoms: N_10  and  C_26 
REMARK    4  A    between atoms: C_16  and  C_17 
REMARK    5  A    between atoms: C_16  and  C_25 
REMARK    6  A    between atoms: C_25  and  O_27 
REMARK    7  A    between atoms: C_26  and  C_29 
REMARK    8  A    between atoms: O_28  and  C_29 
ROOT
HETATM    1  C   UNL     1     -41.322 -49.874  12.015  1.00  0.00     0.117 A 
HETATM    2  N   UNL     1     -41.244 -52.019  12.351  1.00  0.00    -0.326 N 
HETATM    3  C   UNL     1     -40.455 -50.952  12.025  1.00  0.00     0.140 A 
HETATM    4  N   UNL     1     -42.612 -50.277  12.298  1.00  0.00    -0.346 N 
ATOM      5  HN  UNL     1     -43.453 -49.699  12.321  1.00  0.00     0.167 HD
HETATM    6  C   UNL     1     -40.770 -48.607  11.742  1.00  0.00     0.115 A 
HETATM    7  C   UNL     1     -42.520 -51.564  12.530  1.00  0.00     0.185 A 
HETATM    8  N   UNL     1     -39.132 -50.951  11.774  1.00  0.00    -0.336 N 
ATOM      9  HN  UNL     1     -38.538 -51.780  11.771  1.00  0.00     0.168 HD
HETATM   10  N   UNL     1     -39.429 -48.548  11.506  1.00  0.00    -0.341 N 
ATOM     11  HN  UNL     1     -38.976 -47.653  11.318  1.00  0.00     0.167 HD
HETATM   12  C   UNL     1     -38.707 -49.690  11.525  1.00  0.00     0.183 A 
ENDROOT
BRANCH   6  13
HETATM   13  N   UNL     1     -41.563 -47.452  11.756  1.00  0.00    -0.257 NA
HETATM   14  C   UNL     1     -41.856 -46.966  13.113  1.00  0.00     0.200 C 
HETATM   15  C   UNL     1     -42.696 -45.680  13.118  1.00  0.00     0.233 C 
HETATM   16  N   UNL     1     -42.397 -44.772  12.105  1.00  0.00    -0.348 N 
HETATM   17  O   UNL     1     -43.443 -45.400  14.058  1.00  0.00    -0.272 OA
HETATM   18  C   UNL     1     -42.037 -45.271  10.780  1.00  0.00     0.140 C 
HETATM   19  C   UNL     1     -41.024 -46.417  10.862  1.00  0.00     0.117 C 
BRANCH  16  20
HETATM   20  C   UNL     1     -42.719 -43.361  12.285  1.00  0.00     0.152 C 
BRANCH  20  21
HETATM   21  C   UNL     1     -43.119 -42.713  10.948  1.00  0.00     0.186 C 
BRANCH  21  22
HETATM   22  O   UNL     1     -42.094 -41.799  10.531  1.00  0.00    -0.394 OA
HETATM   23  C   UNL     1     -41.241 -41.448  11.614  1.00  0.00     0.201 C 
ENDBRANCH  21  22
ENDBRANCH  20  21
ENDBRANCH  16  20
ENDBRANCH   6  13
BRANCH   2  24
HETATM   24  C   UNL     1     -40.822 -53.397  12.518  1.00  0.00     0.147 C 
BRANCH  24  25
HETATM   25  C   UNL     1     -40.627 -53.785  13.979  1.00  0.00     0.040 C 
HETATM   26  C   UNL     1     -39.975 -52.733  14.902  1.00  0.00     0.183 C 
HETATM   27  O   UNL     1     -38.954 -53.676  15.306  1.00  0.00    -0.389 OA
HETATM   28  C   UNL     1     -39.304 -54.547  14.201  1.00  0.00     0.183 C 
BRANCH  25  29
HETATM   29  C   UNL     1     -41.840 -54.428  14.635  1.00  0.00     0.179 C 
BRANCH  29  30
HETATM   30  O   UNL     1     -41.761 -54.279  16.047  1.00  0.00    -0.400 OA
HETATM   31  H   UNL     1     -40.945 -54.739  16.336  1.00  0.00     0.209 HD
ENDBRANCH  29  30
ENDBRANCH  25  29
ENDBRANCH  24  25
ENDBRANCH   2  24
TORSDOF 8
ENDMDL
MODEL 5
REMARK VINA RESULT:      -5.9      2.776      8.124
REMARK  8 active torsions:
REMARK  status: ('A' for Active; 'I' for Inactive)
REMARK    1  A    between atoms: N_2  and  C_17 
REMARK    2  A    between atoms: C_6  and  N_7 
REMARK    3  A    between atoms: N_10  and  C_26 
REMARK    4  A    between atoms: C_16  and  C_17 
REMARK    5  A    between atoms: C_16  and  C_25 
REMARK    6  A    between atoms: C_25  and  O_27 
REMARK    7  A    between atoms: C_26  and  C_29 
REMARK    8  A    between atoms: O_28  and  C_29 
ROOT
HETATM    1  C   UNL     1     -40.792 -47.191  11.156  1.00  0.00     0.117 A 
HETATM    2  N   UNL     1     -40.741 -45.022  11.277  1.00  0.00    -0.326 N 
HETATM    3  C   UNL     1     -41.352 -46.048  10.612  1.00  0.00     0.140 A 
HETATM    4  N   UNL     1     -39.842 -46.869  12.106  1.00  0.00    -0.346 N 
ATOM      5  HN  UNL     1     -39.252 -47.511  12.636  1.00  0.00     0.167 HD
HETATM    6  C   UNL     1     -41.268 -48.429  10.682  1.00  0.00     0.115 A 
HETATM    7  C   UNL     1     -39.866 -45.560  12.177  1.00  0.00     0.185 A 
HETATM    8  N   UNL     1     -42.289 -45.965   9.649  1.00  0.00    -0.336 N 
ATOM      9  HN  UNL     1     -42.655 -45.094   9.264  1.00  0.00     0.168 HD
HETATM   10  N   UNL     1     -42.237 -48.400   9.724  1.00  0.00    -0.341 N 
ATOM     11  HN  UNL     1     -42.626 -49.268   9.356  1.00  0.00     0.167 HD
HETATM   12  C   UNL     1     -42.674 -47.205   9.267  1.00  0.00     0.183 A 
ENDROOT
BRANCH   6  13
HETATM   13  N   UNL     1     -40.793 -49.637  11.206  1.00  0.00    -0.257 NA
HETATM   14  C   UNL     1     -39.384 -49.573  11.628  1.00  0.00     0.200 C 
HETATM   15  C   UNL     1     -38.882 -50.893  12.233  1.00  0.00     0.233 C 
HETATM   16  N   UNL     1     -39.810 -51.578  13.014  1.00  0.00    -0.348 N 
HETATM   17  O   UNL     1     -37.694 -51.217  12.180  1.00  0.00    -0.272 OA
HETATM   18  C   UNL     1     -41.218 -51.573  12.623  1.00  0.00     0.140 C 
HETATM   19  C   UNL     1     -41.694 -50.169  12.239  1.00  0.00     0.117 C 
BRANCH  16  20
HETATM   20  C   UNL     1     -39.343 -52.515  14.029  1.00  0.00     0.152 C 
BRANCH  20  21
HETATM   21  C   UNL     1     -40.057 -53.873  13.894  1.00  0.00     0.186 C 
BRANCH  21  22
HETATM   22  O   UNL     1     -40.863 -54.109  15.059  1.00  0.00    -0.394 OA
HETATM   23  C   UNL     1     -42.158 -54.577  14.706  1.00  0.00     0.201 C 
ENDBRANCH  21  22
ENDBRANCH  20  21
ENDBRANCH  16  20
ENDBRANCH   6  13
BRANCH   2  24
HETATM   24  C   UNL     1     -40.984 -43.602  11.101  1.00  0.00     0.147 C 
BRANCH  24  25
HETATM   25  C   UNL     1     -42.193 -43.105  11.884  1.00  0.00     0.040 C 
HETATM   26  C   UNL     1     -41.913 -42.214  13.113  1.00  0.00     0.183 C 
HETATM   27  O   UNL     1     -42.680 -43.095  13.965  1.00  0.00    -0.389 OA
HETATM   28  C   UNL     1     -42.654 -44.125  12.945  1.00  0.00     0.183 C 
BRANCH  25  29
HETATM   29  C   UNL     1     -43.316 -42.538  11.027  1.00  0.00     0.179 C 
BRANCH  29  30
HETATM   30  O   UNL     1     -43.723 -43.502  10.064  1.00  0.00    -0.400 OA
HETATM   31  H   UNL     1     -43.694 -44.376  10.507  1.00  0.00     0.209 HD
ENDBRANCH  29  30
ENDBRANCH  25  29
ENDBRANCH  24  25
ENDBRANCH   2  24
TORSDOF 8
ENDMDL
MODEL 6
REMARK VINA RESULT:      -5.7      1.717      8.330
REMARK  8 active torsions:
REMARK  status: ('A' for Active; 'I' for Inactive)
REMARK    1  A    between atoms: N_2  and  C_17 
REMARK    2  A    between atoms: C_6  and  N_7 
REMARK    3  A    between atoms: N_10  and  C_26 
REMARK    4  A    between atoms: C_16  and  C_17 
REMARK    5  A    between atoms: C_16  and  C_25 
REMARK    6  A    between atoms: C_25  and  O_27 
REMARK    7  A    between atoms: C_26  and  C_29 
REMARK    8  A    between atoms: O_28  and  C_29 
ROOT
HETATM    1  C   UNL     1     -42.416 -49.102  12.149  1.00  0.00     0.117 A 
HETATM    2  N   UNL     1     -41.548 -47.364  11.177  1.00  0.00    -0.326 N 
HETATM    3  C   UNL     1     -41.234 -48.395  12.018  1.00  0.00     0.140 A 
HETATM    4  N   UNL     1     -43.432 -48.501  11.433  1.00  0.00    -0.346 N 
ATOM      5  HN  UNL     1     -44.410 -48.788  11.382  1.00  0.00     0.167 HD
HETATM    6  C   UNL     1     -42.384 -50.265  12.943  1.00  0.00     0.115 A 
HETATM    7  C   UNL     1     -42.865 -47.482  10.834  1.00  0.00     0.185 A 
HETATM    8  N   UNL     1     -40.043 -48.663  12.584  1.00  0.00    -0.336 N 
ATOM      9  HN  UNL     1     -39.203 -48.095  12.474  1.00  0.00     0.168 HD
HETATM   10  N   UNL     1     -41.194 -50.596  13.520  1.00  0.00    -0.341 N 
ATOM     11  HN  UNL     1     -41.113 -51.436  14.093  1.00  0.00     0.167 HD
HETATM   12  C   UNL     1     -40.123 -49.795  13.322  1.00  0.00     0.183 A 
ENDROOT
BRANCH   6  13
HETATM   13  N   UNL     1     -43.520 -51.070  13.097  1.00  0.00    -0.257 NA
HETATM   14  C   UNL     1     -43.272 -52.489  12.796  1.00  0.00     0.200 C 
HETATM   15  C   UNL     1     -44.514 -53.369  13.000  1.00  0.00     0.233 C 
HETATM   16  N   UNL     1     -45.317 -53.019  14.084  1.00  0.00    -0.348 N 
HETATM   17  O   UNL     1     -44.678 -54.412  12.364  1.00  0.00    -0.272 OA
HETATM   18  C   UNL     1     -45.496 -51.608  14.416  1.00  0.00     0.140 C 
HETATM   19  C   UNL     1     -44.167 -50.847  14.398  1.00  0.00     0.117 C 
BRANCH  16  20
HETATM   20  C   UNL     1     -46.185 -54.023  14.688  1.00  0.00     0.152 C 
BRANCH  20  21
HETATM   21  C   UNL     1     -46.056 -54.010  16.222  1.00  0.00     0.186 C 
BRANCH  21  22
HETATM   22  O   UNL     1     -44.824 -54.641  16.606  1.00  0.00    -0.394 OA
HETATM   23  C   UNL     1     -44.093 -53.836  17.522  1.00  0.00     0.201 C 
ENDBRANCH  21  22
ENDBRANCH  20  21
ENDBRANCH  16  20
ENDBRANCH   6  13
BRANCH   2  24
HETATM   24  C   UNL     1     -40.653 -46.330  10.693  1.00  0.00     0.147 C 
BRANCH  24  25
HETATM   25  C   UNL     1     -40.808 -45.011  11.441  1.00  0.00     0.040 C 
HETATM   26  C   UNL     1     -42.071 -44.178  11.135  1.00  0.00     0.183 C 
HETATM   27  O   UNL     1     -41.266 -43.020  10.809  1.00  0.00    -0.389 OA
HETATM   28  C   UNL     1     -40.081 -43.853  10.727  1.00  0.00     0.183 C 
BRANCH  25  29
HETATM   29  C   UNL     1     -40.542 -45.093  12.937  1.00  0.00     0.179 C 
BRANCH  29  30
HETATM   30  O   UNL     1     -40.142 -43.819  13.427  1.00  0.00    -0.400 OA
HETATM   31  H   UNL     1     -40.412 -43.778  14.368  1.00  0.00     0.209 HD
ENDBRANCH  29  30
ENDBRANCH  25  29
ENDBRANCH  24  25
ENDBRANCH   2  24
TORSDOF 8
ENDMDL
MODEL 7
REMARK VINA RESULT:      -5.6      2.731      3.736
REMARK  8 active torsions:
REMARK  status: ('A' for Active; 'I' for Inactive)
REMARK    1  A    between atoms: N_2  and  C_17 
REMARK    2  A    between atoms: C_6  and  N_7 
REMARK    3  A    between atoms: N_10  and  C_26 
REMARK    4  A    between atoms: C_16  and  C_17 
REMARK    5  A    between atoms: C_16  and  C_25 
REMARK    6  A    between atoms: C_25  and  O_27 
REMARK    7  A    between atoms: C_26  and  C_29 
REMARK    8  A    between atoms: O_28  and  C_29 
ROOT
HETATM    1  C   UNL     1     -41.055 -49.439  12.195  1.00  0.00     0.117 A 
HETATM    2  N   UNL     1     -41.321 -51.576  12.489  1.00  0.00    -0.326 N 
HETATM    3  C   UNL     1     -40.385 -50.648  12.126  1.00  0.00     0.140 A 
HETATM    4  N   UNL     1     -42.373 -49.627  12.562  1.00  0.00    -0.346 N 
ATOM      5  HN  UNL     1     -43.100 -48.917  12.653  1.00  0.00     0.167 HD
HETATM    6  C   UNL     1     -40.315 -48.276  11.906  1.00  0.00     0.115 A 
HETATM    7  C   UNL     1     -42.486 -50.918  12.765  1.00  0.00     0.185 A 
HETATM    8  N   UNL     1     -39.101 -50.863  11.783  1.00  0.00    -0.336 N 
ATOM      9  HN  UNL     1     -38.658 -51.779  11.724  1.00  0.00     0.168 HD
HETATM   10  N   UNL     1     -39.002 -48.437  11.578  1.00  0.00    -0.341 N 
ATOM     11  HN  UNL     1     -38.417 -47.626  11.373  1.00  0.00     0.167 HD
HETATM   12  C   UNL     1     -38.485 -49.685  11.526  1.00  0.00     0.183 A 
ENDROOT
BRANCH   6  13
HETATM   13  N   UNL     1     -40.897 -47.005  11.995  1.00  0.00    -0.257 NA
HETATM   14  C   UNL     1     -39.989 -45.989  12.550  1.00  0.00     0.200 C 
HETATM   15  C   UNL     1     -40.623 -44.592  12.613  1.00  0.00     0.233 C 
HETATM   16  N   UNL     1     -41.454 -44.270  11.542  1.00  0.00    -0.348 N 
HETATM   17  O   UNL     1     -40.271 -43.759  13.451  1.00  0.00    -0.272 OA
HETATM   18  C   UNL     1     -42.298 -45.307  10.953  1.00  0.00     0.140 C 
HETATM   19  C   UNL     1     -41.522 -46.608  10.726  1.00  0.00     0.117 C 
BRANCH  16  20
HETATM   20  C   UNL     1     -41.689 -42.869  11.210  1.00  0.00     0.152 C 
BRANCH  20  21
HETATM   21  C   UNL     1     -43.192 -42.593  11.022  1.00  0.00     0.186 C 
BRANCH  21  22
HETATM   22  O   UNL     1     -43.668 -41.774  12.101  1.00  0.00    -0.394 OA
HETATM   23  C   UNL     1     -44.586 -40.791  11.640  1.00  0.00     0.201 C 
ENDBRANCH  21  22
ENDBRANCH  20  21
ENDBRANCH  16  20
ENDBRANCH   6  13
BRANCH   2  24
HETATM   24  C   UNL     1     -41.129 -53.009  12.602  1.00  0.00     0.147 C 
BRANCH  24  25
HETATM   25  C   UNL     1     -40.648 -53.437  13.984  1.00  0.00     0.040 C 
HETATM   26  C   UNL     1     -41.462 -54.537  14.699  1.00  0.00     0.183 C 
HETATM   27  O   UNL     1     -41.641 -53.693  15.860  1.00  0.00    -0.389 OA
HETATM   28  C   UNL     1     -41.216 -52.534  15.098  1.00  0.00     0.183 C 
BRANCH  25  29
HETATM   29  C   UNL     1     -39.152 -53.695  14.085  1.00  0.00     0.179 C 
BRANCH  29  30
HETATM   30  O   UNL     1     -38.816 -54.875  13.365  1.00  0.00    -0.400 OA
HETATM   31  H   UNL     1     -39.222 -55.626  13.844  1.00  0.00     0.209 HD
ENDBRANCH  29  30
ENDBRANCH  25  29
ENDBRANCH  24  25
ENDBRANCH   2  24
TORSDOF 8
ENDMDL
MODEL 8
REMARK VINA RESULT:      -5.5      2.710      8.496
REMARK  8 active torsions:
REMARK  status: ('A' for Active; 'I' for Inactive)
REMARK    1  A    between atoms: N_2  and  C_17 
REMARK    2  A    between atoms: C_6  and  N_7 
REMARK    3  A    between atoms: N_10  and  C_26 
REMARK    4  A    between atoms: C_16  and  C_17 
REMARK    5  A    between atoms: C_16  and  C_25 
REMARK    6  A    between atoms: C_25  and  O_27 
REMARK    7  A    between atoms: C_26  and  C_29 
REMARK    8  A    between atoms: O_28  and  C_29 
ROOT
HETATM    1  C   UNL     1     -40.311 -47.957  12.266  1.00  0.00     0.117 A 
HETATM    2  N   UNL     1     -39.875 -45.838  12.065  1.00  0.00    -0.326 N 
HETATM    3  C   UNL     1     -40.578 -46.853  11.477  1.00  0.00     0.140 A 
HETATM    4  N   UNL     1     -39.443 -47.633  13.290  1.00  0.00    -0.346 N 
ATOM      5  HN  UNL     1     -39.052 -48.258  13.994  1.00  0.00     0.167 HD
HETATM    6  C   UNL     1     -40.945 -49.166  11.917  1.00  0.00     0.115 A 
HETATM    7  C   UNL     1     -39.233 -46.345  13.159  1.00  0.00     0.185 A 
HETATM    8  N   UNL     1     -41.358 -46.788  10.381  1.00  0.00    -0.336 N 
ATOM      9  HN  UNL     1     -41.506 -45.951   9.818  1.00  0.00     0.168 HD
HETATM   10  N   UNL     1     -41.766 -49.148  10.829  1.00  0.00    -0.341 N 
ATOM     11  HN  UNL     1     -42.261 -49.993  10.541  1.00  0.00     0.167 HD
HETATM   12  C   UNL     1     -41.915 -47.997  10.136  1.00  0.00     0.183 A 
ENDROOT
BRANCH   6  13
HETATM   13  N   UNL     1     -40.771 -50.324  12.684  1.00  0.00    -0.257 NA
HETATM   14  C   UNL     1     -41.793 -51.350  12.426  1.00  0.00     0.200 C 
HETATM   15  C   UNL     1     -41.575 -52.631  13.245  1.00  0.00     0.233 C 
HETATM   16  N   UNL     1     -40.243 -53.005  13.417  1.00  0.00    -0.348 N 
HETATM   17  O   UNL     1     -42.514 -53.363  13.562  1.00  0.00    -0.272 OA
HETATM   18  C   UNL     1     -39.227 -51.972  13.599  1.00  0.00     0.140 C 
HETATM   19  C   UNL     1     -39.393 -50.829  12.593  1.00  0.00     0.117 C 
BRANCH  16  20
HETATM   20  C   UNL     1     -39.919 -54.399  13.697  1.00  0.00     0.152 C 
BRANCH  20  21
HETATM   21  C   UNL     1     -39.443 -54.571  15.150  1.00  0.00     0.186 C 
BRANCH  21  22
HETATM   22  O   UNL     1     -38.648 -55.762  15.257  1.00  0.00    -0.394 OA
HETATM   23  C   UNL     1     -37.884 -55.769  16.457  1.00  0.00     0.201 C 
ENDBRANCH  21  22
ENDBRANCH  20  21
ENDBRANCH  16  20
ENDBRANCH   6  13
BRANCH   2  24
HETATM   24  C   UNL     1     -39.828 -44.451  11.642  1.00  0.00     0.147 C 
BRANCH  24  25
HETATM   25  C   UNL     1     -40.975 -43.619  12.203  1.00  0.00     0.040 C 
HETATM   26  C   UNL     1     -40.596 -42.340  12.980  1.00  0.00     0.183 C 
HETATM   27  O   UNL     1     -41.358 -42.776  14.130  1.00  0.00    -0.389 OA
HETATM   28  C   UNL     1     -41.426 -44.120  13.591  1.00  0.00     0.183 C 
BRANCH  25  29
HETATM   29  C   UNL     1     -42.113 -43.363  11.226  1.00  0.00     0.179 C 
BRANCH  29  30
HETATM   30  O   UNL     1     -43.075 -44.406  11.322  1.00  0.00    -0.400 OA
HETATM   31  H   UNL     1     -43.241 -44.553  12.277  1.00  0.00     0.209 HD
ENDBRANCH  29  30
ENDBRANCH  25  29
ENDBRANCH  24  25
ENDBRANCH   2  24
TORSDOF 8
ENDMDL
MODEL 9
REMARK VINA RESULT:      -5.4      2.122      2.768
REMARK  8 active torsions:
REMARK  status: ('A' for Active; 'I' for Inactive)
REMARK    1  A    between atoms: N_2  and  C_17 
REMARK    2  A    between atoms: C_6  and  N_7 
REMARK    3  A    between atoms: N_10  and  C_26 
REMARK    4  A    between atoms: C_16  and  C_17 
REMARK    5  A    between atoms: C_16  and  C_25 
REMARK    6  A    between atoms: C_25  and  O_27 
REMARK    7  A    between atoms: C_26  and  C_29 
REMARK    8  A    between atoms: O_28  and  C_29 
ROOT
HETATM    1  C   UNL     1     -41.157 -50.864  13.081  1.00  0.00     0.117 A 
HETATM    2  N   UNL     1     -41.969 -52.877  13.159  1.00  0.00    -0.326 N 
HETATM    3  C   UNL     1     -40.882 -52.140  13.539  1.00  0.00     0.140 A 
HETATM    4  N   UNL     1     -42.364 -50.829  12.413  1.00  0.00    -0.346 N 
ATOM      5  HN  UNL     1     -42.793 -50.030  11.944  1.00  0.00     0.167 HD
HETATM    6  C   UNL     1     -40.210 -49.860  13.368  1.00  0.00     0.115 A 
HETATM    7  C   UNL     1     -42.840 -52.047  12.512  1.00  0.00     0.185 A 
HETATM    8  N   UNL     1     -39.794 -52.562  14.210  1.00  0.00    -0.336 N 
ATOM      9  HN  UNL     1     -39.628 -53.523  14.507  1.00  0.00     0.168 HD
HETATM   10  N   UNL     1     -39.102 -50.230  14.069  1.00  0.00    -0.341 N 
ATOM     11  HN  UNL     1     -38.392 -49.540  14.316  1.00  0.00     0.167 HD
HETATM   12  C   UNL     1     -38.954 -51.524  14.432  1.00  0.00     0.183 A 
ENDROOT
BRANCH   6  13
HETATM   13  N   UNL     1     -40.424 -48.531  12.985  1.00  0.00    -0.257 NA
HETATM   14  C   UNL     1     -40.230 -47.572  14.084  1.00  0.00     0.200 C 
HETATM   15  C   UNL     1     -40.433 -46.113  13.647  1.00  0.00     0.233 C 
HETATM   16  N   UNL     1     -39.970 -45.808  12.369  1.00  0.00    -0.348 N 
HETATM   17  O   UNL     1     -40.806 -45.247  14.440  1.00  0.00    -0.272 OA
HETATM   18  C   UNL     1     -40.104 -46.798  11.303  1.00  0.00     0.140 C 
HETATM   19  C   UNL     1     -39.674 -48.192  11.768  1.00  0.00     0.117 C 
BRANCH  16  20
HETATM   20  C   UNL     1     -39.628 -44.429  12.039  1.00  0.00     0.152 C 
BRANCH  20  21
HETATM   21  C   UNL     1     -40.080 -44.077  10.611  1.00  0.00     0.186 C 
BRANCH  21  22
HETATM   22  O   UNL     1     -41.081 -43.048  10.664  1.00  0.00    -0.394 OA
HETATM   23  C   UNL     1     -42.292 -43.532  11.229  1.00  0.00     0.201 C 
ENDBRANCH  21  22
ENDBRANCH  20  21
ENDBRANCH  16  20
ENDBRANCH   6  13
BRANCH   2  24
HETATM   24  C   UNL     1     -42.199 -54.287  13.414  1.00  0.00     0.147 C 
BRANCH  24  25
HETATM   25  C   UNL     1     -43.235 -54.532  14.505  1.00  0.00     0.040 C 
HETATM   26  C   UNL     1     -43.310 -53.494  15.644  1.00  0.00     0.183 C 
HETATM   27  O   UNL     1     -43.133 -54.528  16.640  1.00  0.00    -0.389 OA
HETATM   28  C   UNL     1     -42.695 -55.456  15.616  1.00  0.00     0.183 C 
BRANCH  25  29
HETATM   29  C   UNL     1     -44.620 -54.904  13.995  1.00  0.00     0.179 C 
BRANCH  29  30
HETATM   30  O   UNL     1     -45.562 -54.825  15.058  1.00  0.00    -0.400 OA
HETATM   31  H   UNL     1     -46.136 -55.616  14.989  1.00  0.00     0.209 HD
ENDBRANCH  29  30
ENDBRANCH  25  29
ENDBRANCH  24  25
ENDBRANCH   2  24
TORSDOF 8
ENDMDL
