MODEL 1
REMARK VINA RESULT:      -5.7      0.000      0.000
REMARK  6 active torsions:
REMARK  status: ('A' for Active; 'I' for Inactive)
REMARK    1  A    between atoms: C_5  and  C_6 
REMARK    2  A    between atoms: C_6  and  C_7 
REMARK    3  A    between atoms: C_7  and  N_8 
REMARK       I    between atoms: N_8  and  C_9 
REMARK    4  A    between atoms: C_9  and  C_11 
REMARK    5  A    between atoms: C_11  and  C_12 
REMARK    6  A    between atoms: C_12  and  N_17 
ROOT
HETATM    1  N   UNL     1     -39.269 -51.482  14.032  1.00  0.00    -0.361 N 
HETATM    2  C   UNL     1     -40.169 -52.445  13.627  1.00  0.00     0.220 C 
HETATM    3  O   UNL     1     -40.074 -53.011  12.542  1.00  0.00    -0.274 OA
HETATM    4  H   UNL     1     -39.380 -51.041  14.935  1.00  0.00     0.162 HD
ENDROOT
BRANCH   2   5
HETATM    5  C   UNL     1     -41.280 -52.743  14.626  1.00  0.00     0.133 C 
BRANCH   5   6
HETATM    6  C   UNL     1     -42.592 -51.884  14.502  1.00  0.00     0.036 C 
HETATM    7  C   UNL     1     -42.835 -51.384  13.053  1.00  0.00     0.031 C 
HETATM    8  C   UNL     1     -43.409 -49.972  13.129  1.00  0.00     0.002 C 
HETATM    9  C   UNL     1     -43.198 -49.470  14.549  1.00  0.00     0.002 C 
HETATM   10  C   UNL     1     -42.351 -50.528  15.238  1.00  0.00     0.031 C 
BRANCH   6  11
HETATM   11  N   UNL     1     -43.734 -52.636  15.127  1.00  0.00    -0.399 N 
HETATM   12  C   UNL     1     -43.409 -53.796  15.992  1.00  0.00     0.144 C 
HETATM   13  C   UNL     1     -43.247 -55.134  15.249  1.00  0.00     0.187 C 
HETATM   14  O   UNL     1     -44.414 -55.450  14.479  1.00  0.00    -0.388 OA
HETATM   15  C   UNL     1     -44.741 -54.389  13.574  1.00  0.00     0.187 C 
HETATM   16  C   UNL     1     -44.895 -53.044  14.309  1.00  0.00     0.144 C 
ENDBRANCH   6  11
ENDBRANCH   5   6
ENDBRANCH   2   5
BRANCH   1  17
HETATM   17  C   UNL     1     -38.183 -51.041  13.168  1.00  0.00     0.127 C 
BRANCH  17  18
HETATM   18  C   UNL     1     -38.177 -49.521  12.975  1.00  0.00     0.059 C 
BRANCH  18  19
HETATM   19  C   UNL     1     -39.363 -49.035  12.186  1.00  0.00    -0.041 A 
HETATM   20  C   UNL     1     -39.998 -47.833  12.502  1.00  0.00     0.010 A 
HETATM   21  C   UNL     1     -41.084 -47.401  11.744  1.00  0.00     0.025 A 
HETATM   22  C   UNL     1     -41.523 -48.190  10.687  1.00  0.00     0.005 A 
HETATM   23  C   UNL     1     -42.662 -47.749   9.817  1.00  0.00     0.068 C 
HETATM   24  N   UNL     1     -40.935 -49.369  10.371  1.00  0.00    -0.369 N 
HETATM   25  C   UNL     1     -39.878 -49.761  11.120  1.00  0.00     0.095 A 
ATOM     26  HN  UNL     1     -41.276 -49.938   9.597  1.00  0.00     0.165 HD
ENDBRANCH  18  19
ENDBRANCH  17  18
ENDBRANCH   1  17
TORSDOF 6
ENDMDL
MODEL 2
REMARK VINA RESULT:      -5.6      2.184      6.546
REMARK  6 active torsions:
REMARK  status: ('A' for Active; 'I' for Inactive)
REMARK    1  A    between atoms: C_5  and  C_6 
REMARK    2  A    between atoms: C_6  and  C_7 
REMARK    3  A    between atoms: C_7  and  N_8 
REMARK       I    between atoms: N_8  and  C_9 
REMARK    4  A    between atoms: C_9  and  C_11 
REMARK    5  A    between atoms: C_11  and  C_12 
REMARK    6  A    between atoms: C_12  and  N_17 
ROOT
HETATM    1  N   UNL     1     -43.139 -52.722  11.925  1.00  0.00    -0.361 N 
HETATM    2  C   UNL     1     -42.052 -52.366  12.694  1.00  0.00     0.220 C 
HETATM    3  O   UNL     1     -41.919 -52.751  13.852  1.00  0.00    -0.274 OA
HETATM    4  H   UNL     1     -43.211 -52.386  10.974  1.00  0.00     0.162 HD
ENDROOT
BRANCH   2   5
HETATM    5  C   UNL     1     -41.042 -51.464  11.996  1.00  0.00     0.133 C 
BRANCH   5   6
HETATM    6  C   UNL     1     -41.115 -49.928  12.329  1.00  0.00     0.036 C 
HETATM    7  C   UNL     1     -42.441 -49.542  13.037  1.00  0.00     0.031 C 
HETATM    8  C   UNL     1     -42.876 -48.175  12.514  1.00  0.00     0.002 C 
HETATM    9  C   UNL     1     -42.054 -47.881  11.269  1.00  0.00     0.002 C 
HETATM   10  C   UNL     1     -41.271 -49.152  10.983  1.00  0.00     0.031 C 
BRANCH   6  11
HETATM   11  N   UNL     1     -39.858 -49.518  13.042  1.00  0.00    -0.399 N 
HETATM   12  C   UNL     1     -38.713 -49.057  12.219  1.00  0.00     0.144 C 
HETATM   13  C   UNL     1     -37.781 -50.175  11.720  1.00  0.00     0.187 C 
HETATM   14  O   UNL     1     -37.276 -50.960  12.807  1.00  0.00    -0.388 OA
HETATM   15  C   UNL     1     -38.341 -51.488  13.605  1.00  0.00     0.187 C 
HETATM   16  C   UNL     1     -39.285 -50.375  14.099  1.00  0.00     0.144 C 
ENDBRANCH   6  11
ENDBRANCH   5   6
ENDBRANCH   2   5
BRANCH   1  17
HETATM   17  C   UNL     1     -44.223 -53.531  12.464  1.00  0.00     0.127 C 
BRANCH  17  18
HETATM   18  C   UNL     1     -45.528 -52.739  12.597  1.00  0.00     0.059 C 
BRANCH  18  19
HETATM   19  C   UNL     1     -45.937 -52.538  14.032  1.00  0.00    -0.041 A 
HETATM   20  C   UNL     1     -46.731 -51.456  14.412  1.00  0.00     0.010 A 
HETATM   21  C   UNL     1     -47.107 -51.305  15.745  1.00  0.00     0.025 A 
HETATM   22  C   UNL     1     -46.668 -52.238  16.677  1.00  0.00     0.005 A 
HETATM   23  C   UNL     1     -47.079 -52.142  18.116  1.00  0.00     0.068 C 
HETATM   24  N   UNL     1     -45.883 -53.288  16.336  1.00  0.00    -0.369 N 
HETATM   25  C   UNL     1     -45.537 -53.413  15.034  1.00  0.00     0.095 A 
ATOM     26  HN  UNL     1     -45.563 -53.958  17.035  1.00  0.00     0.165 HD
ENDBRANCH  18  19
ENDBRANCH  17  18
ENDBRANCH   1  17
TORSDOF 6
ENDMDL
MODEL 3
REMARK VINA RESULT:      -5.6      2.357      6.675
REMARK  6 active torsions:
REMARK  status: ('A' for Active; 'I' for Inactive)
REMARK    1  A    between atoms: C_5  and  C_6 
REMARK    2  A    between atoms: C_6  and  C_7 
REMARK    3  A    between atoms: C_7  and  N_8 
REMARK       I    between atoms: N_8  and  C_9 
REMARK    4  A    between atoms: C_9  and  C_11 
REMARK    5  A    between atoms: C_11  and  C_12 
REMARK    6  A    between atoms: C_12  and  N_17 
ROOT
HETATM    1  N   UNL     1     -42.369 -52.096  12.225  1.00  0.00    -0.361 N 
HETATM    2  C   UNL     1     -41.028 -51.848  12.027  1.00  0.00     0.220 C 
HETATM    3  O   UNL     1     -40.163 -52.672  12.308  1.00  0.00    -0.274 OA
HETATM    4  H   UNL     1     -43.051 -51.392  11.978  1.00  0.00     0.162 HD
ENDROOT
BRANCH   2   5
HETATM    5  C   UNL     1     -40.711 -50.478  11.440  1.00  0.00     0.133 C 
BRANCH   5   6
HETATM    6  C   UNL     1     -40.140 -49.397  12.430  1.00  0.00     0.036 C 
HETATM    7  C   UNL     1     -38.664 -49.034  12.119  1.00  0.00     0.031 C 
HETATM    8  C   UNL     1     -37.939 -48.821  13.445  1.00  0.00     0.002 C 
HETATM    9  C   UNL     1     -38.827 -49.381  14.545  1.00  0.00     0.002 C 
HETATM   10  C   UNL     1     -39.983 -50.066  13.833  1.00  0.00     0.031 C 
BRANCH   6  11
HETATM   11  N   UNL     1     -41.093 -48.236  12.495  1.00  0.00    -0.399 N 
HETATM   12  C   UNL     1     -42.346 -48.323  11.706  1.00  0.00     0.144 C 
HETATM   13  C   UNL     1     -42.231 -47.839  10.250  1.00  0.00     0.187 C 
HETATM   14  O   UNL     1     -41.740 -46.495  10.181  1.00  0.00    -0.388 OA
HETATM   15  C   UNL     1     -40.492 -46.363  10.873  1.00  0.00     0.187 C 
HETATM   16  C   UNL     1     -40.597 -46.854  12.330  1.00  0.00     0.144 C 
ENDBRANCH   6  11
ENDBRANCH   5   6
ENDBRANCH   2   5
BRANCH   1  17
HETATM   17  C   UNL     1     -42.834 -53.335  12.833  1.00  0.00     0.127 C 
BRANCH  17  18
HETATM   18  C   UNL     1     -44.318 -53.596  12.555  1.00  0.00     0.059 C 
BRANCH  18  19
HETATM   19  C   UNL     1     -45.216 -52.985  13.596  1.00  0.00    -0.041 A 
HETATM   20  C   UNL     1     -45.946 -51.825  13.330  1.00  0.00     0.010 A 
HETATM   21  C   UNL     1     -46.781 -51.291  14.309  1.00  0.00     0.025 A 
HETATM   22  C   UNL     1     -46.860 -51.923  15.544  1.00  0.00     0.005 A 
HETATM   23  C   UNL     1     -47.775 -51.409  16.616  1.00  0.00     0.068 C 
HETATM   24  N   UNL     1     -46.148 -53.039  15.834  1.00  0.00    -0.369 N 
HETATM   25  C   UNL     1     -45.350 -53.540  14.863  1.00  0.00     0.095 A 
ATOM     26  HN  UNL     1     -46.212 -53.484  16.749  1.00  0.00     0.165 HD
ENDBRANCH  18  19
ENDBRANCH  17  18
ENDBRANCH   1  17
TORSDOF 6
ENDMDL
MODEL 4
REMARK VINA RESULT:      -5.6      2.302      6.653
REMARK  6 active torsions:
REMARK  status: ('A' for Active; 'I' for Inactive)
REMARK    1  A    between atoms: C_5  and  C_6 
REMARK    2  A    between atoms: C_6  and  C_7 
REMARK    3  A    between atoms: C_7  and  N_8 
REMARK       I    between atoms: N_8  and  C_9 
REMARK    4  A    between atoms: C_9  and  C_11 
REMARK    5  A    between atoms: C_11  and  C_12 
REMARK    6  A    between atoms: C_12  and  N_17 
ROOT
HETATM    1  N   UNL     1     -44.955 -52.065  12.496  1.00  0.00    -0.361 N 
HETATM    2  C   UNL     1     -44.169 -53.192  12.389  1.00  0.00     0.220 C 
HETATM    3  O   UNL     1     -44.641 -54.323  12.442  1.00  0.00    -0.274 OA
HETATM    4  H   UNL     1     -44.529 -51.149  12.444  1.00  0.00     0.162 HD
ENDROOT
BRANCH   2   5
HETATM    5  C   UNL     1     -42.682 -52.919  12.203  1.00  0.00     0.133 C 
BRANCH   5   6
HETATM    6  C   UNL     1     -41.802 -52.873  13.506  1.00  0.00     0.036 C 
HETATM    7  C   UNL     1     -40.692 -53.958  13.507  1.00  0.00     0.031 C 
HETATM    8  C   UNL     1     -40.549 -54.489  14.931  1.00  0.00     0.002 C 
HETATM    9  C   UNL     1     -41.763 -54.018  15.716  1.00  0.00     0.002 C 
HETATM   10  C   UNL     1     -42.684 -53.362  14.699  1.00  0.00     0.031 C 
BRANCH   6  11
HETATM   11  N   UNL     1     -41.329 -51.464  13.733  1.00  0.00    -0.399 N 
HETATM   12  C   UNL     1     -41.633 -50.455  12.689  1.00  0.00     0.144 C 
HETATM   13  C   UNL     1     -40.599 -50.365  11.553  1.00  0.00     0.187 C 
HETATM   14  O   UNL     1     -39.283 -50.116  12.061  1.00  0.00    -0.388 OA
HETATM   15  C   UNL     1     -38.906 -51.100  13.031  1.00  0.00     0.187 C 
HETATM   16  C   UNL     1     -39.942 -51.203  14.167  1.00  0.00     0.144 C 
ENDBRANCH   6  11
ENDBRANCH   5   6
ENDBRANCH   2   5
BRANCH   1  17
HETATM   17  C   UNL     1     -46.388 -52.154  12.735  1.00  0.00     0.127 C 
BRANCH  17  18
HETATM   18  C   UNL     1     -46.815 -51.392  13.995  1.00  0.00     0.059 C 
BRANCH  18  19
HETATM   19  C   UNL     1     -46.190 -51.950  15.245  1.00  0.00    -0.041 A 
HETATM   20  C   UNL     1     -45.445 -51.140  16.104  1.00  0.00     0.010 A 
HETATM   21  C   UNL     1     -44.891 -51.681  17.262  1.00  0.00     0.025 A 
HETATM   22  C   UNL     1     -45.085 -53.030  17.534  1.00  0.00     0.005 A 
HETATM   23  C   UNL     1     -44.544 -53.649  18.788  1.00  0.00     0.068 C 
HETATM   24  N   UNL     1     -45.789 -53.841  16.708  1.00  0.00    -0.369 N 
HETATM   25  C   UNL     1     -46.321 -53.289  15.593  1.00  0.00     0.095 A 
ATOM     26  HN  UNL     1     -45.914 -54.831  16.919  1.00  0.00     0.165 HD
ENDBRANCH  18  19
ENDBRANCH  17  18
ENDBRANCH   1  17
TORSDOF 6
ENDMDL
MODEL 5
REMARK VINA RESULT:      -5.5      2.456      6.736
REMARK  6 active torsions:
REMARK  status: ('A' for Active; 'I' for Inactive)
REMARK    1  A    between atoms: C_5  and  C_6 
REMARK    2  A    between atoms: C_6  and  C_7 
REMARK    3  A    between atoms: C_7  and  N_8 
REMARK       I    between atoms: N_8  and  C_9 
REMARK    4  A    between atoms: C_9  and  C_11 
REMARK    5  A    between atoms: C_11  and  C_12 
REMARK    6  A    between atoms: C_12  and  N_17 
ROOT
HETATM    1  N   UNL     1     -42.844 -53.724  12.533  1.00  0.00    -0.361 N 
HETATM    2  C   UNL     1     -42.300 -52.460  12.604  1.00  0.00     0.220 C 
HETATM    3  O   UNL     1     -42.994 -51.459  12.748  1.00  0.00    -0.274 OA
HETATM    4  H   UNL     1     -42.238 -54.526  12.417  1.00  0.00     0.162 HD
ENDROOT
BRANCH   2   5
HETATM    5  C   UNL     1     -40.781 -52.410  12.489  1.00  0.00     0.133 C 
BRANCH   5   6
HETATM    6  C   UNL     1     -39.973 -52.292  13.834  1.00  0.00     0.036 C 
HETATM    7  C   UNL     1     -39.100 -53.546  14.108  1.00  0.00     0.031 C 
HETATM    8  C   UNL     1     -39.132 -53.826  15.608  1.00  0.00     0.002 C 
HETATM    9  C   UNL     1     -40.265 -53.003  16.201  1.00  0.00     0.002 C 
HETATM   10  C   UNL     1     -40.989 -52.384  15.015  1.00  0.00     0.031 C 
BRANCH   6  11
HETATM   11  N   UNL     1     -39.243 -50.978  13.856  1.00  0.00    -0.399 N 
HETATM   12  C   UNL     1     -39.820 -49.851  13.084  1.00  0.00     0.144 C 
HETATM   13  C   UNL     1     -39.394 -49.790  11.607  1.00  0.00     0.187 C 
HETATM   14  O   UNL     1     -37.968 -49.752  11.474  1.00  0.00    -0.388 OA
HETATM   15  C   UNL     1     -37.354 -50.857  12.148  1.00  0.00     0.187 C 
HETATM   16  C   UNL     1     -37.785 -50.931  13.625  1.00  0.00     0.144 C 
ENDBRANCH   6  11
ENDBRANCH   5   6
ENDBRANCH   2   5
BRANCH   1  17
HETATM   17  C   UNL     1     -44.283 -53.938  12.568  1.00  0.00     0.127 C 
BRANCH  17  18
HETATM   18  C   UNL     1     -44.752 -54.516  13.908  1.00  0.00     0.059 C 
BRANCH  18  19
HETATM   19  C   UNL     1     -45.570 -53.534  14.704  1.00  0.00    -0.041 A 
HETATM   20  C   UNL     1     -46.137 -52.410  14.101  1.00  0.00     0.010 A 
HETATM   21  C   UNL     1     -46.902 -51.527  14.860  1.00  0.00     0.025 A 
HETATM   22  C   UNL     1     -47.075 -51.781  16.216  1.00  0.00     0.005 A 
HETATM   23  C   UNL     1     -47.923 -50.883  17.066  1.00  0.00     0.068 C 
HETATM   24  N   UNL     1     -46.521 -52.855  16.828  1.00  0.00    -0.369 N 
HETATM   25  C   UNL     1     -45.787 -53.699  16.066  1.00  0.00     0.095 A 
ATOM     26  HN  UNL     1     -46.651 -53.020  17.826  1.00  0.00     0.165 HD
ENDBRANCH  18  19
ENDBRANCH  17  18
ENDBRANCH   1  17
TORSDOF 6
ENDMDL
MODEL 6
REMARK VINA RESULT:      -5.4      1.917      3.875
REMARK  6 active torsions:
REMARK  status: ('A' for Active; 'I' for Inactive)
REMARK    1  A    between atoms: C_5  and  C_6 
REMARK    2  A    between atoms: C_6  and  C_7 
REMARK    3  A    between atoms: C_7  and  N_8 
REMARK       I    between atoms: N_8  and  C_9 
REMARK    4  A    between atoms: C_9  and  C_11 
REMARK    5  A    between atoms: C_11  and  C_12 
REMARK    6  A    between atoms: C_12  and  N_17 
ROOT
HETATM    1  N   UNL     1     -42.540 -49.939  14.852  1.00  0.00    -0.361 N 
HETATM    2  C   UNL     1     -43.497 -50.721  15.462  1.00  0.00     0.220 C 
HETATM    3  O   UNL     1     -44.632 -50.310  15.682  1.00  0.00    -0.274 OA
HETATM    4  H   UNL     1     -41.616 -50.315  14.685  1.00  0.00     0.162 HD
ENDROOT
BRANCH   2   5
HETATM    5  C   UNL     1     -43.032 -52.122  15.838  1.00  0.00     0.133 C 
BRANCH   5   6
HETATM    6  C   UNL     1     -43.158 -53.231  14.729  1.00  0.00     0.036 C 
HETATM    7  C   UNL     1     -43.903 -52.720  13.466  1.00  0.00     0.031 C 
HETATM    8  C   UNL     1     -44.772 -53.857  12.937  1.00  0.00     0.002 C 
HETATM    9  C   UNL     1     -44.848 -54.916  14.025  1.00  0.00     0.002 C 
HETATM   10  C   UNL     1     -44.164 -54.310  15.239  1.00  0.00     0.031 C 
BRANCH   6  11
HETATM   11  N   UNL     1     -41.804 -53.835  14.481  1.00  0.00    -0.399 N 
HETATM   12  C   UNL     1     -40.623 -53.152  15.062  1.00  0.00     0.144 C 
HETATM   13  C   UNL     1     -40.022 -52.039  14.186  1.00  0.00     0.187 C 
HETATM   14  O   UNL     1     -39.674 -52.526  12.884  1.00  0.00    -0.388 OA
HETATM   15  C   UNL     1     -40.797 -53.142  12.244  1.00  0.00     0.187 C 
HETATM   16  C   UNL     1     -41.411 -54.251  13.119  1.00  0.00     0.144 C 
ENDBRANCH   6  11
ENDBRANCH   5   6
ENDBRANCH   2   5
BRANCH   1  17
HETATM   17  C   UNL     1     -42.806 -48.555  14.484  1.00  0.00     0.127 C 
BRANCH  17  18
HETATM   18  C   UNL     1     -42.590 -48.301  12.988  1.00  0.00     0.059 C 
BRANCH  18  19
HETATM   19  C   UNL     1     -41.209 -48.688  12.532  1.00  0.00    -0.041 A 
HETATM   20  C   UNL     1     -40.071 -48.198  13.174  1.00  0.00     0.010 A 
HETATM   21  C   UNL     1     -38.806 -48.587  12.739  1.00  0.00     0.025 A 
HETATM   22  C   UNL     1     -38.704 -49.452  11.656  1.00  0.00     0.005 A 
HETATM   23  C   UNL     1     -37.366 -49.930  11.176  1.00  0.00     0.068 C 
HETATM   24  N   UNL     1     -39.792 -49.927  11.004  1.00  0.00    -0.369 N 
HETATM   25  C   UNL     1     -41.008 -49.539  11.452  1.00  0.00     0.095 A 
ATOM     26  HN  UNL     1     -39.697 -50.555  10.206  1.00  0.00     0.165 HD
ENDBRANCH  18  19
ENDBRANCH  17  18
ENDBRANCH   1  17
TORSDOF 6
ENDMDL
MODEL 7
REMARK VINA RESULT:      -5.3      2.236      3.249
REMARK  6 active torsions:
REMARK  status: ('A' for Active; 'I' for Inactive)
REMARK    1  A    between atoms: C_5  and  C_6 
REMARK    2  A    between atoms: C_6  and  C_7 
REMARK    3  A    between atoms: C_7  and  N_8 
REMARK       I    between atoms: N_8  and  C_9 
REMARK    4  A    between atoms: C_9  and  C_11 
REMARK    5  A    between atoms: C_11  and  C_12 
REMARK    6  A    between atoms: C_12  and  N_17 
ROOT
HETATM    1  N   UNL     1     -43.046 -49.104  14.363  1.00  0.00    -0.361 N 
HETATM    2  C   UNL     1     -42.605 -50.295  14.897  1.00  0.00     0.220 C 
HETATM    3  O   UNL     1     -41.536 -50.386  15.492  1.00  0.00    -0.274 OA
HETATM    4  H   UNL     1     -43.935 -49.069  13.882  1.00  0.00     0.162 HD
ENDROOT
BRANCH   2   5
HETATM    5  C   UNL     1     -43.543 -51.477  14.687  1.00  0.00     0.133 C 
BRANCH   5   6
HETATM    6  C   UNL     1     -43.128 -52.524  13.589  1.00  0.00     0.036 C 
HETATM    7  C   UNL     1     -42.125 -53.578  14.130  1.00  0.00     0.031 C 
HETATM    8  C   UNL     1     -41.121 -53.888  13.022  1.00  0.00     0.002 C 
HETATM    9  C   UNL     1     -41.269 -52.811  11.959  1.00  0.00     0.002 C 
HETATM   10  C   UNL     1     -42.237 -51.791  12.538  1.00  0.00     0.031 C 
BRANCH   6  11
HETATM   11  N   UNL     1     -44.367 -53.081  12.946  1.00  0.00    -0.399 N 
HETATM   12  C   UNL     1     -45.559 -52.203  12.861  1.00  0.00     0.144 C 
HETATM   13  C   UNL     1     -46.476 -52.232  14.097  1.00  0.00     0.187 C 
HETATM   14  O   UNL     1     -46.911 -53.565  14.395  1.00  0.00    -0.388 OA
HETATM   15  C   UNL     1     -45.796 -54.451  14.553  1.00  0.00     0.187 C 
HETATM   16  C   UNL     1     -44.868 -54.419  13.324  1.00  0.00     0.144 C 
ENDBRANCH   6  11
ENDBRANCH   5   6
ENDBRANCH   2   5
BRANCH   1  17
HETATM   17  C   UNL     1     -42.239 -47.894  14.427  1.00  0.00     0.127 C 
BRANCH  17  18
HETATM   18  C   UNL     1     -41.212 -47.820  13.291  1.00  0.00     0.059 C 
BRANCH  18  19
HETATM   19  C   UNL     1     -41.858 -47.762  11.933  1.00  0.00    -0.041 A 
HETATM   20  C   UNL     1     -42.956 -46.937  11.690  1.00  0.00     0.010 A 
HETATM   21  C   UNL     1     -43.523 -46.892  10.418  1.00  0.00     0.025 A 
HETATM   22  C   UNL     1     -42.985 -47.688   9.413  1.00  0.00     0.005 A 
HETATM   23  C   UNL     1     -43.534 -47.645   8.019  1.00  0.00     0.068 C 
HETATM   24  N   UNL     1     -41.931 -48.511   9.628  1.00  0.00    -0.369 N 
HETATM   25  C   UNL     1     -41.395 -48.530  10.871  1.00  0.00     0.095 A 
ATOM     26  HN  UNL     1     -41.554 -49.094   8.881  1.00  0.00     0.165 HD
ENDBRANCH  18  19
ENDBRANCH  17  18
ENDBRANCH   1  17
TORSDOF 6
ENDMDL
MODEL 8
REMARK VINA RESULT:      -5.3      3.446      6.576
REMARK  6 active torsions:
REMARK  status: ('A' for Active; 'I' for Inactive)
REMARK    1  A    between atoms: C_5  and  C_6 
REMARK    2  A    between atoms: C_6  and  C_7 
REMARK    3  A    between atoms: C_7  and  N_8 
REMARK       I    between atoms: N_8  and  C_9 
REMARK    4  A    between atoms: C_9  and  C_11 
REMARK    5  A    between atoms: C_11  and  C_12 
REMARK    6  A    between atoms: C_12  and  N_17 
ROOT
HETATM    1  N   UNL     1     -44.727 -52.150  12.540  1.00  0.00    -0.361 N 
HETATM    2  C   UNL     1     -44.004 -53.323  12.507  1.00  0.00     0.220 C 
HETATM    3  O   UNL     1     -44.543 -54.419  12.393  1.00  0.00    -0.274 OA
HETATM    4  H   UNL     1     -44.245 -51.266  12.632  1.00  0.00     0.162 HD
ENDROOT
BRANCH   2   5
HETATM    5  C   UNL     1     -42.495 -53.147  12.626  1.00  0.00     0.133 C 
BRANCH   5   6
HETATM    6  C   UNL     1     -41.865 -53.382  14.048  1.00  0.00     0.036 C 
HETATM    7  C   UNL     1     -42.355 -54.703  14.699  1.00  0.00     0.031 C 
HETATM    8  C   UNL     1     -42.533 -54.457  16.195  1.00  0.00     0.002 C 
HETATM    9  C   UNL     1     -42.504 -52.952  16.415  1.00  0.00     0.002 C 
HETATM   10  C   UNL     1     -42.481 -52.333  15.027  1.00  0.00     0.031 C 
BRANCH   6  11
HETATM   11  N   UNL     1     -40.373 -53.219  13.959  1.00  0.00    -0.399 N 
HETATM   12  C   UNL     1     -39.545 -54.448  13.888  1.00  0.00     0.144 C 
HETATM   13  C   UNL     1     -39.158 -55.049  15.251  1.00  0.00     0.187 C 
HETATM   14  O   UNL     1     -38.484 -54.090  16.074  1.00  0.00    -0.388 OA
HETATM   15  C   UNL     1     -39.267 -52.902  16.234  1.00  0.00     0.187 C 
HETATM   16  C   UNL     1     -39.667 -52.299  14.874  1.00  0.00     0.144 C 
ENDBRANCH   6  11
ENDBRANCH   5   6
ENDBRANCH   2   5
BRANCH   1  17
HETATM   17  C   UNL     1     -46.182 -52.150  12.496  1.00  0.00     0.127 C 
BRANCH  17  18
HETATM   18  C   UNL     1     -46.798 -51.384  13.673  1.00  0.00     0.059 C 
BRANCH  18  19
HETATM   19  C   UNL     1     -46.470 -52.010  15.002  1.00  0.00    -0.041 A 
HETATM   20  C   UNL     1     -46.495 -53.394  15.175  1.00  0.00     0.010 A 
HETATM   21  C   UNL     1     -46.171 -53.945  16.414  1.00  0.00     0.025 A 
HETATM   22  C   UNL     1     -45.839 -53.095  17.462  1.00  0.00     0.005 A 
HETATM   23  C   UNL     1     -45.445 -53.641  18.801  1.00  0.00     0.068 C 
HETATM   24  N   UNL     1     -45.825 -51.747  17.324  1.00  0.00    -0.369 N 
HETATM   25  C   UNL     1     -46.137 -51.239  16.109  1.00  0.00     0.095 A 
ATOM     26  HN  UNL     1     -45.587 -51.138  18.107  1.00  0.00     0.165 HD
ENDBRANCH  18  19
ENDBRANCH  17  18
ENDBRANCH   1  17
TORSDOF 6
ENDMDL
MODEL 9
REMARK VINA RESULT:      -5.3      1.819      3.968
REMARK  6 active torsions:
REMARK  status: ('A' for Active; 'I' for Inactive)
REMARK    1  A    between atoms: C_5  and  C_6 
REMARK    2  A    between atoms: C_6  and  C_7 
REMARK    3  A    between atoms: C_7  and  N_8 
REMARK       I    between atoms: N_8  and  C_9 
REMARK    4  A    between atoms: C_9  and  C_11 
REMARK    5  A    between atoms: C_11  and  C_12 
REMARK    6  A    between atoms: C_12  and  N_17 
ROOT
HETATM    1  N   UNL     1     -42.039 -50.522  11.781  1.00  0.00    -0.361 N 
HETATM    2  C   UNL     1     -42.731 -51.146  12.796  1.00  0.00     0.220 C 
HETATM    3  O   UNL     1     -43.366 -50.517  13.636  1.00  0.00    -0.274 OA
HETATM    4  H   UNL     1     -41.529 -51.077  11.106  1.00  0.00     0.162 HD
ENDROOT
BRANCH   2   5
HETATM    5  C   UNL     1     -42.641 -52.667  12.790  1.00  0.00     0.133 C 
BRANCH   5   6
HETATM    6  C   UNL     1     -41.700 -53.325  13.865  1.00  0.00     0.036 C 
HETATM    7  C   UNL     1     -40.708 -52.304  14.484  1.00  0.00     0.031 C 
HETATM    8  C   UNL     1     -39.374 -53.013  14.703  1.00  0.00     0.002 C 
HETATM    9  C   UNL     1     -39.418 -54.317  13.922  1.00  0.00     0.002 C 
HETATM   10  C   UNL     1     -40.709 -54.274  13.120  1.00  0.00     0.031 C 
BRANCH   6  11
HETATM   11  N   UNL     1     -42.537 -54.092  14.850  1.00  0.00    -0.399 N 
HETATM   12  C   UNL     1     -43.862 -54.584  14.399  1.00  0.00     0.144 C 
HETATM   13  C   UNL     1     -45.016 -53.580  14.561  1.00  0.00     0.187 C 
HETATM   14  O   UNL     1     -45.133 -53.131  15.917  1.00  0.00    -0.388 OA
HETATM   15  C   UNL     1     -43.897 -52.583  16.390  1.00  0.00     0.187 C 
HETATM   16  C   UNL     1     -42.734 -53.579  16.221  1.00  0.00     0.144 C 
ENDBRANCH   6  11
ENDBRANCH   5   6
ENDBRANCH   2   5
BRANCH   1  17
HETATM   17  C   UNL     1     -41.976 -49.071  11.681  1.00  0.00     0.127 C 
BRANCH  17  18
HETATM   18  C   UNL     1     -40.559 -48.571  11.379  1.00  0.00     0.059 C 
BRANCH  18  19
HETATM   19  C   UNL     1     -39.562 -49.001  12.422  1.00  0.00    -0.041 A 
HETATM   20  C   UNL     1     -38.503 -49.851  12.101  1.00  0.00     0.010 A 
HETATM   21  C   UNL     1     -37.586 -50.220  13.084  1.00  0.00     0.025 A 
HETATM   22  C   UNL     1     -37.756 -49.738  14.376  1.00  0.00     0.005 A 
HETATM   23  C   UNL     1     -36.774 -50.073  15.459  1.00  0.00     0.068 C 
HETATM   24  N   UNL     1     -38.785 -48.926  14.717  1.00  0.00    -0.369 N 
HETATM   25  C   UNL     1     -39.657 -48.578  13.742  1.00  0.00     0.095 A 
ATOM     26  HN  UNL     1     -38.899 -48.589  15.673  1.00  0.00     0.165 HD
ENDBRANCH  18  19
ENDBRANCH  17  18
ENDBRANCH   1  17
TORSDOF 6
ENDMDL
