MODEL 1
REMARK VINA RESULT:      -5.7      0.000      0.000
REMARK  4 active torsions:
REMARK  status: ('A' for Active; 'I' for Inactive)
REMARK    1  A    between atoms: O_2  and  C_3 
REMARK    2  A    between atoms: C_6  and  N_7 
REMARK       I    between atoms: N_7  and  C_8 
REMARK       I    between atoms: C_8  and  N_10 
REMARK    3  A    between atoms: N_10  and  C_11 
REMARK    4  A    between atoms: C_11  and  C_12 
ROOT
HETATM    1  N   UNL     1     -42.431 -52.617  11.768  1.00  0.00    -0.308 N 
HETATM    2  C   UNL     1     -41.738 -51.480  12.108  1.00  0.00     0.320 C 
HETATM    3  O   UNL     1     -41.861 -50.852  13.154  1.00  0.00    -0.247 OA
HETATM    4  N   UNL     1     -40.879 -51.059  11.113  1.00  0.00    -0.342 N 
HETATM    5  H   UNL     1     -42.436 -52.862  10.791  1.00  0.00     0.170 HD
HETATM    6  H   UNL     1     -40.480 -51.776  10.529  1.00  0.00     0.164 HD
ENDROOT
BRANCH   1   7
HETATM    7  C   UNL     1     -43.383 -53.254  12.609  1.00  0.00     0.051 A 
HETATM    8  C   UNL     1     -43.036 -54.147  13.622  1.00  0.00     0.035 A 
HETATM    9  C   UNL     1     -44.018 -54.671  14.459  1.00  0.00     0.058 A 
HETATM   10  C   UNL     1     -45.334 -54.320  14.229  1.00  0.00     0.141 A 
HETATM   11  N   UNL     1     -45.727 -53.493  13.236  1.00  0.00    -0.345 N 
HETATM   12  C   UNL     1     -44.741 -52.982  12.454  1.00  0.00     0.119 A 
ATOM     13  HN  UNL     1     -46.709 -53.264  13.082  1.00  0.00     0.167 HD
BRANCH  10  14
HETATM   14  O   UNL     1     -46.261 -54.842  15.107  1.00  0.00    -0.341 OA
HETATM   15  C   UNL     1     -46.236 -54.197  16.373  1.00  0.00     0.211 C 
ENDBRANCH  10  14
ENDBRANCH   1   7
BRANCH   4  16
HETATM   16  C   UNL     1     -40.034 -49.932  11.443  1.00  0.00     0.129 C 
BRANCH  16  17
HETATM   17  C   UNL     1     -38.705 -50.376  11.950  1.00  0.00     0.003 A 
HETATM   18  C   UNL     1     -37.783 -49.443  12.692  1.00  0.00     0.007 A 
HETATM   19  C   UNL     1     -37.461 -49.846  11.279  1.00  0.00     0.007 A 
ENDBRANCH  16  17
ENDBRANCH   4  16
TORSDOF 4
ENDMDL
MODEL 2
REMARK VINA RESULT:      -5.5      3.968      8.224
REMARK  4 active torsions:
REMARK  status: ('A' for Active; 'I' for Inactive)
REMARK    1  A    between atoms: O_2  and  C_3 
REMARK    2  A    between atoms: C_6  and  N_7 
REMARK       I    between atoms: N_7  and  C_8 
REMARK       I    between atoms: C_8  and  N_10 
REMARK    3  A    between atoms: N_10  and  C_11 
REMARK    4  A    between atoms: C_11  and  C_12 
ROOT
HETATM    1  N   UNL     1     -42.763 -49.144  11.439  1.00  0.00    -0.308 N 
HETATM    2  C   UNL     1     -43.190 -49.419  12.717  1.00  0.00     0.320 C 
HETATM    3  O   UNL     1     -43.119 -48.657  13.675  1.00  0.00    -0.247 OA
HETATM    4  N   UNL     1     -43.692 -50.698  12.850  1.00  0.00    -0.342 N 
HETATM    5  H   UNL     1     -42.627 -49.937  10.834  1.00  0.00     0.170 HD
HETATM    6  H   UNL     1     -44.140 -51.093  12.038  1.00  0.00     0.164 HD
ENDROOT
BRANCH   1   7
HETATM    7  C   UNL     1     -42.199 -47.904  11.035  1.00  0.00     0.051 A 
HETATM    8  C   UNL     1     -42.960 -46.778  10.728  1.00  0.00     0.035 A 
HETATM    9  C   UNL     1     -42.334 -45.574  10.416  1.00  0.00     0.058 A 
HETATM   10  C   UNL     1     -40.953 -45.542  10.376  1.00  0.00     0.141 A 
HETATM   11  N   UNL     1     -40.171 -46.615  10.625  1.00  0.00    -0.345 N 
HETATM   12  C   UNL     1     -40.814 -47.766  10.948  1.00  0.00     0.119 A 
ATOM     13  HN  UNL     1     -39.153 -46.562  10.572  1.00  0.00     0.167 HD
BRANCH  10  14
HETATM   14  O   UNL     1     -40.386 -44.317  10.094  1.00  0.00    -0.341 OA
HETATM   15  C   UNL     1     -40.420 -43.432  11.205  1.00  0.00     0.211 C 
ENDBRANCH  10  14
ENDBRANCH   1   7
BRANCH   4  16
HETATM   16  C   UNL     1     -44.263 -51.021  14.140  1.00  0.00     0.129 C 
BRANCH  16  17
HETATM   17  C   UNL     1     -45.457 -51.901  14.003  1.00  0.00     0.003 A 
HETATM   18  C   UNL     1     -46.577 -51.583  13.046  1.00  0.00     0.007 A 
HETATM   19  C   UNL     1     -46.785 -51.406  14.524  1.00  0.00     0.007 A 
ENDBRANCH  16  17
ENDBRANCH   4  16
TORSDOF 4
ENDMDL
MODEL 3
REMARK VINA RESULT:      -5.5      4.724      6.952
REMARK  4 active torsions:
REMARK  status: ('A' for Active; 'I' for Inactive)
REMARK    1  A    between atoms: O_2  and  C_3 
REMARK    2  A    between atoms: C_6  and  N_7 
REMARK       I    between atoms: N_7  and  C_8 
REMARK       I    between atoms: C_8  and  N_10 
REMARK    3  A    between atoms: N_10  and  C_11 
REMARK    4  A    between atoms: C_11  and  C_12 
ROOT
HETATM    1  N   UNL     1     -41.106 -49.117  10.278  1.00  0.00    -0.308 N 
HETATM    2  C   UNL     1     -42.145 -48.229  10.426  1.00  0.00     0.320 C 
HETATM    3  O   UNL     1     -42.490 -47.697  11.476  1.00  0.00    -0.247 OA
HETATM    4  N   UNL     1     -42.828 -48.004   9.248  1.00  0.00    -0.342 N 
HETATM    5  H   UNL     1     -41.112 -49.676   9.440  1.00  0.00     0.170 HD
HETATM    6  H   UNL     1     -42.292 -48.065   8.397  1.00  0.00     0.164 HD
ENDROOT
BRANCH   1   7
HETATM    7  C   UNL     1     -40.250 -49.527  11.335  1.00  0.00     0.051 A 
HETATM    8  C   UNL     1     -39.186 -48.758  11.803  1.00  0.00     0.035 A 
HETATM    9  C   UNL     1     -38.438 -49.189  12.896  1.00  0.00     0.058 A 
HETATM   10  C   UNL     1     -38.749 -50.408  13.466  1.00  0.00     0.141 A 
HETATM   11  N   UNL     1     -39.743 -51.210  13.024  1.00  0.00    -0.345 N 
HETATM   12  C   UNL     1     -40.466 -50.748  11.972  1.00  0.00     0.119 A 
ATOM     13  HN  UNL     1     -39.938 -52.113  13.458  1.00  0.00     0.167 HD
BRANCH  10  14
HETATM   14  O   UNL     1     -37.998 -50.770  14.564  1.00  0.00    -0.341 OA
HETATM   15  C   UNL     1     -37.169 -49.714  15.030  1.00  0.00     0.211 C 
ENDBRANCH  10  14
ENDBRANCH   1   7
BRANCH   4  16
HETATM   16  C   UNL     1     -43.865 -46.996   9.302  1.00  0.00     0.129 C 
BRANCH  16  17
HETATM   17  C   UNL     1     -45.199 -47.598   9.582  1.00  0.00     0.003 A 
HETATM   18  C   UNL     1     -46.029 -48.236   8.498  1.00  0.00     0.007 A 
HETATM   19  C   UNL     1     -46.432 -46.901   9.061  1.00  0.00     0.007 A 
ENDBRANCH  16  17
ENDBRANCH   4  16
TORSDOF 4
ENDMDL
MODEL 4
REMARK VINA RESULT:      -5.3      4.050      7.343
REMARK  4 active torsions:
REMARK  status: ('A' for Active; 'I' for Inactive)
REMARK    1  A    between atoms: O_2  and  C_3 
REMARK    2  A    between atoms: C_6  and  N_7 
REMARK       I    between atoms: N_7  and  C_8 
REMARK       I    between atoms: C_8  and  N_10 
REMARK    3  A    between atoms: N_10  and  C_11 
REMARK    4  A    between atoms: C_11  and  C_12 
ROOT
HETATM    1  N   UNL     1     -41.243 -49.027  10.472  1.00  0.00    -0.308 N 
HETATM    2  C   UNL     1     -40.989 -49.754  11.611  1.00  0.00     0.320 C 
HETATM    3  O   UNL     1     -41.094 -49.342  12.762  1.00  0.00    -0.247 OA
HETATM    4  N   UNL     1     -40.546 -51.033  11.342  1.00  0.00    -0.342 N 
HETATM    5  H   UNL     1     -40.856 -49.389   9.616  1.00  0.00     0.170 HD
HETATM    6  H   UNL     1     -40.892 -51.461  10.499  1.00  0.00     0.164 HD
ENDROOT
BRANCH   1   7
HETATM    7  C   UNL     1     -41.701 -47.682  10.469  1.00  0.00     0.051 A 
HETATM    8  C   UNL     1     -40.877 -46.589  10.730  1.00  0.00     0.035 A 
HETATM    9  C   UNL     1     -41.380 -45.294  10.630  1.00  0.00     0.058 A 
HETATM   10  C   UNL     1     -42.715 -45.130  10.314  1.00  0.00     0.141 A 
HETATM   11  N   UNL     1     -43.565 -46.156  10.093  1.00  0.00    -0.345 N 
HETATM   12  C   UNL     1     -43.036 -47.404  10.175  1.00  0.00     0.119 A 
ATOM     13  HN  UNL     1     -44.550 -46.002   9.876  1.00  0.00     0.167 HD
BRANCH  10  14
HETATM   14  O   UNL     1     -43.151 -43.826  10.197  1.00  0.00    -0.341 OA
HETATM   15  C   UNL     1     -42.821 -43.037  11.331  1.00  0.00     0.211 C 
ENDBRANCH  10  14
ENDBRANCH   1   7
BRANCH   4  16
HETATM   16  C   UNL     1     -40.365 -51.893  12.492  1.00  0.00     0.129 C 
BRANCH  16  17
HETATM   17  C   UNL     1     -41.011 -53.220  12.288  1.00  0.00     0.003 A 
HETATM   18  C   UNL     1     -42.104 -53.722  13.196  1.00  0.00     0.007 A 
HETATM   19  C   UNL     1     -40.728 -54.323  13.280  1.00  0.00     0.007 A 
ENDBRANCH  16  17
ENDBRANCH   4  16
TORSDOF 4
ENDMDL
MODEL 5
REMARK VINA RESULT:      -5.2      3.518      5.032
REMARK  4 active torsions:
REMARK  status: ('A' for Active; 'I' for Inactive)
REMARK    1  A    between atoms: O_2  and  C_3 
REMARK    2  A    between atoms: C_6  and  N_7 
REMARK       I    between atoms: N_7  and  C_8 
REMARK       I    between atoms: C_8  and  N_10 
REMARK    3  A    between atoms: N_10  and  C_11 
REMARK    4  A    between atoms: C_11  and  C_12 
ROOT
HETATM    1  N   UNL     1     -40.579 -50.503  11.073  1.00  0.00    -0.308 N 
HETATM    2  C   UNL     1     -41.401 -49.411  11.223  1.00  0.00     0.320 C 
HETATM    3  O   UNL     1     -42.112 -49.178  12.195  1.00  0.00    -0.247 OA
HETATM    4  N   UNL     1     -41.392 -48.579  10.122  1.00  0.00    -0.342 N 
HETATM    5  H   UNL     1     -40.275 -50.707  10.135  1.00  0.00     0.170 HD
HETATM    6  H   UNL     1     -40.534 -48.535   9.597  1.00  0.00     0.164 HD
ENDROOT
BRANCH   1   7
HETATM    7  C   UNL     1     -40.410 -51.516  12.054  1.00  0.00     0.051 A 
HETATM    8  C   UNL     1     -39.479 -51.437  13.088  1.00  0.00     0.035 A 
HETATM    9  C   UNL     1     -39.425 -52.434  14.059  1.00  0.00     0.058 A 
HETATM   10  C   UNL     1     -40.279 -53.512  13.942  1.00  0.00     0.141 A 
HETATM   11  N   UNL     1     -41.170 -53.658  12.937  1.00  0.00    -0.345 N 
HETATM   12  C   UNL     1     -41.212 -52.656  12.021  1.00  0.00     0.119 A 
ATOM     13  HN  UNL     1     -41.778 -54.475  12.870  1.00  0.00     0.167 HD
BRANCH  10  14
HETATM   14  O   UNL     1     -40.206 -54.453  14.948  1.00  0.00    -0.341 OA
HETATM   15  C   UNL     1     -38.884 -54.934  15.149  1.00  0.00     0.211 C 
ENDBRANCH  10  14
ENDBRANCH   1   7
BRANCH   4  16
HETATM   16  C   UNL     1     -42.148 -47.352  10.253  1.00  0.00     0.129 C 
BRANCH  16  17
HETATM   17  C   UNL     1     -43.468 -47.448   9.567  1.00  0.00     0.003 A 
HETATM   18  C   UNL     1     -43.580 -47.599   8.072  1.00  0.00     0.007 A 
HETATM   19  C   UNL     1     -43.929 -46.287   8.719  1.00  0.00     0.007 A 
ENDBRANCH  16  17
ENDBRANCH   4  16
TORSDOF 4
ENDMDL
MODEL 6
REMARK VINA RESULT:      -5.0      1.746      2.076
REMARK  4 active torsions:
REMARK  status: ('A' for Active; 'I' for Inactive)
REMARK    1  A    between atoms: O_2  and  C_3 
REMARK    2  A    between atoms: C_6  and  N_7 
REMARK       I    between atoms: N_7  and  C_8 
REMARK       I    between atoms: C_8  and  N_10 
REMARK    3  A    between atoms: N_10  and  C_11 
REMARK    4  A    between atoms: C_11  and  C_12 
ROOT
HETATM    1  N   UNL     1     -42.915 -51.789  12.378  1.00  0.00    -0.308 N 
HETATM    2  C   UNL     1     -42.041 -50.729  12.336  1.00  0.00     0.320 C 
HETATM    3  O   UNL     1     -42.103 -49.721  13.033  1.00  0.00    -0.247 OA
HETATM    4  N   UNL     1     -41.064 -50.878  11.373  1.00  0.00    -0.342 N 
HETATM    5  H   UNL     1     -42.910 -52.403  11.580  1.00  0.00     0.170 HD
HETATM    6  H   UNL     1     -40.773 -51.821  11.168  1.00  0.00     0.164 HD
ENDROOT
BRANCH   1   7
HETATM    7  C   UNL     1     -44.015 -51.882  13.272  1.00  0.00     0.051 A 
HETATM    8  C   UNL     1     -45.264 -51.320  13.015  1.00  0.00     0.035 A 
HETATM    9  C   UNL     1     -46.317 -51.521  13.903  1.00  0.00     0.058 A 
HETATM   10  C   UNL     1     -46.078 -52.246  15.055  1.00  0.00     0.141 A 
HETATM   11  N   UNL     1     -44.877 -52.776  15.371  1.00  0.00    -0.345 N 
HETATM   12  C   UNL     1     -43.878 -52.580  14.472  1.00  0.00     0.119 A 
ATOM     13  HN  UNL     1     -44.728 -53.294  16.237  1.00  0.00     0.167 HD
BRANCH  10  14
HETATM   14  O   UNL     1     -47.165 -52.441  15.881  1.00  0.00    -0.341 OA
HETATM   15  C   UNL     1     -47.545 -51.258  16.570  1.00  0.00     0.211 C 
ENDBRANCH  10  14
ENDBRANCH   1   7
BRANCH   4  16
HETATM   16  C   UNL     1     -40.042 -49.853  11.346  1.00  0.00     0.129 C 
BRANCH  16  17
HETATM   17  C   UNL     1     -38.776 -50.327  11.972  1.00  0.00     0.003 A 
HETATM   18  C   UNL     1     -37.833 -49.385  12.675  1.00  0.00     0.007 A 
HETATM   19  C   UNL     1     -37.464 -49.947  11.330  1.00  0.00     0.007 A 
ENDBRANCH  16  17
ENDBRANCH   4  16
TORSDOF 4
ENDMDL
MODEL 7
REMARK VINA RESULT:      -4.8      1.815      7.010
REMARK  4 active torsions:
REMARK  status: ('A' for Active; 'I' for Inactive)
REMARK    1  A    between atoms: O_2  and  C_3 
REMARK    2  A    between atoms: C_6  and  N_7 
REMARK       I    between atoms: N_7  and  C_8 
REMARK       I    between atoms: C_8  and  N_10 
REMARK    3  A    between atoms: N_10  and  C_11 
REMARK    4  A    between atoms: C_11  and  C_12 
ROOT
HETATM    1  N   UNL     1     -41.722 -52.225  11.706  1.00  0.00    -0.308 N 
HETATM    2  C   UNL     1     -42.870 -52.323  12.455  1.00  0.00     0.320 C 
HETATM    3  O   UNL     1     -43.114 -51.693  13.479  1.00  0.00    -0.247 OA
HETATM    4  N   UNL     1     -43.754 -53.262  11.962  1.00  0.00    -0.342 N 
HETATM    5  H   UNL     1     -41.540 -52.982  11.067  1.00  0.00     0.170 HD
HETATM    6  H   UNL     1     -43.751 -53.403  10.964  1.00  0.00     0.164 HD
ENDROOT
BRANCH   1   7
HETATM    7  C   UNL     1     -40.650 -51.341  12.000  1.00  0.00     0.051 A 
HETATM    8  C   UNL     1     -40.499 -50.091  11.401  1.00  0.00     0.035 A 
HETATM    9  C   UNL     1     -39.466 -49.246  11.798  1.00  0.00     0.058 A 
HETATM   10  C   UNL     1     -38.580 -49.695  12.757  1.00  0.00     0.141 A 
HETATM   11  N   UNL     1     -38.657 -50.913  13.338  1.00  0.00    -0.345 N 
HETATM   12  C   UNL     1     -39.690 -51.702  12.944  1.00  0.00     0.119 A 
ATOM     13  HN  UNL     1     -37.978 -51.222  14.033  1.00  0.00     0.167 HD
BRANCH  10  14
HETATM   14  O   UNL     1     -37.597 -48.805  13.136  1.00  0.00    -0.341 OA
HETATM   15  C   UNL     1     -37.985 -48.003  14.242  1.00  0.00     0.211 C 
ENDBRANCH  10  14
ENDBRANCH   1   7
BRANCH   4  16
HETATM   16  C   UNL     1     -45.032 -53.342  12.635  1.00  0.00     0.129 C 
BRANCH  16  17
HETATM   17  C   UNL     1     -45.101 -54.526  13.537  1.00  0.00     0.003 A 
HETATM   18  C   UNL     1     -46.251 -54.736  14.489  1.00  0.00     0.007 A 
HETATM   19  C   UNL     1     -44.907 -54.318  15.020  1.00  0.00     0.007 A 
ENDBRANCH  16  17
ENDBRANCH   4  16
TORSDOF 4
ENDMDL
MODEL 8
REMARK VINA RESULT:      -4.8      2.469      3.279
REMARK  4 active torsions:
REMARK  status: ('A' for Active; 'I' for Inactive)
REMARK    1  A    between atoms: O_2  and  C_3 
REMARK    2  A    between atoms: C_6  and  N_7 
REMARK       I    between atoms: N_7  and  C_8 
REMARK       I    between atoms: C_8  and  N_10 
REMARK    3  A    between atoms: N_10  and  C_11 
REMARK    4  A    between atoms: C_11  and  C_12 
ROOT
HETATM    1  N   UNL     1     -41.216 -51.488  11.425  1.00  0.00    -0.308 N 
HETATM    2  C   UNL     1     -41.186 -50.159  11.771  1.00  0.00     0.320 C 
HETATM    3  O   UNL     1     -41.520 -49.693  12.856  1.00  0.00    -0.247 OA
HETATM    4  N   UNL     1     -40.766 -49.345  10.738  1.00  0.00    -0.342 N 
HETATM    5  H   UNL     1     -41.183 -51.694  10.440  1.00  0.00     0.170 HD
HETATM    6  H   UNL     1     -40.108 -49.745  10.089  1.00  0.00     0.164 HD
ENDROOT
BRANCH   1   7
HETATM    7  C   UNL     1     -41.616 -52.533  12.301  1.00  0.00     0.051 A 
HETATM    8  C   UNL     1     -40.719 -53.296  13.046  1.00  0.00     0.035 A 
HETATM    9  C   UNL     1     -41.190 -54.250  13.944  1.00  0.00     0.058 A 
HETATM   10  C   UNL     1     -42.554 -54.448  14.039  1.00  0.00     0.141 A 
HETATM   11  N   UNL     1     -43.463 -53.765  13.309  1.00  0.00    -0.345 N 
HETATM   12  C   UNL     1     -42.970 -52.826  12.461  1.00  0.00     0.119 A 
ATOM     13  HN  UNL     1     -44.464 -53.945  13.391  1.00  0.00     0.167 HD
BRANCH  10  14
HETATM   14  O   UNL     1     -42.966 -55.382  14.966  1.00  0.00    -0.341 OA
HETATM   15  C   UNL     1     -42.227 -55.309  16.178  1.00  0.00     0.211 C 
ENDBRANCH  10  14
ENDBRANCH   1   7
BRANCH   4  16
HETATM   16  C   UNL     1     -40.603 -47.945  11.063  1.00  0.00     0.129 C 
BRANCH  16  17
HETATM   17  C   UNL     1     -41.726 -47.125  10.527  1.00  0.00     0.003 A 
HETATM   18  C   UNL     1     -41.648 -45.622  10.447  1.00  0.00     0.007 A 
HETATM   19  C   UNL     1     -42.521 -46.271  11.485  1.00  0.00     0.007 A 
ENDBRANCH  16  17
ENDBRANCH   4  16
TORSDOF 4
ENDMDL
MODEL 9
REMARK VINA RESULT:      -4.8      2.887      7.273
REMARK  4 active torsions:
REMARK  status: ('A' for Active; 'I' for Inactive)
REMARK    1  A    between atoms: O_2  and  C_3 
REMARK    2  A    between atoms: C_6  and  N_7 
REMARK       I    between atoms: N_7  and  C_8 
REMARK       I    between atoms: C_8  and  N_10 
REMARK    3  A    between atoms: N_10  and  C_11 
REMARK    4  A    between atoms: C_11  and  C_12 
ROOT
HETATM    1  N   UNL     1     -40.213 -50.532  11.660  1.00  0.00    -0.308 N 
HETATM    2  C   UNL     1     -40.700 -51.170  12.776  1.00  0.00     0.320 C 
HETATM    3  O   UNL     1     -41.344 -50.644  13.678  1.00  0.00    -0.247 OA
HETATM    4  N   UNL     1     -40.355 -52.505  12.823  1.00  0.00    -0.342 N 
HETATM    5  H   UNL     1     -39.483 -51.009  11.156  1.00  0.00     0.170 HD
HETATM    6  H   UNL     1     -40.254 -52.976  11.938  1.00  0.00     0.164 HD
ENDROOT
BRANCH   1   7
HETATM    7  C   UNL     1     -40.419 -49.156  11.373  1.00  0.00     0.051 A 
HETATM    8  C   UNL     1     -39.656 -48.132  11.932  1.00  0.00     0.035 A 
HETATM    9  C   UNL     1     -39.864 -46.812  11.542  1.00  0.00     0.058 A 
HETATM   10  C   UNL     1     -40.868 -46.545  10.631  1.00  0.00     0.141 A 
HETATM   11  N   UNL     1     -41.662 -47.495  10.091  1.00  0.00    -0.345 N 
HETATM   12  C   UNL     1     -41.416 -48.774  10.476  1.00  0.00     0.119 A 
ATOM     13  HN  UNL     1     -42.405 -47.264   9.431  1.00  0.00     0.167 HD
BRANCH  10  14
HETATM   14  O   UNL     1     -41.008 -45.225  10.256  1.00  0.00    -0.341 OA
HETATM   15  C   UNL     1     -39.800 -44.490  10.389  1.00  0.00     0.211 C 
ENDBRANCH  10  14
ENDBRANCH   1   7
BRANCH   4  16
HETATM   16  C   UNL     1     -40.925 -53.267  13.913  1.00  0.00     0.129 C 
BRANCH  16  17
HETATM   17  C   UNL     1     -42.010 -54.171  13.438  1.00  0.00     0.003 A 
HETATM   18  C   UNL     1     -43.451 -53.732  13.391  1.00  0.00     0.007 A 
HETATM   19  C   UNL     1     -43.000 -54.706  14.444  1.00  0.00     0.007 A 
ENDBRANCH  16  17
ENDBRANCH   4  16
TORSDOF 4
ENDMDL
