MODEL 1
REMARK VINA RESULT:      -5.8      0.000      0.000
REMARK  4 active torsions:
REMARK  status: ('A' for Active; 'I' for Inactive)
REMARK    1  A    between atoms: O_1  and  C_2 
REMARK    2  A    between atoms: C_6  and  N_7 
REMARK       I    between atoms: N_7  and  C_8 
REMARK    3  A    between atoms: C_8  and  C_10 
REMARK    4  A    between atoms: C_10  and  C_13 
ROOT
HETATM    1  N   UNL     1     -42.297 -50.023  11.829  1.00  0.00    -0.348 N 
HETATM    2  C   UNL     1     -41.726 -48.760  11.760  1.00  0.00     0.297 C 
HETATM    3  O   UNL     1     -40.891 -48.380  12.586  1.00  0.00    -0.266 OA
HETATM    4  H   UNL     1     -42.882 -50.339  11.060  1.00  0.00     0.163 HD
ENDROOT
BRANCH   2   5
HETATM    5  C   UNL     1     -42.257 -47.850  10.626  1.00  0.00     0.364 C 
HETATM    6  F   UNL     1     -42.016 -48.417   9.397  1.00  0.00    -0.188 F 
HETATM    7  F   UNL     1     -43.627 -47.751  10.691  1.00  0.00    -0.188 F 
BRANCH   5   8
HETATM    8  C   UNL     1     -41.571 -46.495  10.775  1.00  0.00     0.091 A 
HETATM    9  C   UNL     1     -42.300 -45.398  11.240  1.00  0.00     0.032 A 
HETATM   10  C   UNL     1     -41.685 -44.149  11.287  1.00  0.00     0.003 A 
HETATM   11  C   UNL     1     -40.365 -44.024  10.874  1.00  0.00     0.017 A 
HETATM   12  C   UNL     1     -39.705 -45.159  10.432  1.00  0.00     0.088 A 
HETATM   13  N   UNL     1     -40.272 -46.382  10.373  1.00  0.00    -0.364 N 
ATOM     14  HN  UNL     1     -39.750 -47.192  10.039  1.00  0.00     0.165 HD
ENDBRANCH   5   8
ENDBRANCH   2   5
BRANCH   1  15
HETATM   15  C   UNL     1     -41.919 -50.980  12.857  1.00  0.00     0.113 C 
HETATM   16  C   UNL     1     -41.852 -52.424  12.341  1.00  0.00     0.140 C 
HETATM   17  C   UNL     1     -43.285 -52.943  12.406  1.00  0.00     0.034 C 
HETATM   18  C   UNL     1     -43.998 -52.089  13.453  1.00  0.00     0.005 C 
HETATM   19  C   UNL     1     -42.971 -51.077  13.962  1.00  0.00     0.028 C 
BRANCH  16  20
HETATM   20  O   UNL     1     -41.336 -52.500  11.020  1.00  0.00    -0.394 OA
HETATM   21  H   UNL     1     -41.238 -53.444  10.801  1.00  0.00     0.210 HD
ENDBRANCH  16  20
ENDBRANCH   1  15
TORSDOF 4
ENDMDL
MODEL 2
REMARK VINA RESULT:      -5.8      6.259      7.633
REMARK  4 active torsions:
REMARK  status: ('A' for Active; 'I' for Inactive)
REMARK    1  A    between atoms: O_1  and  C_2 
REMARK    2  A    between atoms: C_6  and  N_7 
REMARK       I    between atoms: N_7  and  C_8 
REMARK    3  A    between atoms: C_8  and  C_10 
REMARK    4  A    between atoms: C_10  and  C_13 
ROOT
HETATM    1  N   UNL     1     -42.482 -54.246  14.105  1.00  0.00    -0.348 N 
HETATM    2  C   UNL     1     -43.617 -54.886  14.584  1.00  0.00     0.297 C 
HETATM    3  O   UNL     1     -43.585 -55.594  15.595  1.00  0.00    -0.266 OA
HETATM    4  H   UNL     1     -42.580 -53.576  13.348  1.00  0.00     0.163 HD
ENDROOT
BRANCH   2   5
HETATM    5  C   UNL     1     -44.894 -54.703  13.729  1.00  0.00     0.364 C 
HETATM    6  F   UNL     1     -44.568 -54.455  12.417  1.00  0.00    -0.188 F 
HETATM    7  F   UNL     1     -45.614 -55.874  13.684  1.00  0.00    -0.188 F 
BRANCH   5   8
HETATM    8  C   UNL     1     -45.691 -53.557  14.347  1.00  0.00     0.091 A 
HETATM    9  C   UNL     1     -46.111 -52.494  13.543  1.00  0.00     0.032 A 
HETATM   10  C   UNL     1     -46.759 -51.414  14.135  1.00  0.00     0.003 A 
HETATM   11  C   UNL     1     -46.976 -51.419  15.507  1.00  0.00     0.017 A 
HETATM   12  C   UNL     1     -46.537 -52.511  16.238  1.00  0.00     0.088 A 
HETATM   13  N   UNL     1     -45.904 -53.572  15.694  1.00  0.00    -0.364 N 
ATOM     14  HN  UNL     1     -45.595 -54.356  16.270  1.00  0.00     0.165 HD
ENDBRANCH   5   8
ENDBRANCH   2   5
BRANCH   1  15
HETATM   15  C   UNL     1     -41.200 -54.348  14.785  1.00  0.00     0.113 C 
HETATM   16  C   UNL     1     -40.957 -53.210  15.785  1.00  0.00     0.140 C 
HETATM   17  C   UNL     1     -40.407 -52.054  14.955  1.00  0.00     0.034 C 
HETATM   18  C   UNL     1     -39.800 -52.682  13.703  1.00  0.00     0.005 C 
HETATM   19  C   UNL     1     -40.027 -54.190  13.819  1.00  0.00     0.028 C 
BRANCH  16  20
HETATM   20  O   UNL     1     -42.142 -52.833  16.472  1.00  0.00    -0.394 OA
HETATM   21  H   UNL     1     -42.375 -51.935  16.177  1.00  0.00     0.210 HD
ENDBRANCH  16  20
ENDBRANCH   1  15
TORSDOF 4
ENDMDL
MODEL 3
REMARK VINA RESULT:      -5.8      5.306      7.600
REMARK  4 active torsions:
REMARK  status: ('A' for Active; 'I' for Inactive)
REMARK    1  A    between atoms: O_1  and  C_2 
REMARK    2  A    between atoms: C_6  and  N_7 
REMARK       I    between atoms: N_7  and  C_8 
REMARK    3  A    between atoms: C_8  and  C_10 
REMARK    4  A    between atoms: C_10  and  C_13 
ROOT
HETATM    1  N   UNL     1     -43.064 -53.283  13.244  1.00  0.00    -0.348 N 
HETATM    2  C   UNL     1     -44.324 -53.803  12.980  1.00  0.00     0.297 C 
HETATM    3  O   UNL     1     -44.952 -53.494  11.962  1.00  0.00    -0.266 OA
HETATM    4  H   UNL     1     -42.533 -53.660  14.025  1.00  0.00     0.163 HD
ENDROOT
BRANCH   2   5
HETATM    5  C   UNL     1     -44.904 -54.732  14.073  1.00  0.00     0.364 C 
HETATM    6  F   UNL     1     -45.748 -55.664  13.518  1.00  0.00    -0.188 F 
HETATM    7  F   UNL     1     -43.904 -55.480  14.648  1.00  0.00    -0.188 F 
BRANCH   5   8
HETATM    8  C   UNL     1     -45.620 -53.844  15.087  1.00  0.00     0.091 A 
HETATM    9  C   UNL     1     -46.601 -52.949  14.652  1.00  0.00     0.032 A 
HETATM   10  C   UNL     1     -47.183 -52.084  15.575  1.00  0.00     0.003 A 
HETATM   11  C   UNL     1     -46.778 -52.131  16.902  1.00  0.00     0.017 A 
HETATM   12  C   UNL     1     -45.804 -53.050  17.260  1.00  0.00     0.088 A 
HETATM   13  N   UNL     1     -45.219 -53.900  16.390  1.00  0.00    -0.364 N 
ATOM     14  HN  UNL     1     -44.504 -54.561  16.695  1.00  0.00     0.165 HD
ENDBRANCH   5   8
ENDBRANCH   2   5
BRANCH   1  15
HETATM   15  C   UNL     1     -42.400 -52.374  12.323  1.00  0.00     0.113 C 
HETATM   16  C   UNL     1     -40.916 -52.702  12.117  1.00  0.00     0.140 C 
HETATM   17  C   UNL     1     -40.189 -52.030  13.279  1.00  0.00     0.034 C 
HETATM   18  C   UNL     1     -41.100 -50.899  13.751  1.00  0.00     0.005 C 
HETATM   19  C   UNL     1     -42.347 -50.947  12.868  1.00  0.00     0.028 C 
BRANCH  16  20
HETATM   20  O   UNL     1     -40.671 -54.100  12.096  1.00  0.00    -0.394 OA
HETATM   21  H   UNL     1     -41.511 -54.545  12.301  1.00  0.00     0.210 HD
ENDBRANCH  16  20
ENDBRANCH   1  15
TORSDOF 4
ENDMDL
MODEL 4
REMARK VINA RESULT:      -5.8      4.278      7.281
REMARK  4 active torsions:
REMARK  status: ('A' for Active; 'I' for Inactive)
REMARK    1  A    between atoms: O_1  and  C_2 
REMARK    2  A    between atoms: C_6  and  N_7 
REMARK       I    between atoms: N_7  and  C_8 
REMARK    3  A    between atoms: C_8  and  C_10 
REMARK    4  A    between atoms: C_10  and  C_13 
ROOT
HETATM    1  N   UNL     1     -39.963 -51.709  12.810  1.00  0.00    -0.348 N 
HETATM    2  C   UNL     1     -40.925 -52.265  13.643  1.00  0.00     0.297 C 
HETATM    3  O   UNL     1     -41.500 -51.595  14.506  1.00  0.00    -0.266 OA
HETATM    4  H   UNL     1     -39.609 -52.262  12.034  1.00  0.00     0.163 HD
ENDROOT
BRANCH   2   5
HETATM    5  C   UNL     1     -41.171 -53.781  13.456  1.00  0.00     0.364 C 
HETATM    6  F   UNL     1     -40.644 -54.215  12.263  1.00  0.00    -0.188 F 
HETATM    7  F   UNL     1     -40.489 -54.500  14.410  1.00  0.00    -0.188 F 
BRANCH   5   8
HETATM    8  C   UNL     1     -42.679 -54.007  13.531  1.00  0.00     0.091 A 
HETATM    9  C   UNL     1     -43.206 -54.836  14.523  1.00  0.00     0.032 A 
HETATM   10  C   UNL     1     -44.573 -55.103  14.525  1.00  0.00     0.003 A 
HETATM   11  C   UNL     1     -45.379 -54.538  13.545  1.00  0.00     0.017 A 
HETATM   12  C   UNL     1     -44.785 -53.720  12.598  1.00  0.00     0.088 A 
HETATM   13  N   UNL     1     -43.464 -53.444  12.567  1.00  0.00    -0.364 N 
ATOM     14  HN  UNL     1     -43.067 -52.837  11.850  1.00  0.00     0.165 HD
ENDBRANCH   5   8
ENDBRANCH   2   5
BRANCH   1  15
HETATM   15  C   UNL     1     -39.603 -50.302  12.886  1.00  0.00     0.113 C 
HETATM   16  C   UNL     1     -39.289 -49.686  11.516  1.00  0.00     0.140 C 
HETATM   17  C   UNL     1     -37.827 -50.029  11.245  1.00  0.00     0.034 C 
HETATM   18  C   UNL     1     -37.189 -50.274  12.611  1.00  0.00     0.005 C 
HETATM   19  C   UNL     1     -38.296 -50.087  13.649  1.00  0.00     0.028 C 
BRANCH  16  20
HETATM   20  O   UNL     1     -40.134 -50.189  10.492  1.00  0.00    -0.394 OA
HETATM   21  H   UNL     1     -39.625 -50.175   9.663  1.00  0.00     0.210 HD
ENDBRANCH  16  20
ENDBRANCH   1  15
TORSDOF 4
ENDMDL
MODEL 5
REMARK VINA RESULT:      -5.6      5.482      7.053
REMARK  4 active torsions:
REMARK  status: ('A' for Active; 'I' for Inactive)
REMARK    1  A    between atoms: O_1  and  C_2 
REMARK    2  A    between atoms: C_6  and  N_7 
REMARK       I    between atoms: N_7  and  C_8 
REMARK    3  A    between atoms: C_8  and  C_10 
REMARK    4  A    between atoms: C_10  and  C_13 
ROOT
HETATM    1  N   UNL     1     -43.266 -52.680  12.888  1.00  0.00    -0.348 N 
HETATM    2  C   UNL     1     -44.557 -53.173  12.757  1.00  0.00     0.297 C 
HETATM    3  O   UNL     1     -44.774 -54.339  12.413  1.00  0.00    -0.266 OA
HETATM    4  H   UNL     1     -43.134 -51.757  13.293  1.00  0.00     0.163 HD
ENDROOT
BRANCH   2   5
HETATM    5  C   UNL     1     -45.690 -52.148  13.003  1.00  0.00     0.364 C 
HETATM    6  F   UNL     1     -45.263 -50.874  12.711  1.00  0.00    -0.188 F 
HETATM    7  F   UNL     1     -46.732 -52.364  12.132  1.00  0.00    -0.188 F 
BRANCH   5   8
HETATM    8  C   UNL     1     -46.116 -52.287  14.461  1.00  0.00     0.091 A 
HETATM    9  C   UNL     1     -46.983 -51.346  15.022  1.00  0.00     0.032 A 
HETATM   10  C   UNL     1     -47.294 -51.436  16.377  1.00  0.00     0.003 A 
HETATM   11  C   UNL     1     -46.738 -52.456  17.137  1.00  0.00     0.017 A 
HETATM   12  C   UNL     1     -45.892 -53.356  16.509  1.00  0.00     0.088 A 
HETATM   13  N   UNL     1     -45.569 -53.296  15.200  1.00  0.00    -0.364 N 
ATOM     14  HN  UNL     1     -44.940 -53.979  14.778  1.00  0.00     0.165 HD
ENDBRANCH   5   8
ENDBRANCH   2   5
BRANCH   1  15
HETATM   15  C   UNL     1     -42.098 -53.516  12.661  1.00  0.00     0.113 C 
HETATM   16  C   UNL     1     -41.621 -54.240  13.927  1.00  0.00     0.140 C 
HETATM   17  C   UNL     1     -40.737 -53.233  14.658  1.00  0.00     0.034 C 
HETATM   18  C   UNL     1     -40.248 -52.250  13.597  1.00  0.00     0.005 C 
HETATM   19  C   UNL     1     -40.872 -52.692  12.273  1.00  0.00     0.028 C 
BRANCH  16  20
HETATM   20  O   UNL     1     -42.700 -54.667  14.744  1.00  0.00    -0.394 OA
HETATM   21  H   UNL     1     -42.458 -55.533  15.117  1.00  0.00     0.210 HD
ENDBRANCH  16  20
ENDBRANCH   1  15
TORSDOF 4
ENDMDL
MODEL 6
REMARK VINA RESULT:      -5.4      6.629      7.990
REMARK  4 active torsions:
REMARK  status: ('A' for Active; 'I' for Inactive)
REMARK    1  A    between atoms: O_1  and  C_2 
REMARK    2  A    between atoms: C_6  and  N_7 
REMARK       I    between atoms: N_7  and  C_8 
REMARK    3  A    between atoms: C_8  and  C_10 
REMARK    4  A    between atoms: C_10  and  C_13 
ROOT
HETATM    1  N   UNL     1     -44.058 -53.312  14.575  1.00  0.00    -0.348 N 
HETATM    2  C   UNL     1     -43.155 -54.366  14.552  1.00  0.00     0.297 C 
HETATM    3  O   UNL     1     -43.461 -55.491  14.960  1.00  0.00    -0.266 OA
HETATM    4  H   UNL     1     -43.805 -52.441  14.116  1.00  0.00     0.163 HD
ENDROOT
BRANCH   2   5
HETATM    5  C   UNL     1     -41.734 -54.015  14.050  1.00  0.00     0.364 C 
HETATM    6  F   UNL     1     -41.491 -54.605  12.832  1.00  0.00    -0.188 F 
HETATM    7  F   UNL     1     -41.631 -52.667  13.801  1.00  0.00    -0.188 F 
BRANCH   5   8
HETATM    8  C   UNL     1     -40.749 -54.483  15.117  1.00  0.00     0.091 A 
HETATM    9  C   UNL     1     -39.443 -54.820  14.754  1.00  0.00     0.032 A 
HETATM   10  C   UNL     1     -38.581 -55.330  15.722  1.00  0.00     0.003 A 
HETATM   11  C   UNL     1     -39.038 -55.488  17.024  1.00  0.00     0.017 A 
HETATM   12  C   UNL     1     -40.344 -55.126  17.311  1.00  0.00     0.088 A 
HETATM   13  N   UNL     1     -41.204 -54.632  16.395  1.00  0.00    -0.364 N 
ATOM     14  HN  UNL     1     -42.159 -54.379  16.649  1.00  0.00     0.165 HD
ENDBRANCH   5   8
ENDBRANCH   2   5
BRANCH   1  15
HETATM   15  C   UNL     1     -45.423 -53.481  15.047  1.00  0.00     0.113 C 
HETATM   16  C   UNL     1     -46.475 -53.077  14.005  1.00  0.00     0.140 C 
HETATM   17  C   UNL     1     -46.629 -51.566  14.152  1.00  0.00     0.034 C 
HETATM   18  C   UNL     1     -46.172 -51.229  15.569  1.00  0.00     0.005 C 
HETATM   19  C   UNL     1     -45.743 -52.548  16.214  1.00  0.00     0.028 C 
BRANCH  16  20
HETATM   20  O   UNL     1     -46.090 -53.430  12.685  1.00  0.00    -0.394 OA
HETATM   21  H   UNL     1     -46.848 -53.247  12.103  1.00  0.00     0.210 HD
ENDBRANCH  16  20
ENDBRANCH   1  15
TORSDOF 4
ENDMDL
MODEL 7
REMARK VINA RESULT:      -5.4      6.252      7.137
REMARK  4 active torsions:
REMARK  status: ('A' for Active; 'I' for Inactive)
REMARK    1  A    between atoms: O_1  and  C_2 
REMARK    2  A    between atoms: C_6  and  N_7 
REMARK       I    between atoms: N_7  and  C_8 
REMARK    3  A    between atoms: C_8  and  C_10 
REMARK    4  A    between atoms: C_10  and  C_13 
ROOT
HETATM    1  N   UNL     1     -41.826 -53.814  14.715  1.00  0.00    -0.348 N 
HETATM    2  C   UNL     1     -42.673 -53.420  13.687  1.00  0.00     0.297 C 
HETATM    3  O   UNL     1     -42.374 -52.502  12.917  1.00  0.00    -0.266 OA
HETATM    4  H   UNL     1     -42.055 -54.652  15.243  1.00  0.00     0.163 HD
ENDROOT
BRANCH   2   5
HETATM    5  C   UNL     1     -44.031 -54.159  13.622  1.00  0.00     0.364 C 
HETATM    6  F   UNL     1     -44.314 -54.540  12.332  1.00  0.00    -0.188 F 
HETATM    7  F   UNL     1     -43.967 -55.343  14.319  1.00  0.00    -0.188 F 
BRANCH   5   8
HETATM    8  C   UNL     1     -45.088 -53.213  14.184  1.00  0.00     0.091 A 
HETATM    9  C   UNL     1     -45.795 -52.374  13.319  1.00  0.00     0.032 A 
HETATM   10  C   UNL     1     -46.694 -51.454  13.854  1.00  0.00     0.003 A 
HETATM   11  C   UNL     1     -46.867 -51.393  15.231  1.00  0.00     0.017 A 
HETATM   12  C   UNL     1     -46.135 -52.262  16.024  1.00  0.00     0.088 A 
HETATM   13  N   UNL     1     -45.256 -53.163  15.537  1.00  0.00    -0.364 N 
ATOM     14  HN  UNL     1     -44.736 -53.783  16.158  1.00  0.00     0.165 HD
ENDBRANCH   5   8
ENDBRANCH   2   5
BRANCH   1  15
HETATM   15  C   UNL     1     -40.528 -53.192  14.921  1.00  0.00     0.113 C 
HETATM   16  C   UNL     1     -39.392 -53.910  14.181  1.00  0.00     0.140 C 
HETATM   17  C   UNL     1     -38.972 -55.054  15.100  1.00  0.00     0.034 C 
HETATM   18  C   UNL     1     -39.399 -54.645  16.508  1.00  0.00     0.005 C 
HETATM   19  C   UNL     1     -40.077 -53.280  16.378  1.00  0.00     0.028 C 
BRANCH  16  20
HETATM   20  O   UNL     1     -39.798 -54.394  12.909  1.00  0.00    -0.394 OA
HETATM   21  H   UNL     1     -40.479 -53.786  12.571  1.00  0.00     0.210 HD
ENDBRANCH  16  20
ENDBRANCH   1  15
TORSDOF 4
ENDMDL
MODEL 8
REMARK VINA RESULT:      -5.3      5.425      6.631
REMARK  4 active torsions:
REMARK  status: ('A' for Active; 'I' for Inactive)
REMARK    1  A    between atoms: O_1  and  C_2 
REMARK    2  A    between atoms: C_6  and  N_7 
REMARK       I    between atoms: N_7  and  C_8 
REMARK    3  A    between atoms: C_8  and  C_10 
REMARK    4  A    between atoms: C_10  and  C_13 
ROOT
HETATM    1  N   UNL     1     -44.386 -53.368  14.602  1.00  0.00    -0.348 N 
HETATM    2  C   UNL     1     -43.538 -54.446  14.815  1.00  0.00     0.297 C 
HETATM    3  O   UNL     1     -43.946 -55.610  14.768  1.00  0.00    -0.266 OA
HETATM    4  H   UNL     1     -43.985 -52.437  14.525  1.00  0.00     0.163 HD
ENDROOT
BRANCH   2   5
HETATM    5  C   UNL     1     -42.078 -54.083  15.178  1.00  0.00     0.364 C 
HETATM    6  F   UNL     1     -42.017 -53.511  16.427  1.00  0.00    -0.188 F 
HETATM    7  F   UNL     1     -41.313 -55.221  15.289  1.00  0.00    -0.188 F 
BRANCH   5   8
HETATM    8  C   UNL     1     -41.563 -53.142  14.093  1.00  0.00     0.091 A 
HETATM    9  C   UNL     1     -41.105 -51.869  14.441  1.00  0.00     0.032 A 
HETATM   10  C   UNL     1     -40.720 -50.990  13.431  1.00  0.00     0.003 A 
HETATM   11  C   UNL     1     -40.799 -51.398  12.106  1.00  0.00     0.017 A 
HETATM   12  C   UNL     1     -41.257 -52.678  11.839  1.00  0.00     0.088 A 
HETATM   13  N   UNL     1     -41.639 -53.553  12.794  1.00  0.00    -0.364 N 
ATOM     14  HN  UNL     1     -41.973 -54.487  12.553  1.00  0.00     0.165 HD
ENDBRANCH   5   8
ENDBRANCH   2   5
BRANCH   1  15
HETATM   15  C   UNL     1     -45.792 -53.550  14.279  1.00  0.00     0.113 C 
HETATM   16  C   UNL     1     -46.207 -52.853  12.976  1.00  0.00     0.140 C 
HETATM   17  C   UNL     1     -46.501 -51.408  13.368  1.00  0.00     0.034 C 
HETATM   18  C   UNL     1     -46.832 -51.431  14.858  1.00  0.00     0.005 C 
HETATM   19  C   UNL     1     -46.706 -52.887  15.310  1.00  0.00     0.028 C 
BRANCH  16  20
HETATM   20  O   UNL     1     -45.195 -52.922  11.983  1.00  0.00    -0.394 OA
HETATM   21  H   UNL     1     -44.575 -52.191  12.149  1.00  0.00     0.210 HD
ENDBRANCH  16  20
ENDBRANCH   1  15
TORSDOF 4
ENDMDL
MODEL 9
REMARK VINA RESULT:      -5.3      2.238      2.987
REMARK  4 active torsions:
REMARK  status: ('A' for Active; 'I' for Inactive)
REMARK    1  A    between atoms: O_1  and  C_2 
REMARK    2  A    between atoms: C_6  and  N_7 
REMARK       I    between atoms: N_7  and  C_8 
REMARK    3  A    between atoms: C_8  and  C_10 
REMARK    4  A    between atoms: C_10  and  C_13 
ROOT
HETATM    1  N   UNL     1     -43.054 -51.516  12.826  1.00  0.00    -0.348 N 
HETATM    2  C   UNL     1     -42.134 -50.533  12.489  1.00  0.00     0.297 C 
HETATM    3  O   UNL     1     -41.150 -50.779  11.784  1.00  0.00    -0.266 OA
HETATM    4  H   UNL     1     -43.910 -51.243  13.300  1.00  0.00     0.163 HD
ENDROOT
BRANCH   2   5
HETATM    5  C   UNL     1     -42.392 -49.139  13.109  1.00  0.00     0.364 C 
HETATM    6  F   UNL     1     -43.558 -49.140  13.836  1.00  0.00    -0.188 F 
HETATM    7  F   UNL     1     -41.418 -48.835  14.031  1.00  0.00    -0.188 F 
BRANCH   5   8
HETATM    8  C   UNL     1     -42.435 -48.135  11.960  1.00  0.00     0.091 A 
HETATM    9  C   UNL     1     -42.379 -46.766  12.235  1.00  0.00     0.032 A 
HETATM   10  C   UNL     1     -42.509 -45.860  11.186  1.00  0.00     0.003 A 
HETATM   11  C   UNL     1     -42.688 -46.336   9.893  1.00  0.00     0.017 A 
HETATM   12  C   UNL     1     -42.727 -47.707   9.698  1.00  0.00     0.088 A 
HETATM   13  N   UNL     1     -42.607 -48.610  10.693  1.00  0.00    -0.364 N 
ATOM     14  HN  UNL     1     -42.643 -49.613  10.505  1.00  0.00     0.165 HD
ENDBRANCH   5   8
ENDBRANCH   2   5
BRANCH   1  15
HETATM   15  C   UNL     1     -42.929 -52.882  12.343  1.00  0.00     0.113 C 
HETATM   16  C   UNL     1     -44.255 -53.654  12.368  1.00  0.00     0.140 C 
HETATM   17  C   UNL     1     -44.385 -54.187  13.792  1.00  0.00     0.034 C 
HETATM   18  C   UNL     1     -42.966 -54.248  14.352  1.00  0.00     0.005 C 
HETATM   19  C   UNL     1     -42.040 -53.731  13.251  1.00  0.00     0.028 C 
BRANCH  16  20
HETATM   20  O   UNL     1     -45.362 -52.835  12.021  1.00  0.00    -0.394 OA
HETATM   21  H   UNL     1     -45.031 -52.133  11.434  1.00  0.00     0.210 HD
ENDBRANCH  16  20
ENDBRANCH   1  15
TORSDOF 4
ENDMDL
