MODEL 1
REMARK VINA RESULT:      -5.0      0.000      0.000
REMARK  2 active torsions:
REMARK  status: ('A' for Active; 'I' for Inactive)
REMARK    1  A    between atoms: N_1  and  C_2 
REMARK    2  A    between atoms: C_8  and  N_9 
ROOT
HETATM    1  C   UNL     1     -43.971 -48.103   7.809  1.00  0.00     0.048 A 
HETATM    2  C   UNL     1     -45.152 -48.596   7.226  1.00  0.00     0.113 A 
HETATM    3  N   UNL     1     -46.394 -48.502   7.748  1.00  0.00    -0.373 N 
ATOM      4  HN  UNL     1     -47.221 -48.839   7.254  1.00  0.00     0.164 HD
HETATM    5  C   UNL     1     -46.467 -47.935   8.959  1.00  0.00     0.090 A 
HETATM    6  C   UNL     1     -45.360 -47.475   9.661  1.00  0.00     0.048 A 
HETATM    7  C   UNL     1     -44.065 -47.555   9.109  1.00  0.00     0.054 A 
ENDROOT
BRANCH   7   8
HETATM    8  N   UNL     1     -42.997 -47.125   9.896  1.00  0.00    -0.375 N 
HETATM    9  C   UNL     1     -42.696 -45.713  10.179  1.00  0.00     0.149 C 
HETATM   10  C   UNL     1     -41.182 -45.539  10.414  1.00  0.00     0.187 C 
HETATM   11  O   UNL     1     -40.682 -46.426  11.429  1.00  0.00    -0.388 OA
HETATM   12  C   UNL     1     -40.941 -47.790  11.059  1.00  0.00     0.187 C 
HETATM   13  C   UNL     1     -42.449 -48.044  10.915  1.00  0.00     0.149 C 
ENDBRANCH   7   8
BRANCH   1  14
HETATM   14  N   UNL     1     -42.745 -48.331   7.143  1.00  0.00    -0.300 NA
HETATM   15  H   UNL     1     -42.825 -48.280   6.132  1.00  0.00     0.124 HD
HETATM   16  H   UNL     1     -42.029 -47.702   7.485  1.00  0.00     0.124 HD
ENDBRANCH   1  14
TORSDOF 2
ENDMDL
MODEL 2
REMARK VINA RESULT:      -4.7      2.536      3.997
REMARK  2 active torsions:
REMARK  status: ('A' for Active; 'I' for Inactive)
REMARK    1  A    between atoms: N_1  and  C_2 
REMARK    2  A    between atoms: C_8  and  N_9 
ROOT
HETATM    1  C   UNL     1     -43.268 -45.774   9.691  1.00  0.00     0.048 A 
HETATM    2  C   UNL     1     -43.359 -46.966   8.950  1.00  0.00     0.113 A 
HETATM    3  N   UNL     1     -42.688 -48.111   9.201  1.00  0.00    -0.373 N 
ATOM      4  HN  UNL     1     -42.831 -48.959   8.653  1.00  0.00     0.164 HD
HETATM    5  C   UNL     1     -41.821 -48.056  10.221  1.00  0.00     0.090 A 
HETATM    6  C   UNL     1     -41.596 -46.914  10.980  1.00  0.00     0.048 A 
HETATM    7  C   UNL     1     -42.310 -45.724  10.731  1.00  0.00     0.054 A 
ENDROOT
BRANCH   7   8
HETATM    8  N   UNL     1     -41.989 -44.604  11.496  1.00  0.00    -0.375 N 
HETATM    9  C   UNL     1     -42.527 -44.340  12.840  1.00  0.00     0.149 C 
HETATM   10  C   UNL     1     -42.586 -42.820  13.090  1.00  0.00     0.187 C 
HETATM   11  O   UNL     1     -41.317 -42.182  12.867  1.00  0.00    -0.388 OA
HETATM   12  C   UNL     1     -40.882 -42.413  11.517  1.00  0.00     0.187 C 
HETATM   13  C   UNL     1     -40.706 -43.916  11.247  1.00  0.00     0.149 C 
ENDBRANCH   7   8
BRANCH   1  14
HETATM   14  N   UNL     1     -44.011 -44.652   9.258  1.00  0.00    -0.300 NA
HETATM   15  H   UNL     1     -44.108 -44.604   8.249  1.00  0.00     0.124 HD
HETATM   16  H   UNL     1     -44.915 -44.623   9.713  1.00  0.00     0.124 HD
ENDBRANCH   1  14
TORSDOF 2
ENDMDL
MODEL 3
REMARK VINA RESULT:      -4.7      6.184      7.544
REMARK  2 active torsions:
REMARK  status: ('A' for Active; 'I' for Inactive)
REMARK    1  A    between atoms: N_1  and  C_2 
REMARK    2  A    between atoms: C_8  and  N_9 
ROOT
HETATM    1  C   UNL     1     -41.326 -52.082  12.079  1.00  0.00     0.048 A 
HETATM    2  C   UNL     1     -40.895 -50.824  11.618  1.00  0.00     0.113 A 
HETATM    3  N   UNL     1     -41.411 -49.629  11.975  1.00  0.00    -0.373 N 
ATOM      4  HN  UNL     1     -41.024 -48.746  11.641  1.00  0.00     0.164 HD
HETATM    5  C   UNL     1     -42.467 -49.681  12.798  1.00  0.00     0.090 A 
HETATM    6  C   UNL     1     -43.023 -50.867  13.262  1.00  0.00     0.048 A 
HETATM    7  C   UNL     1     -42.473 -52.116  12.906  1.00  0.00     0.054 A 
ENDROOT
BRANCH   7   8
HETATM    8  N   UNL     1     -43.119 -53.263  13.363  1.00  0.00    -0.375 N 
HETATM    9  C   UNL     1     -44.188 -53.957  12.628  1.00  0.00     0.149 C 
HETATM   10  C   UNL     1     -45.130 -54.665  13.622  1.00  0.00     0.187 C 
HETATM   11  O   UNL     1     -44.421 -55.536  14.520  1.00  0.00    -0.388 OA
HETATM   12  C   UNL     1     -43.444 -54.786  15.260  1.00  0.00     0.187 C 
HETATM   13  C   UNL     1     -42.414 -54.144  14.318  1.00  0.00     0.149 C 
ENDBRANCH   7   8
BRANCH   1  14
HETATM   14  N   UNL     1     -40.699 -53.239  11.563  1.00  0.00    -0.300 NA
HETATM   15  H   UNL     1     -39.950 -53.584  12.155  1.00  0.00     0.124 HD
HETATM   16  H   UNL     1     -41.381 -53.964  11.378  1.00  0.00     0.124 HD
ENDBRANCH   1  14
TORSDOF 2
ENDMDL
MODEL 4
REMARK VINA RESULT:      -4.5      7.777      9.465
REMARK  2 active torsions:
REMARK  status: ('A' for Active; 'I' for Inactive)
REMARK    1  A    between atoms: N_1  and  C_2 
REMARK    2  A    between atoms: C_8  and  N_9 
ROOT
HETATM    1  C   UNL     1     -40.536 -54.246  13.416  1.00  0.00     0.048 A 
HETATM    2  C   UNL     1     -39.243 -54.329  13.964  1.00  0.00     0.113 A 
HETATM    3  N   UNL     1     -38.944 -54.579  15.257  1.00  0.00    -0.373 N 
ATOM      4  HN  UNL     1     -37.983 -54.673  15.586  1.00  0.00     0.164 HD
HETATM    5  C   UNL     1     -39.995 -54.695  16.078  1.00  0.00     0.090 A 
HETATM    6  C   UNL     1     -41.315 -54.562  15.663  1.00  0.00     0.048 A 
HETATM    7  C   UNL     1     -41.630 -54.321  14.310  1.00  0.00     0.054 A 
ENDROOT
BRANCH   7   8
HETATM    8  N   UNL     1     -42.972 -54.144  13.978  1.00  0.00    -0.375 N 
HETATM    9  C   UNL     1     -44.082 -54.875  14.609  1.00  0.00     0.149 C 
HETATM   10  C   UNL     1     -45.252 -55.010  13.613  1.00  0.00     0.187 C 
HETATM   11  O   UNL     1     -45.660 -53.739  13.078  1.00  0.00    -0.388 OA
HETATM   12  C   UNL     1     -44.553 -53.109  12.411  1.00  0.00     0.187 C 
HETATM   13  C   UNL     1     -43.396 -52.856  13.389  1.00  0.00     0.149 C 
ENDBRANCH   7   8
BRANCH   1  14
HETATM   14  N   UNL     1     -40.668 -53.931  12.044  1.00  0.00    -0.300 NA
HETATM   15  H   UNL     1     -39.844 -53.482  11.658  1.00  0.00     0.124 HD
HETATM   16  H   UNL     1     -40.920 -54.753  11.510  1.00  0.00     0.124 HD
ENDBRANCH   1  14
TORSDOF 2
ENDMDL
MODEL 5
REMARK VINA RESULT:      -4.5      7.197      8.599
REMARK  2 active torsions:
REMARK  status: ('A' for Active; 'I' for Inactive)
REMARK    1  A    between atoms: N_1  and  C_2 
REMARK    2  A    between atoms: C_8  and  N_9 
ROOT
HETATM    1  C   UNL     1     -43.025 -52.224  12.764  1.00  0.00     0.048 A 
HETATM    2  C   UNL     1     -41.842 -51.871  12.090  1.00  0.00     0.113 A 
HETATM    3  N   UNL     1     -40.722 -52.622  12.005  1.00  0.00    -0.373 N 
ATOM      4  HN  UNL     1     -39.910 -52.331  11.461  1.00  0.00     0.164 HD
HETATM    5  C   UNL     1     -40.752 -53.777  12.683  1.00  0.00     0.090 A 
HETATM    6  C   UNL     1     -41.839 -54.197  13.440  1.00  0.00     0.048 A 
HETATM    7  C   UNL     1     -43.015 -53.423  13.514  1.00  0.00     0.054 A 
ENDROOT
BRANCH   7   8
HETATM    8  N   UNL     1     -44.042 -53.881  14.339  1.00  0.00    -0.375 N 
HETATM    9  C   UNL     1     -45.120 -54.777  13.894  1.00  0.00     0.149 C 
HETATM   10  C   UNL     1     -46.390 -54.522  14.730  1.00  0.00     0.187 C 
HETATM   11  O   UNL     1     -46.140 -54.616  16.143  1.00  0.00    -0.388 OA
HETATM   12  C   UNL     1     -45.132 -53.667  16.528  1.00  0.00     0.187 C 
HETATM   13  C   UNL     1     -43.809 -53.944  15.797  1.00  0.00     0.149 C 
ENDBRANCH   7   8
BRANCH   1  14
HETATM   14  N   UNL     1     -44.089 -51.294  12.790  1.00  0.00    -0.300 NA
HETATM   15  H   UNL     1     -43.782 -50.334  12.672  1.00  0.00     0.124 HD
HETATM   16  H   UNL     1     -44.795 -51.538  12.106  1.00  0.00     0.124 HD
ENDBRANCH   1  14
TORSDOF 2
ENDMDL
MODEL 6
REMARK VINA RESULT:      -4.4      7.046      7.966
REMARK  2 active torsions:
REMARK  status: ('A' for Active; 'I' for Inactive)
REMARK    1  A    between atoms: N_1  and  C_2 
REMARK    2  A    between atoms: C_8  and  N_9 
ROOT
HETATM    1  C   UNL     1     -43.989 -54.677  14.289  1.00  0.00     0.048 A 
HETATM    2  C   UNL     1     -45.395 -54.662  14.239  1.00  0.00     0.113 A 
HETATM    3  N   UNL     1     -46.152 -53.869  13.451  1.00  0.00    -0.373 N 
ATOM      4  HN  UNL     1     -47.170 -53.937  13.426  1.00  0.00     0.164 HD
HETATM    5  C   UNL     1     -45.476 -52.987  12.704  1.00  0.00     0.090 A 
HETATM    6  C   UNL     1     -44.092 -52.863  12.723  1.00  0.00     0.048 A 
HETATM    7  C   UNL     1     -43.298 -53.704  13.530  1.00  0.00     0.054 A 
ENDROOT
BRANCH   7   8
HETATM    8  N   UNL     1     -41.922 -53.483  13.540  1.00  0.00    -0.375 N 
HETATM    9  C   UNL     1     -40.932 -54.419  12.987  1.00  0.00     0.149 C 
HETATM   10  C   UNL     1     -39.597 -54.277  13.745  1.00  0.00     0.187 C 
HETATM   11  O   UNL     1     -39.124 -52.919  13.765  1.00  0.00    -0.388 OA
HETATM   12  C   UNL     1     -40.102 -52.067  14.383  1.00  0.00     0.187 C 
HETATM   13  C   UNL     1     -41.424 -52.093  13.601  1.00  0.00     0.149 C 
ENDBRANCH   7   8
BRANCH   1  14
HETATM   14  N   UNL     1     -43.357 -55.543  15.211  1.00  0.00    -0.300 NA
HETATM   15  H   UNL     1     -43.843 -56.427  15.325  1.00  0.00     0.124 HD
HETATM   16  H   UNL     1     -42.388 -55.691  14.957  1.00  0.00     0.124 HD
ENDBRANCH   1  14
TORSDOF 2
ENDMDL
MODEL 7
REMARK VINA RESULT:      -4.3      6.131      7.603
REMARK  2 active torsions:
REMARK  status: ('A' for Active; 'I' for Inactive)
REMARK    1  A    between atoms: N_1  and  C_2 
REMARK    2  A    between atoms: C_8  and  N_9 
ROOT
HETATM    1  C   UNL     1     -42.121 -51.972  12.403  1.00  0.00     0.048 A 
HETATM    2  C   UNL     1     -40.814 -52.464  12.240  1.00  0.00     0.113 A 
HETATM    3  N   UNL     1     -40.368 -53.678  12.630  1.00  0.00    -0.373 N 
ATOM      4  HN  UNL     1     -39.417 -53.997  12.442  1.00  0.00     0.164 HD
HETATM    5  C   UNL     1     -41.260 -54.436  13.281  1.00  0.00     0.090 A 
HETATM    6  C   UNL     1     -42.558 -54.027  13.561  1.00  0.00     0.048 A 
HETATM    7  C   UNL     1     -43.031 -52.767  13.137  1.00  0.00     0.054 A 
ENDROOT
BRANCH   7   8
HETATM    8  N   UNL     1     -44.326 -52.404  13.504  1.00  0.00    -0.375 N 
HETATM    9  C   UNL     1     -45.517 -52.642  12.674  1.00  0.00     0.149 C 
HETATM   10  C   UNL     1     -46.581 -51.565  12.965  1.00  0.00     0.187 C 
HETATM   11  O   UNL     1     -46.892 -51.471  14.366  1.00  0.00    -0.388 OA
HETATM   12  C   UNL     1     -45.704 -51.163  15.113  1.00  0.00     0.187 C 
HETATM   13  C   UNL     1     -44.646 -52.264  14.940  1.00  0.00     0.149 C 
ENDBRANCH   7   8
BRANCH   1  14
HETATM   14  N   UNL     1     -42.403 -50.655  11.974  1.00  0.00    -0.300 NA
HETATM   15  H   UNL     1     -41.880 -49.949  12.483  1.00  0.00     0.124 HD
HETATM   16  H   UNL     1     -42.261 -50.565  10.975  1.00  0.00     0.124 HD
ENDBRANCH   1  14
TORSDOF 2
ENDMDL
MODEL 8
REMARK VINA RESULT:      -4.3      6.463      7.265
REMARK  2 active torsions:
REMARK  status: ('A' for Active; 'I' for Inactive)
REMARK    1  A    between atoms: N_1  and  C_2 
REMARK    2  A    between atoms: C_8  and  N_9 
ROOT
HETATM    1  C   UNL     1     -45.496 -53.256  13.677  1.00  0.00     0.048 A 
HETATM    2  C   UNL     1     -46.706 -53.000  14.347  1.00  0.00     0.113 A 
HETATM    3  N   UNL     1     -46.949 -51.964  15.178  1.00  0.00    -0.373 N 
ATOM      4  HN  UNL     1     -47.864 -51.806  15.600  1.00  0.00     0.164 HD
HETATM    5  C   UNL     1     -45.906 -51.157  15.411  1.00  0.00     0.090 A 
HETATM    6  C   UNL     1     -44.645 -51.350  14.859  1.00  0.00     0.048 A 
HETATM    7  C   UNL     1     -44.395 -52.421  13.976  1.00  0.00     0.054 A 
ENDROOT
BRANCH   7   8
HETATM    8  N   UNL     1     -43.092 -52.584  13.508  1.00  0.00    -0.375 N 
HETATM    9  C   UNL     1     -42.362 -51.572  12.728  1.00  0.00     0.149 C 
HETATM   10  C   UNL     1     -41.341 -52.263  11.802  1.00  0.00     0.187 C 
HETATM   11  O   UNL     1     -40.464 -53.147  12.521  1.00  0.00    -0.388 OA
HETATM   12  C   UNL     1     -41.231 -54.154  13.200  1.00  0.00     0.187 C 
HETATM   13  C   UNL     1     -42.193 -53.520  14.215  1.00  0.00     0.149 C 
ENDBRANCH   7   8
BRANCH   1  14
HETATM   14  N   UNL     1     -45.401 -54.418  12.878  1.00  0.00    -0.300 NA
HETATM   15  H   UNL     1     -45.381 -55.275  13.421  1.00  0.00     0.124 HD
HETATM   16  H   UNL     1     -46.143 -54.440  12.188  1.00  0.00     0.124 HD
ENDBRANCH   1  14
TORSDOF 2
ENDMDL
MODEL 9
REMARK VINA RESULT:      -4.3      3.468      5.796
REMARK  2 active torsions:
REMARK  status: ('A' for Active; 'I' for Inactive)
REMARK    1  A    between atoms: N_1  and  C_2 
REMARK    2  A    between atoms: C_8  and  N_9 
ROOT
HETATM    1  C   UNL     1     -39.733 -49.607  11.562  1.00  0.00     0.048 A 
HETATM    2  C   UNL     1     -38.892 -50.537  12.199  1.00  0.00     0.113 A 
HETATM    3  N   UNL     1     -38.178 -50.321  13.325  1.00  0.00    -0.373 N 
ATOM      4  HN  UNL     1     -37.620 -51.052  13.766  1.00  0.00     0.164 HD
HETATM    5  C   UNL     1     -38.255 -49.081  13.825  1.00  0.00     0.090 A 
HETATM    6  C   UNL     1     -38.998 -48.061  13.243  1.00  0.00     0.048 A 
HETATM    7  C   UNL     1     -39.759 -48.290  12.078  1.00  0.00     0.054 A 
ENDROOT
BRANCH   7   8
HETATM    8  N   UNL     1     -40.433 -47.204  11.520  1.00  0.00    -0.375 N 
HETATM    9  C   UNL     1     -41.894 -47.135  11.358  1.00  0.00     0.149 C 
HETATM   10  C   UNL     1     -42.243 -46.245  10.148  1.00  0.00     0.187 C 
HETATM   11  O   UNL     1     -41.633 -44.946  10.234  1.00  0.00    -0.388 OA
HETATM   12  C   UNL     1     -40.204 -45.078  10.315  1.00  0.00     0.187 C 
HETATM   13  C   UNL     1     -39.797 -45.871  11.566  1.00  0.00     0.149 C 
ENDBRANCH   7   8
BRANCH   1  14
HETATM   14  N   UNL     1     -40.371 -49.988  10.360  1.00  0.00    -0.300 NA
HETATM   15  H   UNL     1     -39.790 -50.572   9.768  1.00  0.00     0.124 HD
HETATM   16  H   UNL     1     -41.260 -50.433  10.551  1.00  0.00     0.124 HD
ENDBRANCH   1  14
TORSDOF 2
ENDMDL
