MODEL 1
REMARK VINA RESULT:      -7.3      0.000      0.000
REMARK  5 active torsions:
REMARK  status: ('A' for Active; 'I' for Inactive)
REMARK    1  A    between atoms: C_2  and  C_3 
REMARK       I    between atoms: C_2  and  N_19 
REMARK    2  A    between atoms: C_3  and  N_4 
REMARK       I    between atoms: N_4  and  C_5 
REMARK       I    between atoms: C_5  and  N_7 
REMARK    3  A    between atoms: N_7  and  C_8 
REMARK    4  A    between atoms: C_11  and  C_16 
REMARK    5  A    between atoms: N_19  and  C_20 
ROOT
HETATM    1  N   UNL     1     -40.867 -50.908  12.010  1.00  0.00    -0.334 N 
HETATM    2  C   UNL     1     -39.919 -49.934  11.844  1.00  0.00     0.322 C 
HETATM    3  O   UNL     1     -38.745 -50.086  12.173  1.00  0.00    -0.247 OA
HETATM    4  N   UNL     1     -40.348 -48.733  11.371  1.00  0.00    -0.294 N 
HETATM    5  H   UNL     1     -41.837 -50.633  12.028  1.00  0.00     0.164 HD
HETATM    6  H   UNL     1     -39.787 -47.947  11.677  1.00  0.00     0.172 HD
ENDROOT
BRANCH   1   7
HETATM    7  C   UNL     1     -40.528 -52.252  12.448  1.00  0.00     0.227 C 
BRANCH   7   8
HETATM    8  C   UNL     1     -41.551 -53.028  13.298  1.00  0.00     0.235 C 
HETATM    9  O   UNL     1     -41.213 -54.022  13.941  1.00  0.00    -0.272 OA
HETATM   10  N   UNL     1     -42.854 -52.587  13.262  1.00  0.00    -0.355 N 
HETATM   11  H   UNL     1     -43.062 -51.780  12.698  1.00  0.00     0.162 HD
BRANCH  10  12
HETATM   12  C   UNL     1     -43.925 -53.225  14.039  1.00  0.00     0.084 C 
HETATM   13  C   UNL     1     -45.088 -53.699  13.161  1.00  0.00     0.025 C 
HETATM   14  C   UNL     1     -45.871 -52.545  12.535  1.00  0.00     0.002 C 
HETATM   15  C   UNL     1     -46.260 -51.449  13.528  1.00  0.00     0.000 C 
HETATM   16  C   UNL     1     -45.157 -51.063  14.511  1.00  0.00     0.002 C 
HETATM   17  C   UNL     1     -44.458 -52.277  15.116  1.00  0.00     0.025 C 
ENDBRANCH  10  12
ENDBRANCH   7   8
ENDBRANCH   1   7
BRANCH   4  18
HETATM   18  C   UNL     1     -41.577 -48.410  10.803  1.00  0.00     0.123 A 
HETATM   19  C   UNL     1     -42.645 -47.962  11.561  1.00  0.00     0.052 A 
HETATM   20  C   UNL     1     -43.817 -47.583  10.907  1.00  0.00     0.030 A 
HETATM   21  C   UNL     1     -43.880 -47.627   9.518  1.00  0.00     0.030 A 
HETATM   22  N   UNL     1     -42.828 -48.128   8.829  1.00  0.00    -0.303 N 
HETATM   23  N   UNL     1     -41.689 -48.555   9.474  1.00  0.00    -0.285 N 
ATOM     24  HN  UNL     1     -42.881 -48.191   7.812  1.00  0.00     0.186 HD
ATOM     25  HN  UNL     1     -40.930 -48.981   8.942  1.00  0.00     0.188 HD
BRANCH  21  26
HETATM   26  C   UNL     1     -45.084 -47.151   8.745  1.00  0.00     0.037 A 
HETATM   27  C   UNL     1     -46.435 -47.155   9.431  1.00  0.00     0.011 A 
HETATM   28  C   UNL     1     -46.174 -48.098   8.296  1.00  0.00     0.011 A 
ENDBRANCH  21  26
ENDBRANCH   4  18
TORSDOF 5
ENDMDL
MODEL 2
REMARK VINA RESULT:      -7.3      1.142      1.490
REMARK  5 active torsions:
REMARK  status: ('A' for Active; 'I' for Inactive)
REMARK    1  A    between atoms: C_2  and  C_3 
REMARK       I    between atoms: C_2  and  N_19 
REMARK    2  A    between atoms: C_3  and  N_4 
REMARK       I    between atoms: N_4  and  C_5 
REMARK       I    between atoms: C_5  and  N_7 
REMARK    3  A    between atoms: N_7  and  C_8 
REMARK    4  A    between atoms: C_11  and  C_16 
REMARK    5  A    between atoms: N_19  and  C_20 
ROOT
HETATM    1  N   UNL     1     -40.805 -52.066  12.789  1.00  0.00    -0.334 N 
HETATM    2  C   UNL     1     -39.599 -51.419  12.782  1.00  0.00     0.322 C 
HETATM    3  O   UNL     1     -38.558 -51.947  13.167  1.00  0.00    -0.247 OA
HETATM    4  N   UNL     1     -39.604 -50.111  12.408  1.00  0.00    -0.294 N 
HETATM    5  H   UNL     1     -41.646 -51.510  12.775  1.00  0.00     0.164 HD
HETATM    6  H   UNL     1     -38.865 -49.561  12.827  1.00  0.00     0.172 HD
ENDROOT
BRANCH   1   7
HETATM    7  C   UNL     1     -40.924 -53.480  13.109  1.00  0.00     0.227 C 
BRANCH   7   8
HETATM    8  C   UNL     1     -42.121 -53.943  13.959  1.00  0.00     0.235 C 
HETATM    9  O   UNL     1     -42.009 -54.880  14.750  1.00  0.00    -0.272 OA
HETATM   10  N   UNL     1     -43.319 -53.296  13.754  1.00  0.00    -0.355 N 
HETATM   11  H   UNL     1     -43.342 -52.552  13.077  1.00  0.00     0.162 HD
BRANCH  10  12
HETATM   12  C   UNL     1     -44.533 -53.627  14.511  1.00  0.00     0.084 C 
HETATM   13  C   UNL     1     -45.744 -53.870  13.602  1.00  0.00     0.025 C 
HETATM   14  C   UNL     1     -46.217 -52.605  12.889  1.00  0.00     0.002 C 
HETATM   15  C   UNL     1     -46.375 -51.394  13.811  1.00  0.00     0.000 C 
HETATM   16  C   UNL     1     -45.247 -51.217  14.824  1.00  0.00     0.002 C 
HETATM   17  C   UNL     1     -44.869 -52.523  15.516  1.00  0.00     0.025 C 
ENDBRANCH  10  12
ENDBRANCH   7   8
ENDBRANCH   1   7
BRANCH   4  18
HETATM   18  C   UNL     1     -40.625 -49.385  11.801  1.00  0.00     0.123 A 
HETATM   19  C   UNL     1     -41.544 -48.651  12.530  1.00  0.00     0.052 A 
HETATM   20  C   UNL     1     -42.487 -47.886  11.844  1.00  0.00     0.030 A 
HETATM   21  C   UNL     1     -42.465 -47.846  10.454  1.00  0.00     0.030 A 
HETATM   22  N   UNL     1     -41.583 -48.628   9.787  1.00  0.00    -0.303 N 
HETATM   23  N   UNL     1     -40.686 -49.427  10.461  1.00  0.00    -0.285 N 
ATOM     24  HN  UNL     1     -41.583 -48.625   8.767  1.00  0.00     0.186 HD
ATOM     25  HN  UNL     1     -40.068 -50.051   9.942  1.00  0.00     0.188 HD
BRANCH  21  26
HETATM   26  C   UNL     1     -43.399 -46.974   9.653  1.00  0.00     0.037 A 
HETATM   27  C   UNL     1     -44.814 -47.457   9.411  1.00  0.00     0.011 A 
HETATM   28  C   UNL     1     -43.856 -47.354   8.263  1.00  0.00     0.011 A 
ENDBRANCH  21  26
ENDBRANCH   4  18
TORSDOF 5
ENDMDL
MODEL 3
REMARK VINA RESULT:      -7.1      1.905      2.747
REMARK  5 active torsions:
REMARK  status: ('A' for Active; 'I' for Inactive)
REMARK    1  A    between atoms: C_2  and  C_3 
REMARK       I    between atoms: C_2  and  N_19 
REMARK    2  A    between atoms: C_3  and  N_4 
REMARK       I    between atoms: N_4  and  C_5 
REMARK       I    between atoms: C_5  and  N_7 
REMARK    3  A    between atoms: N_7  and  C_8 
REMARK    4  A    between atoms: C_11  and  C_16 
REMARK    5  A    between atoms: N_19  and  C_20 
ROOT
HETATM    1  N   UNL     1     -38.918 -51.211  13.380  1.00  0.00    -0.334 N 
HETATM    2  C   UNL     1     -37.960 -51.071  12.413  1.00  0.00     0.322 C 
HETATM    3  O   UNL     1     -36.941 -51.758  12.382  1.00  0.00    -0.247 OA
HETATM    4  N   UNL     1     -38.133 -50.064  11.515  1.00  0.00    -0.294 N 
HETATM    5  H   UNL     1     -39.546 -50.440  13.546  1.00  0.00     0.164 HD
HETATM    6  H   UNL     1     -37.268 -49.696  11.138  1.00  0.00     0.172 HD
ENDROOT
BRANCH   1   7
HETATM    7  C   UNL     1     -38.881 -52.286  14.358  1.00  0.00     0.227 C 
BRANCH   7   8
HETATM    8  C   UNL     1     -39.753 -53.532  14.115  1.00  0.00     0.235 C 
HETATM    9  O   UNL     1     -39.287 -54.532  13.568  1.00  0.00    -0.272 OA
HETATM   10  N   UNL     1     -41.074 -53.451  14.491  1.00  0.00    -0.355 N 
HETATM   11  H   UNL     1     -41.391 -52.595  14.915  1.00  0.00     0.162 HD
BRANCH  10  12
HETATM   12  C   UNL     1     -42.010 -54.572  14.333  1.00  0.00     0.084 C 
HETATM   13  C   UNL     1     -43.314 -54.157  13.641  1.00  0.00     0.025 C 
HETATM   14  C   UNL     1     -44.169 -53.222  14.494  1.00  0.00     0.002 C 
HETATM   15  C   UNL     1     -44.363 -53.699  15.934  1.00  0.00     0.000 C 
HETATM   16  C   UNL     1     -43.103 -54.254  16.594  1.00  0.00     0.002 C 
HETATM   17  C   UNL     1     -42.335 -55.209  15.686  1.00  0.00     0.025 C 
ENDBRANCH  10  12
ENDBRANCH   7   8
ENDBRANCH   1   7
BRANCH   4  18
HETATM   18  C   UNL     1     -39.267 -49.290  11.286  1.00  0.00     0.123 A 
HETATM   19  C   UNL     1     -39.445 -48.049  11.871  1.00  0.00     0.052 A 
HETATM   20  C   UNL     1     -40.571 -47.301  11.527  1.00  0.00     0.030 A 
HETATM   21  C   UNL     1     -41.467 -47.795  10.585  1.00  0.00     0.030 A 
HETATM   22  N   UNL     1     -41.278 -49.039  10.086  1.00  0.00    -0.303 N 
HETATM   23  N   UNL     1     -40.196 -49.803  10.465  1.00  0.00    -0.285 N 
ATOM     24  HN  UNL     1     -41.949 -49.418   9.417  1.00  0.00     0.186 HD
ATOM     25  HN  UNL     1     -40.101 -50.759  10.121  1.00  0.00     0.188 HD
BRANCH  21  26
HETATM   26  C   UNL     1     -42.657 -47.003  10.104  1.00  0.00     0.037 A 
HETATM   27  C   UNL     1     -44.046 -47.526  10.403  1.00  0.00     0.011 A 
HETATM   28  C   UNL     1     -43.551 -47.495   8.990  1.00  0.00     0.011 A 
ENDBRANCH  21  26
ENDBRANCH   4  18
TORSDOF 5
ENDMDL
MODEL 4
REMARK VINA RESULT:      -6.8      2.840      3.518
REMARK  5 active torsions:
REMARK  status: ('A' for Active; 'I' for Inactive)
REMARK    1  A    between atoms: C_2  and  C_3 
REMARK       I    between atoms: C_2  and  N_19 
REMARK    2  A    between atoms: C_3  and  N_4 
REMARK       I    between atoms: N_4  and  C_5 
REMARK       I    between atoms: C_5  and  N_7 
REMARK    3  A    between atoms: N_7  and  C_8 
REMARK    4  A    between atoms: C_11  and  C_16 
REMARK    5  A    between atoms: N_19  and  C_20 
ROOT
HETATM    1  N   UNL     1     -40.610 -51.211  13.812  1.00  0.00    -0.334 N 
HETATM    2  C   UNL     1     -39.413 -51.504  13.218  1.00  0.00     0.322 C 
HETATM    3  O   UNL     1     -38.881 -52.609  13.303  1.00  0.00    -0.247 OA
HETATM    4  N   UNL     1     -38.772 -50.483  12.588  1.00  0.00    -0.294 N 
HETATM    5  H   UNL     1     -40.835 -50.243  13.983  1.00  0.00     0.164 HD
HETATM    6  H   UNL     1     -37.764 -50.579  12.571  1.00  0.00     0.172 HD
ENDROOT
BRANCH   1   7
HETATM    7  C   UNL     1     -41.422 -52.227  14.462  1.00  0.00     0.227 C 
BRANCH   7   8
HETATM    8  C   UNL     1     -42.558 -52.886  13.658  1.00  0.00     0.235 C 
HETATM    9  O   UNL     1     -42.326 -53.813  12.882  1.00  0.00    -0.272 OA
HETATM   10  N   UNL     1     -43.820 -52.359  13.814  1.00  0.00    -0.355 N 
HETATM   11  H   UNL     1     -43.932 -51.589  14.451  1.00  0.00     0.162 HD
BRANCH  10  12
HETATM   12  C   UNL     1     -44.994 -52.905  13.121  1.00  0.00     0.084 C 
HETATM   13  C   UNL     1     -46.090 -51.855  12.905  1.00  0.00     0.025 C 
HETATM   14  C   UNL     1     -46.745 -51.400  14.209  1.00  0.00     0.002 C 
HETATM   15  C   UNL     1     -47.168 -52.550  15.125  1.00  0.00     0.000 C 
HETATM   16  C   UNL     1     -46.146 -53.679  15.239  1.00  0.00     0.002 C 
HETATM   17  C   UNL     1     -45.577 -54.095  13.886  1.00  0.00     0.025 C 
ENDBRANCH  10  12
ENDBRANCH   7   8
ENDBRANCH   1   7
BRANCH   4  18
HETATM   18  C   UNL     1     -39.263 -49.225  12.251  1.00  0.00     0.123 A 
HETATM   19  C   UNL     1     -39.030 -48.107  13.033  1.00  0.00     0.052 A 
HETATM   20  C   UNL     1     -39.488 -46.869  12.584  1.00  0.00     0.030 A 
HETATM   21  C   UNL     1     -40.131 -46.773  11.355  1.00  0.00     0.030 A 
HETATM   22  N   UNL     1     -40.385 -47.905  10.656  1.00  0.00    -0.303 N 
HETATM   23  N   UNL     1     -39.983 -49.137  11.122  1.00  0.00    -0.285 N 
ATOM     24  HN  UNL     1     -40.884 -47.844   9.769  1.00  0.00     0.186 HD
ATOM     25  HN  UNL     1     -40.233 -49.983  10.610  1.00  0.00     0.188 HD
BRANCH  21  26
HETATM   26  C   UNL     1     -40.575 -45.455  10.772  1.00  0.00     0.037 A 
HETATM   27  C   UNL     1     -39.591 -44.664   9.936  1.00  0.00     0.011 A 
HETATM   28  C   UNL     1     -40.029 -44.136  11.267  1.00  0.00     0.011 A 
ENDBRANCH  21  26
ENDBRANCH   4  18
TORSDOF 5
ENDMDL
MODEL 5
REMARK VINA RESULT:      -6.8      1.888      2.643
REMARK  5 active torsions:
REMARK  status: ('A' for Active; 'I' for Inactive)
REMARK    1  A    between atoms: C_2  and  C_3 
REMARK       I    between atoms: C_2  and  N_19 
REMARK    2  A    between atoms: C_3  and  N_4 
REMARK       I    between atoms: N_4  and  C_5 
REMARK       I    between atoms: C_5  and  N_7 
REMARK    3  A    between atoms: N_7  and  C_8 
REMARK    4  A    between atoms: C_11  and  C_16 
REMARK    5  A    between atoms: N_19  and  C_20 
ROOT
HETATM    1  N   UNL     1     -40.740 -51.585  13.949  1.00  0.00    -0.334 N 
HETATM    2  C   UNL     1     -39.734 -51.982  13.111  1.00  0.00     0.322 C 
HETATM    3  O   UNL     1     -39.171 -53.070  13.215  1.00  0.00    -0.247 OA
HETATM    4  N   UNL     1     -39.305 -51.076  12.191  1.00  0.00    -0.294 N 
HETATM    5  H   UNL     1     -40.936 -50.599  14.027  1.00  0.00     0.164 HD
HETATM    6  H   UNL     1     -38.335 -51.188  11.924  1.00  0.00     0.172 HD
ENDROOT
BRANCH   1   7
HETATM    7  C   UNL     1     -41.328 -52.480  14.932  1.00  0.00     0.227 C 
BRANCH   7   8
HETATM    8  C   UNL     1     -42.538 -53.337  14.516  1.00  0.00     0.235 C 
HETATM    9  O   UNL     1     -42.392 -54.505  14.158  1.00  0.00    -0.272 OA
HETATM   10  N   UNL     1     -43.769 -52.720  14.518  1.00  0.00    -0.355 N 
HETATM   11  H   UNL     1     -43.811 -51.756  14.803  1.00  0.00     0.162 HD
BRANCH  10  12
HETATM   12  C   UNL     1     -45.006 -53.426  14.161  1.00  0.00     0.084 C 
HETATM   13  C   UNL     1     -45.920 -52.591  13.256  1.00  0.00     0.025 C 
HETATM   14  C   UNL     1     -46.510 -51.373  13.967  1.00  0.00     0.002 C 
HETATM   15  C   UNL     1     -47.120 -51.688  15.333  1.00  0.00     0.000 C 
HETATM   16  C   UNL     1     -46.292 -52.637  16.195  1.00  0.00     0.002 C 
HETATM   17  C   UNL     1     -45.779 -53.844  15.414  1.00  0.00     0.025 C 
ENDBRANCH  10  12
ENDBRANCH   7   8
ENDBRANCH   1   7
BRANCH   4  18
HETATM   18  C   UNL     1     -39.899 -49.874  11.812  1.00  0.00     0.123 A 
HETATM   19  C   UNL     1     -39.639 -48.684  12.468  1.00  0.00     0.052 A 
HETATM   20  C   UNL     1     -40.211 -47.511  11.977  1.00  0.00     0.030 A 
HETATM   21  C   UNL     1     -40.994 -47.551  10.828  1.00  0.00     0.030 A 
HETATM   22  N   UNL     1     -41.264 -48.749  10.259  1.00  0.00    -0.303 N 
HETATM   23  N   UNL     1     -40.746 -49.917  10.773  1.00  0.00    -0.285 N 
ATOM     24  HN  UNL     1     -41.863 -48.787   9.434  1.00  0.00     0.186 HD
ATOM     25  HN  UNL     1     -41.007 -50.814  10.364  1.00  0.00     0.188 HD
BRANCH  21  26
HETATM   26  C   UNL     1     -41.571 -46.309  10.196  1.00  0.00     0.037 A 
HETATM   27  C   UNL     1     -42.788 -45.670  10.831  1.00  0.00     0.011 A 
HETATM   28  C   UNL     1     -42.905 -46.317   9.486  1.00  0.00     0.011 A 
ENDBRANCH  21  26
ENDBRANCH   4  18
TORSDOF 5
ENDMDL
MODEL 6
REMARK VINA RESULT:      -6.5      2.618      3.693
REMARK  5 active torsions:
REMARK  status: ('A' for Active; 'I' for Inactive)
REMARK    1  A    between atoms: C_2  and  C_3 
REMARK       I    between atoms: C_2  and  N_19 
REMARK    2  A    between atoms: C_3  and  N_4 
REMARK       I    between atoms: N_4  and  C_5 
REMARK       I    between atoms: C_5  and  N_7 
REMARK    3  A    between atoms: N_7  and  C_8 
REMARK    4  A    between atoms: C_11  and  C_16 
REMARK    5  A    between atoms: N_19  and  C_20 
ROOT
HETATM    1  N   UNL     1     -42.931 -53.048  12.484  1.00  0.00    -0.334 N 
HETATM    2  C   UNL     1     -41.598 -53.301  12.658  1.00  0.00     0.322 C 
HETATM    3  O   UNL     1     -41.164 -54.413  12.949  1.00  0.00    -0.247 OA
HETATM    4  N   UNL     1     -40.754 -52.237  12.581  1.00  0.00    -0.294 N 
HETATM    5  H   UNL     1     -43.252 -52.095  12.566  1.00  0.00     0.164 HD
HETATM    6  H   UNL     1     -39.912 -52.339  13.134  1.00  0.00     0.172 HD
ENDROOT
BRANCH   1   7
HETATM    7  C   UNL     1     -43.927 -54.107  12.480  1.00  0.00     0.227 C 
BRANCH   7   8
HETATM    8  C   UNL     1     -44.742 -54.356  13.762  1.00  0.00     0.235 C 
HETATM    9  O   UNL     1     -45.317 -55.428  13.947  1.00  0.00    -0.272 OA
HETATM   10  N   UNL     1     -44.831 -53.313  14.656  1.00  0.00    -0.355 N 
HETATM   11  H   UNL     1     -44.351 -52.458  14.431  1.00  0.00     0.162 HD
BRANCH  10  12
HETATM   12  C   UNL     1     -45.561 -53.422  15.926  1.00  0.00     0.084 C 
HETATM   13  C   UNL     1     -46.910 -52.695  15.894  1.00  0.00     0.025 C 
HETATM   14  C   UNL     1     -46.766 -51.177  15.806  1.00  0.00     0.002 C 
HETATM   15  C   UNL     1     -45.775 -50.587  16.811  1.00  0.00     0.000 C 
HETATM   16  C   UNL     1     -44.480 -51.381  16.965  1.00  0.00     0.002 C 
HETATM   17  C   UNL     1     -44.722 -52.883  17.087  1.00  0.00     0.025 C 
ENDBRANCH  10  12
ENDBRANCH   7   8
ENDBRANCH   1   7
BRANCH   4  18
HETATM   18  C   UNL     1     -41.016 -50.951  12.117  1.00  0.00     0.123 A 
HETATM   19  C   UNL     1     -41.597 -49.981  12.916  1.00  0.00     0.052 A 
HETATM   20  C   UNL     1     -41.752 -48.695  12.402  1.00  0.00     0.030 A 
HETATM   21  C   UNL     1     -41.295 -48.402  11.121  1.00  0.00     0.030 A 
HETATM   22  N   UNL     1     -40.788 -49.400  10.360  1.00  0.00    -0.303 N 
HETATM   23  N   UNL     1     -40.683 -50.685  10.845  1.00  0.00    -0.285 N 
ATOM     24  HN  UNL     1     -40.479 -49.197   9.409  1.00  0.00     0.186 HD
ATOM     25  HN  UNL     1     -40.351 -51.434  10.237  1.00  0.00     0.188 HD
BRANCH  21  26
HETATM   26  C   UNL     1     -41.355 -47.013  10.537  1.00  0.00     0.037 A 
HETATM   27  C   UNL     1     -40.196 -46.070  10.786  1.00  0.00     0.011 A 
HETATM   28  C   UNL     1     -41.531 -45.786  11.402  1.00  0.00     0.011 A 
ENDBRANCH  21  26
ENDBRANCH   4  18
TORSDOF 5
ENDMDL
MODEL 7
REMARK VINA RESULT:      -6.5      3.634      6.256
REMARK  5 active torsions:
REMARK  status: ('A' for Active; 'I' for Inactive)
REMARK    1  A    between atoms: C_2  and  C_3 
REMARK       I    between atoms: C_2  and  N_19 
REMARK    2  A    between atoms: C_3  and  N_4 
REMARK       I    between atoms: N_4  and  C_5 
REMARK       I    between atoms: C_5  and  N_7 
REMARK    3  A    between atoms: N_7  and  C_8 
REMARK    4  A    between atoms: C_11  and  C_16 
REMARK    5  A    between atoms: N_19  and  C_20 
ROOT
HETATM    1  N   UNL     1     -40.126 -52.917  14.746  1.00  0.00    -0.334 N 
HETATM    2  C   UNL     1     -39.821 -53.864  13.805  1.00  0.00     0.322 C 
HETATM    3  O   UNL     1     -38.687 -54.313  13.657  1.00  0.00    -0.247 OA
HETATM    4  N   UNL     1     -40.821 -54.237  12.961  1.00  0.00    -0.294 N 
HETATM    5  H   UNL     1     -40.960 -52.365  14.616  1.00  0.00     0.164 HD
HETATM    6  H   UNL     1     -40.497 -54.545  12.053  1.00  0.00     0.172 HD
ENDROOT
BRANCH   1   7
HETATM    7  C   UNL     1     -39.165 -52.480  15.745  1.00  0.00     0.227 C 
BRANCH   7   8
HETATM    8  C   UNL     1     -38.541 -51.080  15.603  1.00  0.00     0.235 C 
HETATM    9  O   UNL     1     -37.561 -50.754  16.273  1.00  0.00    -0.272 OA
HETATM   10  N   UNL     1     -39.158 -50.208  14.735  1.00  0.00    -0.355 N 
HETATM   11  H   UNL     1     -39.967 -50.536  14.234  1.00  0.00     0.162 HD
BRANCH  10  12
HETATM   12  C   UNL     1     -38.655 -48.850  14.491  1.00  0.00     0.084 C 
HETATM   13  C   UNL     1     -39.784 -47.827  14.313  1.00  0.00     0.025 C 
HETATM   14  C   UNL     1     -40.587 -48.043  13.031  1.00  0.00     0.002 C 
HETATM   15  C   UNL     1     -39.723 -48.227  11.782  1.00  0.00     0.000 C 
HETATM   16  C   UNL     1     -38.507 -49.129  11.979  1.00  0.00     0.002 C 
HETATM   17  C   UNL     1     -37.744 -48.815  13.262  1.00  0.00     0.025 C 
ENDBRANCH  10  12
ENDBRANCH   7   8
ENDBRANCH   1   7
BRANCH   4  18
HETATM   18  C   UNL     1     -42.184 -53.971  13.056  1.00  0.00     0.123 A 
HETATM   19  C   UNL     1     -42.982 -54.544  14.032  1.00  0.00     0.052 A 
HETATM   20  C   UNL     1     -44.321 -54.164  14.109  1.00  0.00     0.030 A 
HETATM   21  C   UNL     1     -44.818 -53.201  13.237  1.00  0.00     0.030 A 
HETATM   22  N   UNL     1     -44.012 -52.715  12.264  1.00  0.00    -0.303 N 
HETATM   23  N   UNL     1     -42.702 -53.129  12.150  1.00  0.00    -0.285 N 
ATOM     24  HN  UNL     1     -44.380 -52.031  11.604  1.00  0.00     0.186 HD
ATOM     25  HN  UNL     1     -42.128 -52.794  11.377  1.00  0.00     0.188 HD
BRANCH  21  26
HETATM   26  C   UNL     1     -46.232 -52.683  13.322  1.00  0.00     0.037 A 
HETATM   27  C   UNL     1     -46.493 -51.406  14.094  1.00  0.00     0.011 A 
HETATM   28  C   UNL     1     -47.020 -52.709  14.612  1.00  0.00     0.011 A 
ENDBRANCH  21  26
ENDBRANCH   4  18
TORSDOF 5
ENDMDL
MODEL 8
REMARK VINA RESULT:      -6.3      2.557      3.442
REMARK  5 active torsions:
REMARK  status: ('A' for Active; 'I' for Inactive)
REMARK    1  A    between atoms: C_2  and  C_3 
REMARK       I    between atoms: C_2  and  N_19 
REMARK    2  A    between atoms: C_3  and  N_4 
REMARK       I    between atoms: N_4  and  C_5 
REMARK       I    between atoms: C_5  and  N_7 
REMARK    3  A    between atoms: N_7  and  C_8 
REMARK    4  A    between atoms: C_11  and  C_16 
REMARK    5  A    between atoms: N_19  and  C_20 
ROOT
HETATM    1  N   UNL     1     -40.585 -49.318  12.829  1.00  0.00    -0.334 N 
HETATM    2  C   UNL     1     -39.635 -48.629  12.125  1.00  0.00     0.322 C 
HETATM    3  O   UNL     1     -38.433 -48.721  12.362  1.00  0.00    -0.247 OA
HETATM    4  N   UNL     1     -40.081 -47.749  11.188  1.00  0.00    -0.294 N 
HETATM    5  H   UNL     1     -41.533 -48.974  12.817  1.00  0.00     0.164 HD
HETATM    6  H   UNL     1     -39.457 -46.969  11.026  1.00  0.00     0.172 HD
ENDROOT
BRANCH   1   7
HETATM    7  C   UNL     1     -40.237 -50.330  13.813  1.00  0.00     0.227 C 
BRANCH   7   8
HETATM    8  C   UNL     1     -40.734 -51.771  13.593  1.00  0.00     0.235 C 
HETATM    9  O   UNL     1     -41.713 -51.999  12.881  1.00  0.00    -0.272 OA
HETATM   10  N   UNL     1     -40.066 -52.770  14.263  1.00  0.00    -0.355 N 
HETATM   11  H   UNL     1     -39.287 -52.508  14.842  1.00  0.00     0.162 HD
BRANCH  10  12
HETATM   12  C   UNL     1     -40.425 -54.188  14.127  1.00  0.00     0.084 C 
HETATM   13  C   UNL     1     -41.521 -54.614  15.110  1.00  0.00     0.025 C 
HETATM   14  C   UNL     1     -41.054 -54.601  16.565  1.00  0.00     0.002 C 
HETATM   15  C   UNL     1     -39.717 -55.307  16.794  1.00  0.00     0.000 C 
HETATM   16  C   UNL     1     -38.653 -55.008  15.740  1.00  0.00     0.002 C 
HETATM   17  C   UNL     1     -39.198 -55.084  14.317  1.00  0.00     0.025 C 
ENDBRANCH  10  12
ENDBRANCH   7   8
ENDBRANCH   1   7
BRANCH   4  18
HETATM   18  C   UNL     1     -41.365 -47.611  10.667  1.00  0.00     0.123 A 
HETATM   19  C   UNL     1     -42.292 -46.739  11.210  1.00  0.00     0.052 A 
HETATM   20  C   UNL     1     -43.529 -46.600  10.580  1.00  0.00     0.030 A 
HETATM   21  C   UNL     1     -43.793 -47.305   9.411  1.00  0.00     0.030 A 
HETATM   22  N   UNL     1     -42.875 -48.189   8.954  1.00  0.00    -0.303 N 
HETATM   23  N   UNL     1     -41.673 -48.370   9.604  1.00  0.00    -0.285 N 
ATOM     24  HN  UNL     1     -43.076 -48.731   8.114  1.00  0.00     0.186 HD
ATOM     25  HN  UNL     1     -41.019 -49.080   9.277  1.00  0.00     0.188 HD
BRANCH  21  26
HETATM   26  C   UNL     1     -45.075 -47.136   8.634  1.00  0.00     0.037 A 
HETATM   27  C   UNL     1     -46.390 -47.391   9.340  1.00  0.00     0.011 A 
HETATM   28  C   UNL     1     -45.940 -48.314   8.250  1.00  0.00     0.011 A 
ENDBRANCH  21  26
ENDBRANCH   4  18
TORSDOF 5
ENDMDL
MODEL 9
REMARK VINA RESULT:      -6.3      2.307      6.205
REMARK  5 active torsions:
REMARK  status: ('A' for Active; 'I' for Inactive)
REMARK    1  A    between atoms: C_2  and  C_3 
REMARK       I    between atoms: C_2  and  N_19 
REMARK    2  A    between atoms: C_3  and  N_4 
REMARK       I    between atoms: N_4  and  C_5 
REMARK       I    between atoms: C_5  and  N_7 
REMARK    3  A    between atoms: N_7  and  C_8 
REMARK    4  A    between atoms: C_11  and  C_16 
REMARK    5  A    between atoms: N_19  and  C_20 
ROOT
HETATM    1  N   UNL     1     -40.189 -52.192  13.280  1.00  0.00    -0.334 N 
HETATM    2  C   UNL     1     -40.035 -53.523  13.562  1.00  0.00     0.322 C 
HETATM    3  O   UNL     1     -38.934 -54.064  13.639  1.00  0.00    -0.247 OA
HETATM    4  N   UNL     1     -41.170 -54.264  13.672  1.00  0.00    -0.294 N 
HETATM    5  H   UNL     1     -41.077 -51.879  12.920  1.00  0.00     0.164 HD
HETATM    6  H   UNL     1     -41.050 -55.238  13.424  1.00  0.00     0.172 HD
ENDROOT
BRANCH   1   7
HETATM    7  C   UNL     1     -39.058 -51.281  13.201  1.00  0.00     0.227 C 
BRANCH   7   8
HETATM    8  C   UNL     1     -39.129 -50.106  12.208  1.00  0.00     0.235 C 
HETATM    9  O   UNL     1     -38.257 -49.947  11.355  1.00  0.00    -0.272 OA
HETATM   10  N   UNL     1     -40.179 -49.228  12.357  1.00  0.00    -0.355 N 
HETATM   11  H   UNL     1     -40.844 -49.410  13.089  1.00  0.00     0.162 HD
BRANCH  10  12
HETATM   12  C   UNL     1     -40.376 -48.076  11.467  1.00  0.00     0.084 C 
HETATM   13  C   UNL     1     -40.428 -46.747  12.228  1.00  0.00     0.025 C 
HETATM   14  C   UNL     1     -41.670 -46.612  13.108  1.00  0.00     0.002 C 
HETATM   15  C   UNL     1     -42.977 -46.962  12.394  1.00  0.00     0.000 C 
HETATM   16  C   UNL     1     -42.904 -48.206  11.512  1.00  0.00     0.002 C 
HETATM   17  C   UNL     1     -41.653 -48.236  10.639  1.00  0.00     0.025 C 
ENDBRANCH  10  12
ENDBRANCH   7   8
ENDBRANCH   1   7
BRANCH   4  18
HETATM   18  C   UNL     1     -42.488 -53.826  13.772  1.00  0.00     0.123 A 
HETATM   19  C   UNL     1     -43.344 -53.803  12.685  1.00  0.00     0.052 A 
HETATM   20  C   UNL     1     -44.671 -53.428  12.885  1.00  0.00     0.030 A 
HETATM   21  C   UNL     1     -45.117 -53.120  14.167  1.00  0.00     0.030 A 
HETATM   22  N   UNL     1     -44.226 -53.101  15.186  1.00  0.00    -0.303 N 
HETATM   23  N   UNL     1     -42.901 -53.418  14.982  1.00  0.00    -0.285 N 
ATOM     24  HN  UNL     1     -44.542 -52.846  16.122  1.00  0.00     0.186 HD
ATOM     25  HN  UNL     1     -42.235 -53.344  15.750  1.00  0.00     0.188 HD
BRANCH  21  26
HETATM   26  C   UNL     1     -46.558 -52.789  14.466  1.00  0.00     0.037 A 
HETATM   27  C   UNL     1     -46.976 -51.334  14.503  1.00  0.00     0.011 A 
HETATM   28  C   UNL     1     -46.977 -52.140  15.765  1.00  0.00     0.011 A 
ENDBRANCH  21  26
ENDBRANCH   4  18
TORSDOF 5
ENDMDL
