MODEL 1
REMARK VINA RESULT:      -6.1      0.000      0.000
REMARK  5 active torsions:
REMARK  status: ('A' for Active; 'I' for Inactive)
REMARK    1  A    between atoms: C_2  and  C_4 
REMARK    2  A    between atoms: C_2  and  C_17 
REMARK       I    between atoms: C_4  and  N_6 
REMARK    3  A    between atoms: N_6  and  C_7 
REMARK    4  A    between atoms: C_7  and  C_8 
REMARK    5  A    between atoms: C_8  and  C_9 
REMARK       I    between atoms: C_9  and  N_11 
ROOT
HETATM    1  C   UNL     1     -43.471 -54.863  14.667  1.00  0.00     0.296 C 
HETATM    2  O   UNL     1     -43.554 -55.339  15.800  1.00  0.00    -0.266 OA
HETATM    3  N   UNL     1     -42.252 -54.488  14.117  1.00  0.00    -0.355 N 
HETATM    4  H   UNL     1     -42.251 -54.119  13.169  1.00  0.00     0.162 HD
ENDROOT
BRANCH   1   5
HETATM    5  C   UNL     1     -44.704 -54.604  13.757  1.00  0.00     0.364 C 
HETATM    6  F   UNL     1     -44.291 -54.376  12.465  1.00  0.00    -0.188 F 
HETATM    7  F   UNL     1     -45.468 -55.747  13.662  1.00  0.00    -0.188 F 
BRANCH   5   8
HETATM    8  C   UNL     1     -45.492 -53.428  14.320  1.00  0.00     0.091 A 
HETATM    9  C   UNL     1     -46.153 -52.560  13.448  1.00  0.00     0.032 A 
HETATM   10  C   UNL     1     -46.828 -51.460  13.970  1.00  0.00     0.003 A 
HETATM   11  C   UNL     1     -46.836 -51.253  15.342  1.00  0.00     0.017 A 
HETATM   12  C   UNL     1     -46.164 -52.159  16.145  1.00  0.00     0.088 A 
HETATM   13  N   UNL     1     -45.492 -53.231  15.670  1.00  0.00    -0.364 N 
ATOM     14  HN  UNL     1     -45.002 -53.870  16.298  1.00  0.00     0.165 HD
ENDBRANCH   5   8
ENDBRANCH   1   5
BRANCH   3  15
HETATM   15  C   UNL     1     -41.007 -54.579  14.855  1.00  0.00     0.132 C 
BRANCH  15  16
HETATM   16  C   UNL     1     -39.998 -53.515  14.432  1.00  0.00     0.122 C 
BRANCH  16  17
HETATM   17  C   UNL     1     -40.563 -52.655  13.313  1.00  0.00     0.221 C 
HETATM   18  O   UNL     1     -40.438 -52.994  12.136  1.00  0.00    -0.273 OA
HETATM   19  N   UNL     1     -41.219 -51.486  13.674  1.00  0.00    -0.352 N 
HETATM   20  C   UNL     1     -41.346 -50.959  15.033  1.00  0.00     0.125 C 
HETATM   21  C   UNL     1     -41.788 -50.638  12.627  1.00  0.00     0.125 C 
HETATM   22  C   UNL     1     -42.808 -50.659  15.365  1.00  0.00     0.020 C 
HETATM   23  C   UNL     1     -43.454 -49.770  14.302  1.00  0.00     0.003 C 
HETATM   24  C   UNL     1     -43.262 -50.358  12.905  1.00  0.00     0.020 C 
ENDBRANCH  16  17
ENDBRANCH  15  16
ENDBRANCH   3  15
TORSDOF 5
ENDMDL
MODEL 2
REMARK VINA RESULT:      -5.9      1.771      2.336
REMARK  5 active torsions:
REMARK  status: ('A' for Active; 'I' for Inactive)
REMARK    1  A    between atoms: C_2  and  C_4 
REMARK    2  A    between atoms: C_2  and  C_17 
REMARK       I    between atoms: C_4  and  N_6 
REMARK    3  A    between atoms: N_6  and  C_7 
REMARK    4  A    between atoms: C_7  and  C_8 
REMARK    5  A    between atoms: C_8  and  C_9 
REMARK       I    between atoms: C_9  and  N_11 
ROOT
HETATM    1  C   UNL     1     -43.549 -54.881  14.476  1.00  0.00     0.296 C 
HETATM    2  O   UNL     1     -43.462 -55.553  15.505  1.00  0.00    -0.266 OA
HETATM    3  N   UNL     1     -42.459 -54.200  13.950  1.00  0.00    -0.355 N 
HETATM    4  H   UNL     1     -42.594 -53.679  13.087  1.00  0.00     0.162 HD
ENDROOT
BRANCH   1   5
HETATM    5  C   UNL     1     -44.874 -54.698  13.686  1.00  0.00     0.364 C 
HETATM    6  F   UNL     1     -44.599 -54.479  12.356  1.00  0.00    -0.188 F 
HETATM    7  F   UNL     1     -45.589 -55.877  13.684  1.00  0.00    -0.188 F 
BRANCH   5   8
HETATM    8  C   UNL     1     -45.660 -53.548  14.304  1.00  0.00     0.091 A 
HETATM    9  C   UNL     1     -46.087 -52.492  13.495  1.00  0.00     0.032 A 
HETATM   10  C   UNL     1     -46.759 -51.421  14.079  1.00  0.00     0.003 A 
HETATM   11  C   UNL     1     -46.996 -51.430  15.446  1.00  0.00     0.017 A 
HETATM   12  C   UNL     1     -46.550 -52.514  16.182  1.00  0.00     0.088 A 
HETATM   13  N   UNL     1     -45.886 -53.564  15.649  1.00  0.00    -0.364 N 
ATOM     14  HN  UNL     1     -45.566 -54.339  16.230  1.00  0.00     0.165 HD
ENDBRANCH   5   8
ENDBRANCH   1   5
BRANCH   3  15
HETATM   15  C   UNL     1     -41.163 -54.189  14.601  1.00  0.00     0.132 C 
BRANCH  15  16
HETATM   16  C   UNL     1     -40.598 -52.780  14.754  1.00  0.00     0.122 C 
BRANCH  16  17
HETATM   17  C   UNL     1     -39.275 -52.650  14.018  1.00  0.00     0.221 C 
HETATM   18  O   UNL     1     -38.641 -53.652  13.685  1.00  0.00    -0.273 OA
HETATM   19  N   UNL     1     -38.819 -51.368  13.743  1.00  0.00    -0.352 N 
HETATM   20  C   UNL     1     -39.457 -50.122  14.168  1.00  0.00     0.125 C 
HETATM   21  C   UNL     1     -37.556 -51.202  13.025  1.00  0.00     0.125 C 
HETATM   22  C   UNL     1     -39.671 -49.188  12.978  1.00  0.00     0.020 C 
HETATM   23  C   UNL     1     -38.378 -48.974  12.191  1.00  0.00     0.003 C 
HETATM   24  C   UNL     1     -37.746 -50.310  11.802  1.00  0.00     0.020 C 
ENDBRANCH  16  17
ENDBRANCH  15  16
ENDBRANCH   3  15
TORSDOF 5
ENDMDL
MODEL 3
REMARK VINA RESULT:      -5.8      4.148      6.860
REMARK  5 active torsions:
REMARK  status: ('A' for Active; 'I' for Inactive)
REMARK    1  A    between atoms: C_2  and  C_4 
REMARK    2  A    between atoms: C_2  and  C_17 
REMARK       I    between atoms: C_4  and  N_6 
REMARK    3  A    between atoms: N_6  and  C_7 
REMARK    4  A    between atoms: C_7  and  C_8 
REMARK    5  A    between atoms: C_8  and  C_9 
REMARK       I    between atoms: C_9  and  N_11 
ROOT
HETATM    1  C   UNL     1     -41.281 -49.027  11.200  1.00  0.00     0.296 C 
HETATM    2  O   UNL     1     -40.060 -48.922  11.324  1.00  0.00    -0.266 OA
HETATM    3  N   UNL     1     -41.964 -50.171  11.596  1.00  0.00    -0.355 N 
HETATM    4  H   UNL     1     -42.974 -50.186  11.483  1.00  0.00     0.162 HD
ENDROOT
BRANCH   1   5
HETATM    5  C   UNL     1     -42.174 -47.923  10.569  1.00  0.00     0.364 C 
HETATM    6  F   UNL     1     -42.343 -48.169   9.226  1.00  0.00    -0.188 F 
HETATM    7  F   UNL     1     -43.452 -47.999  11.081  1.00  0.00    -0.188 F 
BRANCH   5   8
HETATM    8  C   UNL     1     -41.531 -46.565  10.825  1.00  0.00     0.091 A 
HETATM    9  C   UNL     1     -42.201 -45.622  11.609  1.00  0.00     0.032 A 
HETATM   10  C   UNL     1     -41.628 -44.367  11.794  1.00  0.00     0.003 A 
HETATM   11  C   UNL     1     -40.405 -44.082  11.202  1.00  0.00     0.017 A 
HETATM   12  C   UNL     1     -39.797 -45.068  10.445  1.00  0.00     0.088 A 
HETATM   13  N   UNL     1     -40.330 -46.293  10.237  1.00  0.00    -0.364 N 
ATOM     14  HN  UNL     1     -39.852 -46.988   9.663  1.00  0.00     0.165 HD
ENDBRANCH   5   8
ENDBRANCH   1   5
BRANCH   3  15
HETATM   15  C   UNL     1     -41.282 -51.335  12.128  1.00  0.00     0.132 C 
BRANCH  15  16
HETATM   16  C   UNL     1     -42.233 -52.500  12.388  1.00  0.00     0.122 C 
BRANCH  16  17
HETATM   17  C   UNL     1     -42.785 -52.435  13.802  1.00  0.00     0.221 C 
HETATM   18  O   UNL     1     -42.028 -52.357  14.770  1.00  0.00    -0.273 OA
HETATM   19  N   UNL     1     -44.165 -52.468  13.952  1.00  0.00    -0.352 N 
HETATM   20  C   UNL     1     -45.140 -52.642  12.875  1.00  0.00     0.125 C 
HETATM   21  C   UNL     1     -44.736 -52.394  15.296  1.00  0.00     0.125 C 
HETATM   22  C   UNL     1     -46.197 -51.538  12.915  1.00  0.00     0.020 C 
HETATM   23  C   UNL     1     -46.832 -51.419  14.301  1.00  0.00     0.003 C 
HETATM   24  C   UNL     1     -45.763 -51.270  15.383  1.00  0.00     0.020 C 
ENDBRANCH  16  17
ENDBRANCH  15  16
ENDBRANCH   3  15
TORSDOF 5
ENDMDL
MODEL 4
REMARK VINA RESULT:      -5.6      2.351      5.672
REMARK  5 active torsions:
REMARK  status: ('A' for Active; 'I' for Inactive)
REMARK    1  A    between atoms: C_2  and  C_4 
REMARK    2  A    between atoms: C_2  and  C_17 
REMARK       I    between atoms: C_4  and  N_6 
REMARK    3  A    between atoms: N_6  and  C_7 
REMARK    4  A    between atoms: C_7  and  C_8 
REMARK    5  A    between atoms: C_8  and  C_9 
REMARK       I    between atoms: C_9  and  N_11 
ROOT
HETATM    1  C   UNL     1     -42.480 -52.757  12.890  1.00  0.00     0.296 C 
HETATM    2  O   UNL     1     -43.018 -51.657  13.024  1.00  0.00    -0.266 OA
HETATM    3  N   UNL     1     -43.215 -53.907  12.632  1.00  0.00    -0.355 N 
HETATM    4  H   UNL     1     -42.707 -54.780  12.514  1.00  0.00     0.162 HD
ENDROOT
BRANCH   1   5
HETATM    5  C   UNL     1     -40.948 -52.980  13.024  1.00  0.00     0.364 C 
HETATM    6  F   UNL     1     -40.632 -53.283  14.328  1.00  0.00    -0.188 F 
HETATM    7  F   UNL     1     -40.572 -54.108  12.325  1.00  0.00    -0.188 F 
BRANCH   5   8
HETATM    8  C   UNL     1     -40.224 -51.732  12.536  1.00  0.00     0.091 A 
HETATM    9  C   UNL     1     -39.069 -51.302  13.194  1.00  0.00     0.032 A 
HETATM   10  C   UNL     1     -38.445 -50.131  12.772  1.00  0.00     0.003 A 
HETATM   11  C   UNL     1     -38.979 -49.421  11.705  1.00  0.00     0.017 A 
HETATM   12  C   UNL     1     -40.122 -49.911  11.097  1.00  0.00     0.088 A 
HETATM   13  N   UNL     1     -40.757 -51.039  11.488  1.00  0.00    -0.364 N 
ATOM     14  HN  UNL     1     -41.604 -51.359  11.018  1.00  0.00     0.165 HD
ENDBRANCH   5   8
ENDBRANCH   1   5
BRANCH   3  15
HETATM   15  C   UNL     1     -44.663 -53.902  12.558  1.00  0.00     0.132 C 
BRANCH  15  16
HETATM   16  C   UNL     1     -45.303 -54.854  13.564  1.00  0.00     0.122 C 
BRANCH  16  17
HETATM   17  C   UNL     1     -44.927 -54.466  14.984  1.00  0.00     0.221 C 
HETATM   18  O   UNL     1     -43.946 -54.967  15.534  1.00  0.00    -0.273 OA
HETATM   19  N   UNL     1     -45.730 -53.532  15.626  1.00  0.00    -0.352 N 
HETATM   20  C   UNL     1     -46.958 -52.945  15.090  1.00  0.00     0.125 C 
HETATM   21  C   UNL     1     -45.393 -53.122  16.989  1.00  0.00     0.125 C 
HETATM   22  C   UNL     1     -46.905 -51.419  15.160  1.00  0.00     0.020 C 
HETATM   23  C   UNL     1     -46.560 -50.933  16.568  1.00  0.00     0.003 C 
HETATM   24  C   UNL     1     -45.288 -51.604  17.083  1.00  0.00     0.020 C 
ENDBRANCH  16  17
ENDBRANCH  15  16
ENDBRANCH   3  15
TORSDOF 5
ENDMDL
MODEL 5
REMARK VINA RESULT:      -5.4      3.239      4.992
REMARK  5 active torsions:
REMARK  status: ('A' for Active; 'I' for Inactive)
REMARK    1  A    between atoms: C_2  and  C_4 
REMARK    2  A    between atoms: C_2  and  C_17 
REMARK       I    between atoms: C_4  and  N_6 
REMARK    3  A    between atoms: N_6  and  C_7 
REMARK    4  A    between atoms: C_7  and  C_8 
REMARK    5  A    between atoms: C_8  and  C_9 
REMARK       I    between atoms: C_9  and  N_11 
ROOT
HETATM    1  C   UNL     1     -42.059 -50.614  12.556  1.00  0.00     0.296 C 
HETATM    2  O   UNL     1     -42.562 -50.033  13.519  1.00  0.00    -0.266 OA
HETATM    3  N   UNL     1     -41.740 -49.946  11.381  1.00  0.00    -0.355 N 
HETATM    4  H   UNL     1     -41.309 -50.481  10.630  1.00  0.00     0.162 HD
ENDROOT
BRANCH   1   5
HETATM    5  C   UNL     1     -41.761 -52.139  12.539  1.00  0.00     0.364 C 
HETATM    6  F   UNL     1     -41.306 -52.513  11.296  1.00  0.00    -0.188 F 
HETATM    7  F   UNL     1     -40.703 -52.423  13.376  1.00  0.00    -0.188 F 
BRANCH   5   8
HETATM    8  C   UNL     1     -43.026 -52.892  12.934  1.00  0.00     0.091 A 
HETATM    9  C   UNL     1     -42.928 -54.026  13.744  1.00  0.00     0.032 A 
HETATM   10  C   UNL     1     -44.084 -54.736  14.057  1.00  0.00     0.003 A 
HETATM   11  C   UNL     1     -45.307 -54.299  13.565  1.00  0.00     0.017 A 
HETATM   12  C   UNL     1     -45.327 -53.162  12.774  1.00  0.00     0.088 A 
HETATM   13  N   UNL     1     -44.222 -52.456  12.444  1.00  0.00    -0.364 N 
ATOM     14  HN  UNL     1     -44.281 -51.629  11.850  1.00  0.00     0.165 HD
ENDBRANCH   5   8
ENDBRANCH   1   5
BRANCH   3  15
HETATM   15  C   UNL     1     -42.026 -48.537  11.187  1.00  0.00     0.132 C 
BRANCH  15  16
HETATM   16  C   UNL     1     -40.761 -47.685  11.147  1.00  0.00     0.122 C 
BRANCH  16  17
HETATM   17  C   UNL     1     -40.108 -47.629  12.518  1.00  0.00     0.221 C 
HETATM   18  O   UNL     1     -40.576 -46.917  13.408  1.00  0.00    -0.273 OA
HETATM   19  N   UNL     1     -38.976 -48.406  12.720  1.00  0.00    -0.352 N 
HETATM   20  C   UNL     1     -38.301 -49.217  11.707  1.00  0.00     0.125 C 
HETATM   21  C   UNL     1     -38.327 -48.389  14.031  1.00  0.00     0.125 C 
HETATM   22  C   UNL     1     -38.113 -50.652  12.196  1.00  0.00     0.020 C 
HETATM   23  C   UNL     1     -37.433 -50.695  13.565  1.00  0.00     0.003 C 
HETATM   24  C   UNL     1     -38.166 -49.807  14.569  1.00  0.00     0.020 C 
ENDBRANCH  16  17
ENDBRANCH  15  16
ENDBRANCH   3  15
TORSDOF 5
ENDMDL
MODEL 6
REMARK VINA RESULT:      -5.3      3.492      6.140
REMARK  5 active torsions:
REMARK  status: ('A' for Active; 'I' for Inactive)
REMARK    1  A    between atoms: C_2  and  C_4 
REMARK    2  A    between atoms: C_2  and  C_17 
REMARK       I    between atoms: C_4  and  N_6 
REMARK    3  A    between atoms: N_6  and  C_7 
REMARK    4  A    between atoms: C_7  and  C_8 
REMARK    5  A    between atoms: C_8  and  C_9 
REMARK       I    between atoms: C_9  and  N_11 
ROOT
HETATM    1  C   UNL     1     -39.810 -50.683  12.669  1.00  0.00     0.296 C 
HETATM    2  O   UNL     1     -39.901 -50.714  13.897  1.00  0.00    -0.266 OA
HETATM    3  N   UNL     1     -40.294 -51.712  11.871  1.00  0.00    -0.355 N 
HETATM    4  H   UNL     1     -40.205 -51.616  10.863  1.00  0.00     0.162 HD
ENDROOT
BRANCH   1   5
HETATM    5  C   UNL     1     -39.128 -49.523  11.891  1.00  0.00     0.364 C 
HETATM    6  F   UNL     1     -38.160 -48.941  12.676  1.00  0.00    -0.188 F 
HETATM    7  F   UNL     1     -38.424 -50.025  10.818  1.00  0.00    -0.188 F 
BRANCH   5   8
HETATM    8  C   UNL     1     -40.195 -48.524  11.464  1.00  0.00     0.091 A 
HETATM    9  C   UNL     1     -40.284 -47.290  12.113  1.00  0.00     0.032 A 
HETATM   10  C   UNL     1     -41.296 -46.404  11.750  1.00  0.00     0.003 A 
HETATM   11  C   UNL     1     -42.188 -46.763  10.749  1.00  0.00     0.017 A 
HETATM   12  C   UNL     1     -42.034 -48.000  10.145  1.00  0.00     0.088 A 
HETATM   13  N   UNL     1     -41.070 -48.886  10.481  1.00  0.00    -0.364 N 
ATOM     14  HN  UNL     1     -40.998 -49.791  10.017  1.00  0.00     0.165 HD
ENDBRANCH   5   8
ENDBRANCH   1   5
BRANCH   3  15
HETATM   15  C   UNL     1     -40.886 -52.913  12.429  1.00  0.00     0.132 C 
BRANCH  15  16
HETATM   16  C   UNL     1     -42.411 -52.872  12.419  1.00  0.00     0.122 C 
BRANCH  16  17
HETATM   17  C   UNL     1     -42.956 -52.798  13.836  1.00  0.00     0.221 C 
HETATM   18  O   UNL     1     -42.194 -52.827  14.803  1.00  0.00    -0.273 OA
HETATM   19  N   UNL     1     -44.332 -52.698  13.988  1.00  0.00    -0.352 N 
HETATM   20  C   UNL     1     -45.319 -52.739  12.908  1.00  0.00     0.125 C 
HETATM   21  C   UNL     1     -44.893 -52.611  15.336  1.00  0.00     0.125 C 
HETATM   22  C   UNL     1     -46.260 -51.537  12.987  1.00  0.00     0.020 C 
HETATM   23  C   UNL     1     -46.881 -51.400  14.378  1.00  0.00     0.003 C 
HETATM   24  C   UNL     1     -45.803 -51.393  15.461  1.00  0.00     0.020 C 
ENDBRANCH  16  17
ENDBRANCH  15  16
ENDBRANCH   3  15
TORSDOF 5
ENDMDL
MODEL 7
REMARK VINA RESULT:      -5.2      2.462      4.250
REMARK  5 active torsions:
REMARK  status: ('A' for Active; 'I' for Inactive)
REMARK    1  A    between atoms: C_2  and  C_4 
REMARK    2  A    between atoms: C_2  and  C_17 
REMARK       I    between atoms: C_4  and  N_6 
REMARK    3  A    between atoms: N_6  and  C_7 
REMARK    4  A    between atoms: C_7  and  C_8 
REMARK    5  A    between atoms: C_8  and  C_9 
REMARK       I    between atoms: C_9  and  N_11 
ROOT
HETATM    1  C   UNL     1     -44.817 -52.837  12.978  1.00  0.00     0.296 C 
HETATM    2  O   UNL     1     -45.289 -53.925  12.646  1.00  0.00    -0.266 OA
HETATM    3  N   UNL     1     -43.453 -52.580  12.921  1.00  0.00    -0.355 N 
HETATM    4  H   UNL     1     -43.131 -51.654  13.191  1.00  0.00     0.162 HD
ENDROOT
BRANCH   1   5
HETATM    5  C   UNL     1     -45.678 -51.662  13.519  1.00  0.00     0.364 C 
HETATM    6  F   UNL     1     -44.974 -50.484  13.426  1.00  0.00    -0.188 F 
HETATM    7  F   UNL     1     -46.769 -51.460  12.700  1.00  0.00    -0.188 F 
BRANCH   5   8
HETATM    8  C   UNL     1     -46.086 -51.972  14.954  1.00  0.00     0.091 A 
HETATM    9  C   UNL     1     -47.162 -51.289  15.528  1.00  0.00     0.032 A 
HETATM   10  C   UNL     1     -47.493 -51.543  16.857  1.00  0.00     0.003 A 
HETATM   11  C   UNL     1     -46.754 -52.470  17.578  1.00  0.00     0.017 A 
HETATM   12  C   UNL     1     -45.706 -53.113  16.941  1.00  0.00     0.088 A 
HETATM   13  N   UNL     1     -45.352 -52.883  15.657  1.00  0.00    -0.364 N 
ATOM     14  HN  UNL     1     -44.566 -53.372  15.229  1.00  0.00     0.165 HD
ENDBRANCH   5   8
ENDBRANCH   1   5
BRANCH   3  15
HETATM   15  C   UNL     1     -42.490 -53.588  12.520  1.00  0.00     0.132 C 
BRANCH  15  16
HETATM   16  C   UNL     1     -41.343 -53.728  13.517  1.00  0.00     0.122 C 
BRANCH  16  17
HETATM   17  C   UNL     1     -41.777 -54.546  14.722  1.00  0.00     0.221 C 
HETATM   18  O   UNL     1     -42.940 -54.936  14.831  1.00  0.00    -0.273 OA
HETATM   19  N   UNL     1     -40.815 -54.832  15.681  1.00  0.00    -0.352 N 
HETATM   20  C   UNL     1     -39.435 -54.346  15.682  1.00  0.00     0.125 C 
HETATM   21  C   UNL     1     -41.190 -55.628  16.849  1.00  0.00     0.125 C 
HETATM   22  C   UNL     1     -38.451 -55.505  15.840  1.00  0.00     0.020 C 
HETATM   23  C   UNL     1     -38.794 -56.372  17.052  1.00  0.00     0.003 C 
HETATM   24  C   UNL     1     -40.254 -56.822  17.008  1.00  0.00     0.020 C 
ENDBRANCH  16  17
ENDBRANCH  15  16
ENDBRANCH   3  15
TORSDOF 5
ENDMDL
MODEL 8
REMARK VINA RESULT:      -5.2      3.757      6.340
REMARK  5 active torsions:
REMARK  status: ('A' for Active; 'I' for Inactive)
REMARK    1  A    between atoms: C_2  and  C_4 
REMARK    2  A    between atoms: C_2  and  C_17 
REMARK       I    between atoms: C_4  and  N_6 
REMARK    3  A    between atoms: N_6  and  C_7 
REMARK    4  A    between atoms: C_7  and  C_8 
REMARK    5  A    between atoms: C_8  and  C_9 
REMARK       I    between atoms: C_9  and  N_11 
ROOT
HETATM    1  C   UNL     1     -41.842 -49.427  12.275  1.00  0.00     0.296 C 
HETATM    2  O   UNL     1     -42.104 -48.883  13.349  1.00  0.00    -0.266 OA
HETATM    3  N   UNL     1     -42.270 -50.715  11.982  1.00  0.00    -0.355 N 
HETATM    4  H   UNL     1     -42.036 -51.099  11.069  1.00  0.00     0.162 HD
ENDROOT
BRANCH   1   5
HETATM    5  C   UNL     1     -40.992 -48.754  11.162  1.00  0.00     0.364 C 
HETATM    6  F   UNL     1     -39.923 -48.096  11.724  1.00  0.00    -0.188 F 
HETATM    7  F   UNL     1     -40.406 -49.718  10.369  1.00  0.00    -0.188 F 
BRANCH   5   8
HETATM    8  C   UNL     1     -41.885 -47.814  10.362  1.00  0.00     0.091 A 
HETATM    9  C   UNL     1     -42.066 -46.498  10.797  1.00  0.00     0.032 A 
HETATM   10  C   UNL     1     -42.925 -45.663  10.087  1.00  0.00     0.003 A 
HETATM   11  C   UNL     1     -43.577 -46.152   8.963  1.00  0.00     0.017 A 
HETATM   12  C   UNL     1     -43.343 -47.464   8.588  1.00  0.00     0.088 A 
HETATM   13  N   UNL     1     -42.524 -48.304   9.260  1.00  0.00    -0.364 N 
ATOM     14  HN  UNL     1     -42.387 -49.267   8.954  1.00  0.00     0.165 HD
ENDBRANCH   5   8
ENDBRANCH   1   5
BRANCH   3  15
HETATM   15  C   UNL     1     -43.002 -51.526  12.936  1.00  0.00     0.132 C 
BRANCH  15  16
HETATM   16  C   UNL     1     -42.785 -53.021  12.721  1.00  0.00     0.122 C 
BRANCH  16  17
HETATM   17  C   UNL     1     -41.315 -53.376  12.867  1.00  0.00     0.221 C 
HETATM   18  O   UNL     1     -40.493 -53.009  12.026  1.00  0.00    -0.273 OA
HETATM   19  N   UNL     1     -40.944 -54.121  13.978  1.00  0.00    -0.352 N 
HETATM   20  C   UNL     1     -41.854 -54.671  14.984  1.00  0.00     0.125 C 
HETATM   21  C   UNL     1     -39.536 -54.472  14.161  1.00  0.00     0.125 C 
HETATM   22  C   UNL     1     -41.413 -54.270  16.391  1.00  0.00     0.020 C 
HETATM   23  C   UNL     1     -39.945 -54.618  16.640  1.00  0.00     0.003 C 
HETATM   24  C   UNL     1     -39.052 -54.043  15.543  1.00  0.00     0.020 C 
ENDBRANCH  16  17
ENDBRANCH  15  16
ENDBRANCH   3  15
TORSDOF 5
ENDMDL
MODEL 9
REMARK VINA RESULT:      -5.1      3.651      6.646
REMARK  5 active torsions:
REMARK  status: ('A' for Active; 'I' for Inactive)
REMARK    1  A    between atoms: C_2  and  C_4 
REMARK    2  A    between atoms: C_2  and  C_17 
REMARK       I    between atoms: C_4  and  N_6 
REMARK    3  A    between atoms: N_6  and  C_7 
REMARK    4  A    between atoms: C_7  and  C_8 
REMARK    5  A    between atoms: C_8  and  C_9 
REMARK       I    between atoms: C_9  and  N_11 
ROOT
HETATM    1  C   UNL     1     -39.622 -50.734  11.988  1.00  0.00     0.296 C 
HETATM    2  O   UNL     1     -40.065 -50.029  11.081  1.00  0.00    -0.266 OA
HETATM    3  N   UNL     1     -40.356 -51.783  12.527  1.00  0.00    -0.355 N 
HETATM    4  H   UNL     1     -39.925 -52.339  13.261  1.00  0.00     0.162 HD
ENDROOT
BRANCH   1   5
HETATM    5  C   UNL     1     -38.228 -50.513  12.639  1.00  0.00     0.364 C 
HETATM    6  F   UNL     1     -37.922 -51.574  13.460  1.00  0.00    -0.188 F 
HETATM    7  F   UNL     1     -37.245 -50.550  11.673  1.00  0.00    -0.188 F 
BRANCH   5   8
HETATM    8  C   UNL     1     -38.244 -49.191  13.395  1.00  0.00     0.091 A 
HETATM    9  C   UNL     1     -37.449 -49.039  14.535  1.00  0.00     0.032 A 
HETATM   10  C   UNL     1     -37.509 -47.845  15.248  1.00  0.00     0.003 A 
HETATM   11  C   UNL     1     -38.351 -46.831  14.810  1.00  0.00     0.017 A 
HETATM   12  C   UNL     1     -39.103 -47.051  13.669  1.00  0.00     0.088 A 
HETATM   13  N   UNL     1     -39.075 -48.201  12.959  1.00  0.00    -0.364 N 
ATOM     14  HN  UNL     1     -39.655 -48.325  12.128  1.00  0.00     0.165 HD
ENDBRANCH   5   8
ENDBRANCH   1   5
BRANCH   3  15
HETATM   15  C   UNL     1     -41.710 -52.082  12.101  1.00  0.00     0.132 C 
BRANCH  15  16
HETATM   16  C   UNL     1     -42.295 -53.294  12.820  1.00  0.00     0.122 C 
BRANCH  16  17
HETATM   17  C   UNL     1     -42.847 -52.896  14.179  1.00  0.00     0.221 C 
HETATM   18  O   UNL     1     -42.092 -52.704  15.132  1.00  0.00    -0.273 OA
HETATM   19  N   UNL     1     -44.224 -52.759  14.294  1.00  0.00    -0.352 N 
HETATM   20  C   UNL     1     -45.204 -53.044  13.247  1.00  0.00     0.125 C 
HETATM   21  C   UNL     1     -44.793 -52.365  15.583  1.00  0.00     0.125 C 
HETATM   22  C   UNL     1     -46.141 -51.854  13.042  1.00  0.00     0.020 C 
HETATM   23  C   UNL     1     -46.769 -51.400  14.360  1.00  0.00     0.003 C 
HETATM   24  C   UNL     1     -45.698 -51.148  15.419  1.00  0.00     0.020 C 
ENDBRANCH  16  17
ENDBRANCH  15  16
ENDBRANCH   3  15
TORSDOF 5
ENDMDL
