MODEL 1
REMARK VINA RESULT:      -6.0      0.000      0.000
REMARK  4 active torsions:
REMARK  status: ('A' for Active; 'I' for Inactive)
REMARK       I    between atoms: C_2  and  N_3 
REMARK       I    between atoms: C_2  and  N_16 
REMARK    1  A    between atoms: N_3  and  C_4 
REMARK    2  A    between atoms: N_7  and  C_8 
REMARK    3  A    between atoms: C_8  and  C_9 
REMARK    4  A    between atoms: N_16  and  C_17 
ROOT
HETATM    1  O   UNL     1     -42.711 -51.046  13.804  1.00  0.00    -0.247 OA
HETATM    2  C   UNL     1     -43.477 -50.465  13.045  1.00  0.00     0.321 C 
HETATM    3  N   UNL     1     -43.034 -49.519  12.145  1.00  0.00    -0.338 N 
HETATM    4  N   UNL     1     -44.836 -50.654  12.965  1.00  0.00    -0.308 N 
HETATM    5  H   UNL     1     -43.695 -49.085  11.519  1.00  0.00     0.164 HD
HETATM    6  H   UNL     1     -45.371 -49.897  12.568  1.00  0.00     0.170 HD
ENDROOT
BRANCH   3   7
HETATM    7  C   UNL     1     -41.637 -49.085  12.130  1.00  0.00     0.089 C 
HETATM    8  C   UNL     1     -41.396 -47.985  13.168  1.00  0.00     0.055 C 
HETATM    9  C   UNL     1     -41.961 -46.646  12.692  1.00  0.00     0.274 C 
HETATM   10  N   UNL     1     -41.422 -46.209  11.397  1.00  0.00     0.088 N 
HETATM   11  C   UNL     1     -41.692 -47.234  10.373  1.00  0.00     0.274 C 
HETATM   12  C   UNL     1     -41.195 -48.639  10.734  1.00  0.00     0.055 C 
BRANCH  10  13
HETATM   13  C   UNL     1     -39.994 -45.842  11.423  1.00  0.00     0.277 C 
BRANCH  13  14
HETATM   14  C   UNL     1     -39.689 -44.343  11.579  1.00  0.00     0.014 C 
HETATM   15  C   UNL     1     -39.377 -43.900  13.011  1.00  0.00     0.006 C 
HETATM   16  C   UNL     1     -39.838 -42.443  13.110  1.00  0.00     0.000 C 
HETATM   17  C   UNL     1     -40.554 -42.124  11.801  1.00  0.00     0.000 C 
HETATM   18  C   UNL     1     -40.894 -43.478  11.202  1.00  0.00     0.006 C 
ENDBRANCH  13  14
ENDBRANCH  10  13
ENDBRANCH   3   7
BRANCH   4  19
HETATM   19  C   UNL     1     -45.562 -51.702  13.573  1.00  0.00     0.051 A 
HETATM   20  C   UNL     1     -46.371 -51.534  14.697  1.00  0.00     0.032 A 
HETATM   21  C   UNL     1     -47.023 -52.629  15.259  1.00  0.00     0.019 A 
HETATM   22  C   UNL     1     -46.841 -53.873  14.679  1.00  0.00     0.088 A 
HETATM   23  N   UNL     1     -46.067 -54.087  13.595  1.00  0.00    -0.373 N 
HETATM   24  C   UNL     1     -45.447 -52.998  13.073  1.00  0.00     0.117 A 
ATOM     25  HN  UNL     1     -45.953 -55.017  13.191  1.00  0.00     0.164 HD
ENDBRANCH   4  19
TORSDOF 4
ENDMDL
MODEL 2
REMARK VINA RESULT:      -5.5      6.913      9.208
REMARK  4 active torsions:
REMARK  status: ('A' for Active; 'I' for Inactive)
REMARK       I    between atoms: C_2  and  N_3 
REMARK       I    between atoms: C_2  and  N_16 
REMARK    1  A    between atoms: N_3  and  C_4 
REMARK    2  A    between atoms: N_7  and  C_8 
REMARK    3  A    between atoms: C_8  and  C_9 
REMARK    4  A    between atoms: N_16  and  C_17 
ROOT
HETATM    1  O   UNL     1     -38.563 -56.084  15.687  1.00  0.00    -0.247 OA
HETATM    2  C   UNL     1     -39.199 -55.708  16.664  1.00  0.00     0.321 C 
HETATM    3  N   UNL     1     -40.107 -54.673  16.589  1.00  0.00    -0.338 N 
HETATM    4  N   UNL     1     -39.122 -56.234  17.931  1.00  0.00    -0.308 N 
HETATM    5  H   UNL     1     -40.631 -54.416  17.411  1.00  0.00     0.164 HD
HETATM    6  H   UNL     1     -39.420 -55.633  18.684  1.00  0.00     0.170 HD
ENDROOT
BRANCH   3   7
HETATM    7  C   UNL     1     -40.274 -53.901  15.358  1.00  0.00     0.089 C 
HETATM    8  C   UNL     1     -40.509 -52.420  15.673  1.00  0.00     0.055 C 
HETATM    9  C   UNL     1     -41.932 -52.183  16.177  1.00  0.00     0.274 C 
HETATM   10  N   UNL     1     -42.970 -52.645  15.246  1.00  0.00     0.088 N 
HETATM   11  C   UNL     1     -42.790 -54.083  14.973  1.00  0.00     0.274 C 
HETATM   12  C   UNL     1     -41.391 -54.466  14.478  1.00  0.00     0.055 C 
BRANCH  10  13
HETATM   13  C   UNL     1     -43.054 -51.870  13.994  1.00  0.00     0.277 C 
BRANCH  13  14
HETATM   14  C   UNL     1     -44.448 -51.330  13.632  1.00  0.00     0.014 C 
HETATM   15  C   UNL     1     -45.394 -51.155  14.823  1.00  0.00     0.006 C 
HETATM   16  C   UNL     1     -46.807 -51.360  14.271  1.00  0.00     0.000 C 
HETATM   17  C   UNL     1     -46.647 -51.811  12.823  1.00  0.00     0.000 C 
HETATM   18  C   UNL     1     -45.210 -52.295  12.721  1.00  0.00     0.006 C 
ENDBRANCH  13  14
ENDBRANCH  10  13
ENDBRANCH   3   7
BRANCH   4  19
HETATM   19  C   UNL     1     -38.473 -57.437  18.289  1.00  0.00     0.051 A 
HETATM   20  C   UNL     1     -37.178 -57.495  18.805  1.00  0.00     0.032 A 
HETATM   21  C   UNL     1     -36.597 -58.728  19.096  1.00  0.00     0.019 A 
HETATM   22  C   UNL     1     -37.331 -59.876  18.855  1.00  0.00     0.088 A 
HETATM   23  N   UNL     1     -38.584 -59.872  18.354  1.00  0.00    -0.373 N 
HETATM   24  C   UNL     1     -39.121 -58.654  18.083  1.00  0.00     0.117 A 
ATOM     25  HN  UNL     1     -39.100 -60.736  18.188  1.00  0.00     0.164 HD
ENDBRANCH   4  19
TORSDOF 4
ENDMDL
MODEL 3
REMARK VINA RESULT:      -5.4      4.883      9.130
REMARK  4 active torsions:
REMARK  status: ('A' for Active; 'I' for Inactive)
REMARK       I    between atoms: C_2  and  N_3 
REMARK       I    between atoms: C_2  and  N_16 
REMARK    1  A    between atoms: N_3  and  C_4 
REMARK    2  A    between atoms: N_7  and  C_8 
REMARK    3  A    between atoms: C_8  and  C_9 
REMARK    4  A    between atoms: N_16  and  C_17 
ROOT
HETATM    1  O   UNL     1     -40.000 -49.821  11.553  1.00  0.00    -0.247 OA
HETATM    2  C   UNL     1     -41.137 -50.178  11.838  1.00  0.00     0.321 C 
HETATM    3  N   UNL     1     -41.387 -51.377  12.471  1.00  0.00    -0.338 N 
HETATM    4  N   UNL     1     -42.292 -49.475  11.593  1.00  0.00    -0.308 N 
HETATM    5  H   UNL     1     -42.335 -51.619  12.714  1.00  0.00     0.164 HD
HETATM    6  H   UNL     1     -43.144 -50.013  11.559  1.00  0.00     0.170 HD
ENDROOT
BRANCH   3   7
HETATM    7  C   UNL     1     -40.311 -52.333  12.735  1.00  0.00     0.089 C 
HETATM    8  C   UNL     1     -40.834 -53.772  12.680  1.00  0.00     0.055 C 
HETATM    9  C   UNL     1     -41.634 -54.115  13.936  1.00  0.00     0.274 C 
HETATM   10  N   UNL     1     -40.879 -53.928  15.182  1.00  0.00     0.088 N 
HETATM   11  C   UNL     1     -40.412 -52.533  15.278  1.00  0.00     0.274 C 
HETATM   12  C   UNL     1     -39.610 -52.047  14.065  1.00  0.00     0.055 C 
BRANCH  10  13
HETATM   13  C   UNL     1     -39.766 -54.878  15.370  1.00  0.00     0.277 C 
BRANCH  13  14
HETATM   14  C   UNL     1     -39.658 -55.517  16.764  1.00  0.00     0.014 C 
HETATM   15  C   UNL     1     -38.374 -56.315  17.003  1.00  0.00     0.006 C 
HETATM   16  C   UNL     1     -38.741 -57.413  18.005  1.00  0.00     0.000 C 
HETATM   17  C   UNL     1     -40.252 -57.337  18.198  1.00  0.00     0.000 C 
HETATM   18  C   UNL     1     -40.760 -56.553  17.000  1.00  0.00     0.006 C 
ENDBRANCH  13  14
ENDBRANCH  10  13
ENDBRANCH   3   7
BRANCH   4  19
HETATM   19  C   UNL     1     -42.367 -48.127  11.178  1.00  0.00     0.051 A 
HETATM   20  C   UNL     1     -42.415 -47.047  12.059  1.00  0.00     0.032 A 
HETATM   21  C   UNL     1     -42.529 -45.749  11.566  1.00  0.00     0.019 A 
HETATM   22  C   UNL     1     -42.599 -45.567  10.195  1.00  0.00     0.088 A 
HETATM   23  N   UNL     1     -42.562 -46.580   9.304  1.00  0.00    -0.373 N 
HETATM   24  C   UNL     1     -42.449 -47.831   9.818  1.00  0.00     0.117 A 
ATOM     25  HN  UNL     1     -42.616 -46.414   8.299  1.00  0.00     0.164 HD
ENDBRANCH   4  19
TORSDOF 4
ENDMDL
MODEL 4
REMARK VINA RESULT:      -5.4      3.137      8.695
REMARK  4 active torsions:
REMARK  status: ('A' for Active; 'I' for Inactive)
REMARK       I    between atoms: C_2  and  N_3 
REMARK       I    between atoms: C_2  and  N_16 
REMARK    1  A    between atoms: N_3  and  C_4 
REMARK    2  A    between atoms: N_7  and  C_8 
REMARK    3  A    between atoms: C_8  and  C_9 
REMARK    4  A    between atoms: N_16  and  C_17 
ROOT
HETATM    1  O   UNL     1     -41.844 -46.712  10.516  1.00  0.00    -0.247 OA
HETATM    2  C   UNL     1     -41.214 -46.700  11.567  1.00  0.00     0.321 C 
HETATM    3  N   UNL     1     -40.562 -47.820  12.039  1.00  0.00    -0.338 N 
HETATM    4  N   UNL     1     -41.055 -45.622  12.403  1.00  0.00    -0.308 N 
HETATM    5  H   UNL     1     -40.031 -47.758  12.894  1.00  0.00     0.164 HD
HETATM    6  H   UNL     1     -40.824 -45.829  13.362  1.00  0.00     0.170 HD
ENDROOT
BRANCH   3   7
HETATM    7  C   UNL     1     -40.684 -49.109  11.359  1.00  0.00     0.089 C 
HETATM    8  C   UNL     1     -41.909 -49.878  11.864  1.00  0.00     0.055 C 
HETATM    9  C   UNL     1     -41.652 -50.476  13.247  1.00  0.00     0.274 C 
HETATM   10  N   UNL     1     -40.479 -51.359  13.297  1.00  0.00     0.088 N 
HETATM   11  C   UNL     1     -39.280 -50.619  12.864  1.00  0.00     0.274 C 
HETATM   12  C   UNL     1     -39.409 -49.946  11.493  1.00  0.00     0.055 C 
BRANCH  10  13
HETATM   13  C   UNL     1     -40.632 -52.618  12.544  1.00  0.00     0.277 C 
BRANCH  13  14
HETATM   14  C   UNL     1     -41.007 -53.856  13.376  1.00  0.00     0.014 C 
HETATM   15  C   UNL     1     -42.511 -54.118  13.489  1.00  0.00     0.006 C 
HETATM   16  C   UNL     1     -42.716 -54.812  14.837  1.00  0.00     0.000 C 
HETATM   17  C   UNL     1     -41.367 -54.789  15.549  1.00  0.00     0.000 C 
HETATM   18  C   UNL     1     -40.568 -53.712  14.835  1.00  0.00     0.006 C 
ENDBRANCH  13  14
ENDBRANCH  10  13
ENDBRANCH   3   7
BRANCH   4  19
HETATM   19  C   UNL     1     -41.392 -44.283  12.100  1.00  0.00     0.051 A 
HETATM   20  C   UNL     1     -42.602 -43.689  12.455  1.00  0.00     0.032 A 
HETATM   21  C   UNL     1     -42.871 -42.374  12.083  1.00  0.00     0.019 A 
HETATM   22  C   UNL     1     -41.916 -41.687  11.354  1.00  0.00     0.088 A 
HETATM   23  N   UNL     1     -40.733 -42.219  10.983  1.00  0.00    -0.373 N 
HETATM   24  C   UNL     1     -40.503 -43.502  11.364  1.00  0.00     0.117 A 
ATOM     25  HN  UNL     1     -40.048 -41.686  10.446  1.00  0.00     0.164 HD
ENDBRANCH   4  19
TORSDOF 4
ENDMDL
MODEL 5
REMARK VINA RESULT:      -5.4      2.900      8.499
REMARK  4 active torsions:
REMARK  status: ('A' for Active; 'I' for Inactive)
REMARK       I    between atoms: C_2  and  N_3 
REMARK       I    between atoms: C_2  and  N_16 
REMARK    1  A    between atoms: N_3  and  C_4 
REMARK    2  A    between atoms: N_7  and  C_8 
REMARK    3  A    between atoms: C_8  and  C_9 
REMARK    4  A    between atoms: N_16  and  C_17 
ROOT
HETATM    1  O   UNL     1     -43.050 -48.534  12.723  1.00  0.00    -0.247 OA
HETATM    2  C   UNL     1     -42.478 -49.020  11.755  1.00  0.00     0.321 C 
HETATM    3  N   UNL     1     -41.839 -50.240  11.822  1.00  0.00    -0.338 N 
HETATM    4  N   UNL     1     -42.389 -48.460  10.503  1.00  0.00    -0.308 N 
HETATM    5  H   UNL     1     -41.405 -50.616  10.993  1.00  0.00     0.164 HD
HETATM    6  H   UNL     1     -41.627 -48.778   9.924  1.00  0.00     0.170 HD
ENDROOT
BRANCH   3   7
HETATM    7  C   UNL     1     -41.721 -50.964  13.087  1.00  0.00     0.089 C 
HETATM    8  C   UNL     1     -40.822 -52.194  12.929  1.00  0.00     0.055 C 
HETATM    9  C   UNL     1     -41.550 -53.318  12.195  1.00  0.00     0.274 C 
HETATM   10  N   UNL     1     -42.806 -53.724  12.841  1.00  0.00     0.088 N 
HETATM   11  C   UNL     1     -43.707 -52.562  12.952  1.00  0.00     0.274 C 
HETATM   12  C   UNL     1     -43.090 -51.346  13.654  1.00  0.00     0.055 C 
BRANCH  10  13
HETATM   13  C   UNL     1     -42.634 -54.395  14.143  1.00  0.00     0.277 C 
BRANCH  13  14
HETATM   14  C   UNL     1     -43.927 -54.849  14.840  1.00  0.00     0.014 C 
HETATM   15  C   UNL     1     -45.138 -54.985  13.913  1.00  0.00     0.006 C 
HETATM   16  C   UNL     1     -46.365 -54.693  14.780  1.00  0.00     0.000 C 
HETATM   17  C   UNL     1     -45.840 -54.233  16.137  1.00  0.00     0.000 C 
HETATM   18  C   UNL     1     -44.397 -53.831  15.880  1.00  0.00     0.006 C 
ENDBRANCH  13  14
ENDBRANCH  10  13
ENDBRANCH   3   7
BRANCH   4  19
HETATM   19  C   UNL     1     -43.122 -47.344  10.041  1.00  0.00     0.051 A 
HETATM   20  C   UNL     1     -44.234 -47.441   9.204  1.00  0.00     0.032 A 
HETATM   21  C   UNL     1     -44.877 -46.287   8.762  1.00  0.00     0.019 A 
HETATM   22  C   UNL     1     -44.382 -45.059   9.168  1.00  0.00     0.088 A 
HETATM   23  N   UNL     1     -43.309 -44.915   9.972  1.00  0.00    -0.373 N 
HETATM   24  C   UNL     1     -42.707 -46.059  10.385  1.00  0.00     0.117 A 
ATOM     25  HN  UNL     1     -42.968 -43.995  10.254  1.00  0.00     0.164 HD
ENDBRANCH   4  19
TORSDOF 4
ENDMDL
MODEL 6
REMARK VINA RESULT:      -5.3      7.239      9.890
REMARK  4 active torsions:
REMARK  status: ('A' for Active; 'I' for Inactive)
REMARK       I    between atoms: C_2  and  N_3 
REMARK       I    between atoms: C_2  and  N_16 
REMARK    1  A    between atoms: N_3  and  C_4 
REMARK    2  A    between atoms: N_7  and  C_8 
REMARK    3  A    between atoms: C_8  and  C_9 
REMARK    4  A    between atoms: N_16  and  C_17 
ROOT
HETATM    1  O   UNL     1     -40.106 -56.056  18.812  1.00  0.00    -0.247 OA
HETATM    2  C   UNL     1     -40.070 -56.658  17.746  1.00  0.00     0.321 C 
HETATM    3  N   UNL     1     -40.455 -56.067  16.561  1.00  0.00    -0.338 N 
HETATM    4  N   UNL     1     -39.655 -57.955  17.563  1.00  0.00    -0.308 N 
HETATM    5  H   UNL     1     -40.382 -56.590  15.702  1.00  0.00     0.164 HD
HETATM    6  H   UNL     1     -39.994 -58.421  16.735  1.00  0.00     0.170 HD
ENDROOT
BRANCH   3   7
HETATM    7  C   UNL     1     -41.029 -54.722  16.538  1.00  0.00     0.089 C 
HETATM    8  C   UNL     1     -42.560 -54.784  16.510  1.00  0.00     0.055 C 
HETATM    9  C   UNL     1     -43.071 -55.176  15.124  1.00  0.00     0.274 C 
HETATM   10  N   UNL     1     -42.609 -54.281  14.054  1.00  0.00     0.088 N 
HETATM   11  C   UNL     1     -41.135 -54.251  14.031  1.00  0.00     0.274 C 
HETATM   12  C   UNL     1     -40.486 -53.891  15.373  1.00  0.00     0.055 C 
BRANCH  10  13
HETATM   13  C   UNL     1     -43.171 -52.919  14.113  1.00  0.00     0.277 C 
BRANCH  13  14
HETATM   14  C   UNL     1     -44.703 -52.821  14.028  1.00  0.00     0.014 C 
HETATM   15  C   UNL     1     -45.253 -52.631  12.612  1.00  0.00     0.006 C 
HETATM   16  C   UNL     1     -46.555 -51.841  12.770  1.00  0.00     0.000 C 
HETATM   17  C   UNL     1     -46.649 -51.447  14.240  1.00  0.00     0.000 C 
HETATM   18  C   UNL     1     -45.235 -51.597  14.775  1.00  0.00     0.006 C 
ENDBRANCH  13  14
ENDBRANCH  10  13
ENDBRANCH   3   7
BRANCH   4  19
HETATM   19  C   UNL     1     -38.986 -58.753  18.519  1.00  0.00     0.051 A 
HETATM   20  C   UNL     1     -39.609 -59.752  19.266  1.00  0.00     0.032 A 
HETATM   21  C   UNL     1     -38.885 -60.467  20.217  1.00  0.00     0.019 A 
HETATM   22  C   UNL     1     -37.549 -60.154  20.400  1.00  0.00     0.088 A 
HETATM   23  N   UNL     1     -36.904 -59.194  19.706  1.00  0.00    -0.373 N 
HETATM   24  C   UNL     1     -37.639 -58.518  18.786  1.00  0.00     0.117 A 
ATOM     25  HN  UNL     1     -35.917 -58.987  19.864  1.00  0.00     0.164 HD
ENDBRANCH   4  19
TORSDOF 4
ENDMDL
MODEL 7
REMARK VINA RESULT:      -5.2      2.292      8.742
REMARK  4 active torsions:
REMARK  status: ('A' for Active; 'I' for Inactive)
REMARK       I    between atoms: C_2  and  N_3 
REMARK       I    between atoms: C_2  and  N_16 
REMARK    1  A    between atoms: N_3  and  C_4 
REMARK    2  A    between atoms: N_7  and  C_8 
REMARK    3  A    between atoms: C_8  and  C_9 
REMARK    4  A    between atoms: N_16  and  C_17 
ROOT
HETATM    1  O   UNL     1     -40.748 -47.014  13.488  1.00  0.00    -0.247 OA
HETATM    2  C   UNL     1     -40.768 -47.419  12.332  1.00  0.00     0.321 C 
HETATM    3  N   UNL     1     -40.707 -48.763  12.028  1.00  0.00    -0.338 N 
HETATM    4  N   UNL     1     -40.856 -46.640  11.203  1.00  0.00    -0.308 N 
HETATM    5  H   UNL     1     -40.755 -49.054  11.064  1.00  0.00     0.164 HD
HETATM    6  H   UNL     1     -40.520 -47.054  10.346  1.00  0.00     0.170 HD
ENDROOT
BRANCH   3   7
HETATM    7  C   UNL     1     -40.505 -49.766  13.073  1.00  0.00     0.089 C 
HETATM    8  C   UNL     1     -39.948 -51.065  12.482  1.00  0.00     0.055 C 
HETATM    9  C   UNL     1     -41.036 -51.847  11.748  1.00  0.00     0.274 C 
HETATM   10  N   UNL     1     -42.199 -52.164  12.588  1.00  0.00     0.088 N 
HETATM   11  C   UNL     1     -42.781 -50.920  13.123  1.00  0.00     0.274 C 
HETATM   12  C   UNL     1     -41.787 -50.023  13.870  1.00  0.00     0.055 C 
BRANCH  10  13
HETATM   13  C   UNL     1     -41.927 -53.134  13.665  1.00  0.00     0.277 C 
BRANCH  13  14
HETATM   14  C   UNL     1     -43.062 -54.123  13.980  1.00  0.00     0.014 C 
HETATM   15  C   UNL     1     -44.127 -54.242  12.887  1.00  0.00     0.006 C 
HETATM   16  C   UNL     1     -45.430 -54.599  13.608  1.00  0.00     0.000 C 
HETATM   17  C   UNL     1     -45.138 -54.516  15.102  1.00  0.00     0.000 C 
HETATM   18  C   UNL     1     -43.868 -53.688  15.206  1.00  0.00     0.006 C 
ENDBRANCH  13  14
ENDBRANCH  10  13
ENDBRANCH   3   7
BRANCH   4  19
HETATM   19  C   UNL     1     -41.165 -45.262  11.170  1.00  0.00     0.051 A 
HETATM   20  C   UNL     1     -40.211 -44.251  11.278  1.00  0.00     0.032 A 
HETATM   21  C   UNL     1     -40.606 -42.915  11.277  1.00  0.00     0.019 A 
HETATM   22  C   UNL     1     -41.956 -42.626  11.172  1.00  0.00     0.088 A 
HETATM   23  N   UNL     1     -42.916 -43.569  11.070  1.00  0.00    -0.373 N 
HETATM   24  C   UNL     1     -42.496 -44.860  11.074  1.00  0.00     0.117 A 
ATOM     25  HN  UNL     1     -43.904 -43.324  10.995  1.00  0.00     0.164 HD
ENDBRANCH   4  19
TORSDOF 4
ENDMDL
MODEL 8
REMARK VINA RESULT:      -5.2      3.744      8.725
REMARK  4 active torsions:
REMARK  status: ('A' for Active; 'I' for Inactive)
REMARK       I    between atoms: C_2  and  N_3 
REMARK       I    between atoms: C_2  and  N_16 
REMARK    1  A    between atoms: N_3  and  C_4 
REMARK    2  A    between atoms: N_7  and  C_8 
REMARK    3  A    between atoms: C_8  and  C_9 
REMARK    4  A    between atoms: N_16  and  C_17 
ROOT
HETATM    1  O   UNL     1     -40.030 -45.643  13.606  1.00  0.00    -0.247 OA
HETATM    2  C   UNL     1     -40.012 -46.094  12.467  1.00  0.00     0.321 C 
HETATM    3  N   UNL     1     -39.592 -47.380  12.200  1.00  0.00    -0.338 N 
HETATM    4  N   UNL     1     -40.393 -45.430  11.326  1.00  0.00    -0.308 N 
HETATM    5  H   UNL     1     -39.620 -47.722  11.251  1.00  0.00     0.164 HD
HETATM    6  H   UNL     1     -40.012 -45.776  10.459  1.00  0.00     0.170 HD
ENDROOT
BRANCH   3   7
HETATM    7  C   UNL     1     -39.044 -48.232  13.255  1.00  0.00     0.089 C 
HETATM    8  C   UNL     1     -37.984 -49.184  12.692  1.00  0.00     0.055 C 
HETATM    9  C   UNL     1     -38.631 -50.329  11.913  1.00  0.00     0.274 C 
HETATM   10  N   UNL     1     -39.599 -51.103  12.702  1.00  0.00     0.088 N 
HETATM   11  C   UNL     1     -40.657 -50.211  13.208  1.00  0.00     0.274 C 
HETATM   12  C   UNL     1     -40.143 -48.999  13.995  1.00  0.00     0.055 C 
BRANCH  10  13
HETATM   13  C   UNL     1     -39.001 -51.897  13.792  1.00  0.00     0.277 C 
BRANCH  13  14
HETATM   14  C   UNL     1     -39.720 -53.211  14.137  1.00  0.00     0.014 C 
HETATM   15  C   UNL     1     -40.729 -53.682  13.087  1.00  0.00     0.006 C 
HETATM   16  C   UNL     1     -41.802 -54.460  13.854  1.00  0.00     0.000 C 
HETATM   17  C   UNL     1     -41.489 -54.286  15.336  1.00  0.00     0.000 C 
HETATM   18  C   UNL     1     -40.570 -53.077  15.402  1.00  0.00     0.006 C 
ENDBRANCH  13  14
ENDBRANCH  10  13
ENDBRANCH   3   7
BRANCH   4  19
HETATM   19  C   UNL     1     -41.083 -44.198  11.277  1.00  0.00     0.051 A 
HETATM   20  C   UNL     1     -42.466 -44.090  11.135  1.00  0.00     0.032 A 
HETATM   21  C   UNL     1     -43.064 -42.834  11.055  1.00  0.00     0.019 A 
HETATM   22  C   UNL     1     -42.254 -41.713  11.116  1.00  0.00     0.088 A 
HETATM   23  N   UNL     1     -40.912 -41.767  11.249  1.00  0.00    -0.373 N 
HETATM   24  C   UNL     1     -40.362 -43.006  11.324  1.00  0.00     0.117 A 
ATOM     25  HN  UNL     1     -40.342 -40.921  11.290  1.00  0.00     0.164 HD
ENDBRANCH   4  19
TORSDOF 4
ENDMDL
MODEL 9
REMARK VINA RESULT:      -5.1      4.638      5.671
REMARK  4 active torsions:
REMARK  status: ('A' for Active; 'I' for Inactive)
REMARK       I    between atoms: C_2  and  N_3 
REMARK       I    between atoms: C_2  and  N_16 
REMARK    1  A    between atoms: N_3  and  C_4 
REMARK    2  A    between atoms: N_7  and  C_8 
REMARK    3  A    between atoms: C_8  and  C_9 
REMARK    4  A    between atoms: N_16  and  C_17 
ROOT
HETATM    1  O   UNL     1     -39.567 -53.919  13.310  1.00  0.00    -0.247 OA
HETATM    2  C   UNL     1     -39.636 -53.114  14.230  1.00  0.00     0.321 C 
HETATM    3  N   UNL     1     -39.709 -51.755  14.005  1.00  0.00    -0.338 N 
HETATM    4  N   UNL     1     -39.659 -53.415  15.570  1.00  0.00    -0.308 N 
HETATM    5  H   UNL     1     -39.794 -51.128  14.791  1.00  0.00     0.164 HD
HETATM    6  H   UNL     1     -39.373 -52.680  16.199  1.00  0.00     0.170 HD
ENDROOT
BRANCH   3   7
HETATM    7  C   UNL     1     -39.596 -51.204  12.655  1.00  0.00     0.089 C 
HETATM    8  C   UNL     1     -39.234 -49.716  12.701  1.00  0.00     0.055 C 
HETATM    9  C   UNL     1     -40.442 -48.868  13.096  1.00  0.00     0.274 C 
HETATM   10  N   UNL     1     -41.602 -49.051  12.212  1.00  0.00     0.088 N 
HETATM   11  C   UNL     1     -41.997 -50.471  12.197  1.00  0.00     0.274 C 
HETATM   12  C   UNL     1     -40.867 -51.441  11.836  1.00  0.00     0.055 C 
BRANCH  10  13
HETATM   13  C   UNL     1     -41.413 -48.533  10.844  1.00  0.00     0.277 C 
BRANCH  13  14
HETATM   14  C   UNL     1     -42.502 -47.574  10.334  1.00  0.00     0.014 C 
HETATM   15  C   UNL     1     -43.871 -47.753  10.994  1.00  0.00     0.006 C 
HETATM   16  C   UNL     1     -44.902 -47.336   9.941  1.00  0.00     0.000 C 
HETATM   17  C   UNL     1     -44.130 -47.086   8.650  1.00  0.00     0.000 C 
HETATM   18  C   UNL     1     -42.799 -47.793   8.849  1.00  0.00     0.006 C 
ENDBRANCH  13  14
ENDBRANCH  10  13
ENDBRANCH   3   7
BRANCH   4  19
HETATM   19  C   UNL     1     -39.834 -54.702  16.126  1.00  0.00     0.051 A 
HETATM   20  C   UNL     1     -41.080 -55.294  16.334  1.00  0.00     0.032 A 
HETATM   21  C   UNL     1     -41.165 -56.552  16.925  1.00  0.00     0.019 A 
HETATM   22  C   UNL     1     -39.993 -57.186  17.300  1.00  0.00     0.088 A 
HETATM   23  N   UNL     1     -38.766 -56.654  17.123  1.00  0.00    -0.373 N 
HETATM   24  C   UNL     1     -38.718 -55.427  16.544  1.00  0.00     0.117 A 
ATOM     25  HN  UNL     1     -37.920 -57.146  17.410  1.00  0.00     0.164 HD
ENDBRANCH   4  19
TORSDOF 4
ENDMDL
