MODEL 1
REMARK VINA RESULT:      -6.8      0.000      0.000
REMARK  8 active torsions:
REMARK  status: ('A' for Active; 'I' for Inactive)
REMARK    1  A    between atoms: N_2  and  C_15 
REMARK    2  A    between atoms: C_6  and  N_8 
REMARK    3  A    between atoms: N_8  and  C_19 
REMARK    4  A    between atoms: C_13  and  C_15 
REMARK    5  A    between atoms: C_13  and  C_26 
REMARK    6  A    between atoms: C_14  and  C_19 
REMARK       I    between atoms: C_14  and  N_17 
REMARK    7  A    between atoms: C_16  and  N_17 
REMARK    8  A    between atoms: C_26  and  O_28 
ROOT
HETATM    1  C   UNL     1     -42.483 -50.094  12.780  1.00  0.00     0.117 A 
HETATM    2  N   UNL     1     -43.655 -51.411  14.115  1.00  0.00    -0.326 N 
HETATM    3  C   UNL     1     -42.706 -51.429  13.123  1.00  0.00     0.140 A 
HETATM    4  N   UNL     1     -43.301 -49.288  13.559  1.00  0.00    -0.346 N 
ATOM      5  HN  UNL     1     -43.367 -48.271  13.527  1.00  0.00     0.167 HD
HETATM    6  C   UNL     1     -41.502 -49.824  11.767  1.00  0.00     0.114 A 
HETATM    7  C   UNL     1     -43.973 -50.097  14.345  1.00  0.00     0.185 A 
HETATM    8  N   UNL     1     -42.109 -52.516  12.608  1.00  0.00    -0.336 N 
ATOM      9  HN  UNL     1     -42.313 -53.477  12.885  1.00  0.00     0.168 HD
HETATM   10  N   UNL     1     -40.875 -50.925  11.255  1.00  0.00    -0.341 N 
ATOM     11  HN  UNL     1     -40.152 -50.809  10.546  1.00  0.00     0.167 HD
HETATM   12  C   UNL     1     -41.204 -52.162  11.677  1.00  0.00     0.183 A 
ENDROOT
BRANCH   6  13
HETATM   13  N   UNL     1     -41.049 -48.569  11.303  1.00  0.00    -0.263 NA
HETATM   14  C   UNL     1     -39.847 -48.008  11.935  1.00  0.00     0.119 C 
BRANCH  13  15
HETATM   15  C   UNL     1     -42.128 -47.548  11.144  1.00  0.00     0.199 C 
BRANCH  15  16
HETATM   16  C   UNL     1     -43.069 -47.623   9.934  1.00  0.00     0.231 C 
HETATM   17  N   UNL     1     -44.432 -47.504  10.121  1.00  0.00    -0.355 N 
HETATM   18  H   UNL     1     -44.728 -47.153  11.025  1.00  0.00     0.162 HD
HETATM   19  O   UNL     1     -42.584 -47.833   8.813  1.00  0.00    -0.272 OA
BRANCH  17  20
HETATM   20  C   UNL     1     -45.337 -47.534   8.999  1.00  0.00     0.084 A 
HETATM   21  C   UNL     1     -46.768 -47.083   9.138  1.00  0.00     0.027 A 
HETATM   22  C   UNL     1     -46.461 -48.528   8.881  1.00  0.00     0.027 A 
ENDBRANCH  17  20
ENDBRANCH  15  16
ENDBRANCH  13  15
ENDBRANCH   6  13
BRANCH   2  23
HETATM   23  C   UNL     1     -44.129 -52.547  14.911  1.00  0.00     0.147 C 
BRANCH  23  24
HETATM   24  C   UNL     1     -45.312 -53.308  14.324  1.00  0.00     0.040 C 
HETATM   25  C   UNL     1     -46.079 -54.229  15.296  1.00  0.00     0.183 C 
HETATM   26  O   UNL     1     -46.000 -55.331  14.358  1.00  0.00    -0.389 OA
HETATM   27  C   UNL     1     -44.940 -54.646  13.638  1.00  0.00     0.183 C 
BRANCH  24  28
HETATM   28  C   UNL     1     -46.243 -52.466  13.458  1.00  0.00     0.179 C 
BRANCH  28  29
HETATM   29  O   UNL     1     -46.393 -53.083  12.183  1.00  0.00    -0.400 OA
HETATM   30  H   UNL     1     -45.635 -52.795  11.635  1.00  0.00     0.209 HD
ENDBRANCH  28  29
ENDBRANCH  24  28
ENDBRANCH  23  24
ENDBRANCH   2  23
TORSDOF 8
ENDMDL
MODEL 2
REMARK VINA RESULT:      -6.7      1.933      2.560
REMARK  8 active torsions:
REMARK  status: ('A' for Active; 'I' for Inactive)
REMARK    1  A    between atoms: N_2  and  C_15 
REMARK    2  A    between atoms: C_6  and  N_8 
REMARK    3  A    between atoms: N_8  and  C_19 
REMARK    4  A    between atoms: C_13  and  C_15 
REMARK    5  A    between atoms: C_13  and  C_26 
REMARK    6  A    between atoms: C_14  and  C_19 
REMARK       I    between atoms: C_14  and  N_17 
REMARK    7  A    between atoms: C_16  and  N_17 
REMARK    8  A    between atoms: C_26  and  O_28 
ROOT
HETATM    1  C   UNL     1     -41.615 -49.138  11.957  1.00  0.00     0.117 A 
HETATM    2  N   UNL     1     -42.083 -50.911  13.193  1.00  0.00    -0.326 N 
HETATM    3  C   UNL     1     -41.058 -50.285  12.526  1.00  0.00     0.140 A 
HETATM    4  N   UNL     1     -42.963 -49.086  12.279  1.00  0.00    -0.346 N 
ATOM      5  HN  UNL     1     -43.633 -48.371  11.997  1.00  0.00     0.167 HD
HETATM    6  C   UNL     1     -40.741 -48.275  11.214  1.00  0.00     0.114 A 
HETATM    7  C   UNL     1     -43.205 -50.144  13.019  1.00  0.00     0.185 A 
HETATM    8  N   UNL     1     -39.781 -50.695  12.456  1.00  0.00    -0.336 N 
ATOM      9  HN  UNL     1     -39.422 -51.551  12.882  1.00  0.00     0.168 HD
HETATM   10  N   UNL     1     -39.435 -48.676  11.158  1.00  0.00    -0.341 N 
ATOM     11  HN  UNL     1     -38.752 -48.103  10.664  1.00  0.00     0.167 HD
HETATM   12  C   UNL     1     -39.042 -49.822  11.749  1.00  0.00     0.183 A 
ENDROOT
BRANCH   6  13
HETATM   13  N   UNL     1     -41.044 -47.033  10.613  1.00  0.00    -0.263 NA
HETATM   14  C   UNL     1     -40.040 -45.966  10.723  1.00  0.00     0.119 C 
BRANCH  13  15
HETATM   15  C   UNL     1     -42.425 -46.536  10.893  1.00  0.00     0.199 C 
BRANCH  15  16
HETATM   16  C   UNL     1     -43.482 -46.571   9.782  1.00  0.00     0.231 C 
HETATM   17  N   UNL     1     -44.438 -47.569   9.781  1.00  0.00    -0.355 N 
HETATM   18  H   UNL     1     -44.526 -48.103  10.639  1.00  0.00     0.162 HD
HETATM   19  O   UNL     1     -43.429 -45.723   8.881  1.00  0.00    -0.272 OA
BRANCH  17  20
HETATM   20  C   UNL     1     -45.466 -47.606   8.771  1.00  0.00     0.084 A 
HETATM   21  C   UNL     1     -46.844 -47.060   9.039  1.00  0.00     0.027 A 
HETATM   22  C   UNL     1     -46.649 -48.533   8.841  1.00  0.00     0.027 A 
ENDBRANCH  17  20
ENDBRANCH  15  16
ENDBRANCH  13  15
ENDBRANCH   6  13
BRANCH   2  23
HETATM   23  C   UNL     1     -41.986 -52.081  14.070  1.00  0.00     0.147 C 
BRANCH  23  24
HETATM   24  C   UNL     1     -42.308 -53.419  13.415  1.00  0.00     0.040 C 
HETATM   25  C   UNL     1     -43.477 -53.421  12.408  1.00  0.00     0.183 C 
HETATM   26  O   UNL     1     -44.076 -54.566  13.063  1.00  0.00    -0.389 OA
HETATM   27  C   UNL     1     -43.255 -54.327  14.238  1.00  0.00     0.183 C 
BRANCH  24  28
HETATM   28  C   UNL     1     -41.092 -54.185  12.903  1.00  0.00     0.179 C 
BRANCH  28  29
HETATM   29  O   UNL     1     -40.652 -53.612  11.676  1.00  0.00    -0.400 OA
HETATM   30  H   UNL     1     -40.328 -52.711  11.880  1.00  0.00     0.209 HD
ENDBRANCH  28  29
ENDBRANCH  24  28
ENDBRANCH  23  24
ENDBRANCH   2  23
TORSDOF 8
ENDMDL
MODEL 3
REMARK VINA RESULT:      -6.4      1.029      2.250
REMARK  8 active torsions:
REMARK  status: ('A' for Active; 'I' for Inactive)
REMARK    1  A    between atoms: N_2  and  C_15 
REMARK    2  A    between atoms: C_6  and  N_8 
REMARK    3  A    between atoms: N_8  and  C_19 
REMARK    4  A    between atoms: C_13  and  C_15 
REMARK    5  A    between atoms: C_13  and  C_26 
REMARK    6  A    between atoms: C_14  and  C_19 
REMARK       I    between atoms: C_14  and  N_17 
REMARK    7  A    between atoms: C_16  and  N_17 
REMARK    8  A    between atoms: C_26  and  O_28 
ROOT
HETATM    1  C   UNL     1     -42.304 -50.452  12.604  1.00  0.00     0.117 A 
HETATM    2  N   UNL     1     -42.946 -52.365  13.509  1.00  0.00    -0.326 N 
HETATM    3  C   UNL     1     -42.934 -51.008  13.719  1.00  0.00     0.140 A 
HETATM    4  N   UNL     1     -41.936 -51.474  11.741  1.00  0.00    -0.346 N 
ATOM      5  HN  UNL     1     -41.449 -51.378  10.850  1.00  0.00     0.167 HD
HETATM    6  C   UNL     1     -42.180 -49.023  12.555  1.00  0.00     0.114 A 
HETATM    7  C   UNL     1     -42.340 -52.592  12.301  1.00  0.00     0.185 A 
HETATM    8  N   UNL     1     -43.445 -50.358  14.778  1.00  0.00    -0.336 N 
ATOM      9  HN  UNL     1     -43.890 -50.810  15.577  1.00  0.00     0.168 HD
HETATM   10  N   UNL     1     -42.717 -48.355  13.620  1.00  0.00    -0.341 N 
ATOM     11  HN  UNL     1     -42.685 -47.336  13.645  1.00  0.00     0.167 HD
HETATM   12  C   UNL     1     -43.289 -49.029  14.637  1.00  0.00     0.183 A 
ENDROOT
BRANCH   6  13
HETATM   13  N   UNL     1     -41.654 -48.227  11.513  1.00  0.00    -0.263 NA
HETATM   14  C   UNL     1     -40.197 -48.041  11.474  1.00  0.00     0.119 C 
BRANCH  13  15
HETATM   15  C   UNL     1     -42.390 -46.947  11.288  1.00  0.00     0.199 C 
BRANCH  15  16
HETATM   16  C   UNL     1     -43.345 -46.823  10.093  1.00  0.00     0.231 C 
HETATM   17  N   UNL     1     -44.399 -47.707   9.967  1.00  0.00    -0.355 N 
HETATM   18  H   UNL     1     -44.618 -48.259  10.790  1.00  0.00     0.162 HD
HETATM   19  O   UNL     1     -43.123 -45.953   9.239  1.00  0.00    -0.272 OA
BRANCH  17  20
HETATM   20  C   UNL     1     -45.333 -47.592   8.875  1.00  0.00     0.084 A 
HETATM   21  C   UNL     1     -46.714 -47.029   9.086  1.00  0.00     0.027 A 
HETATM   22  C   UNL     1     -46.542 -48.477   8.737  1.00  0.00     0.027 A 
ENDBRANCH  17  20
ENDBRANCH  15  16
ENDBRANCH  13  15
ENDBRANCH   6  13
BRANCH   2  23
HETATM   23  C   UNL     1     -43.620 -53.382  14.321  1.00  0.00     0.147 C 
BRANCH  23  24
HETATM   24  C   UNL     1     -45.078 -53.644  13.962  1.00  0.00     0.040 C 
HETATM   25  C   UNL     1     -45.666 -52.781  12.826  1.00  0.00     0.183 C 
HETATM   26  O   UNL     1     -46.816 -52.443  13.641  1.00  0.00    -0.389 OA
HETATM   27  C   UNL     1     -46.103 -52.874  14.831  1.00  0.00     0.183 C 
BRANCH  24  28
HETATM   28  C   UNL     1     -45.444 -55.119  13.827  1.00  0.00     0.179 C 
BRANCH  28  29
HETATM   29  O   UNL     1     -46.720 -55.348  14.416  1.00  0.00    -0.400 OA
HETATM   30  H   UNL     1     -47.350 -54.741  13.977  1.00  0.00     0.209 HD
ENDBRANCH  28  29
ENDBRANCH  24  28
ENDBRANCH  23  24
ENDBRANCH   2  23
TORSDOF 8
ENDMDL
MODEL 4
REMARK VINA RESULT:      -6.4      1.903      6.057
REMARK  8 active torsions:
REMARK  status: ('A' for Active; 'I' for Inactive)
REMARK    1  A    between atoms: N_2  and  C_15 
REMARK    2  A    between atoms: C_6  and  N_8 
REMARK    3  A    between atoms: N_8  and  C_19 
REMARK    4  A    between atoms: C_13  and  C_15 
REMARK    5  A    between atoms: C_13  and  C_26 
REMARK    6  A    between atoms: C_14  and  C_19 
REMARK       I    between atoms: C_14  and  N_17 
REMARK    7  A    between atoms: C_16  and  N_17 
REMARK    8  A    between atoms: C_26  and  O_28 
ROOT
HETATM    1  C   UNL     1     -41.863 -49.985  12.213  1.00  0.00     0.117 A 
HETATM    2  N   UNL     1     -42.464 -48.104  11.217  1.00  0.00    -0.326 N 
HETATM    3  C   UNL     1     -41.413 -48.977  11.358  1.00  0.00     0.140 A 
HETATM    4  N   UNL     1     -43.171 -49.708  12.584  1.00  0.00    -0.346 N 
ATOM      5  HN  UNL     1     -43.759 -50.259  13.209  1.00  0.00     0.167 HD
HETATM    6  C   UNL     1     -40.954 -51.055  12.512  1.00  0.00     0.114 A 
HETATM    7  C   UNL     1     -43.500 -48.595  11.969  1.00  0.00     0.185 A 
HETATM    8  N   UNL     1     -40.208 -48.878  10.772  1.00  0.00    -0.336 N 
ATOM      9  HN  UNL     1     -39.921 -48.114  10.160  1.00  0.00     0.168 HD
HETATM   10  N   UNL     1     -39.734 -50.972  11.902  1.00  0.00    -0.341 N 
ATOM     11  HN  UNL     1     -39.044 -51.708  12.051  1.00  0.00     0.167 HD
HETATM   12  C   UNL     1     -39.434 -49.927  11.105  1.00  0.00     0.183 A 
ENDROOT
BRANCH   6  13
HETATM   13  N   UNL     1     -41.195 -52.216  13.282  1.00  0.00    -0.263 NA
HETATM   14  C   UNL     1     -40.039 -52.847  13.933  1.00  0.00     0.119 C 
BRANCH  13  15
HETATM   15  C   UNL     1     -42.084 -53.218  12.620  1.00  0.00     0.199 C 
BRANCH  15  16
HETATM   16  C   UNL     1     -43.568 -53.285  13.005  1.00  0.00     0.231 C 
HETATM   17  N   UNL     1     -44.497 -52.581  12.262  1.00  0.00    -0.355 N 
HETATM   18  H   UNL     1     -44.178 -52.230  11.366  1.00  0.00     0.162 HD
HETATM   19  O   UNL     1     -43.896 -53.939  14.004  1.00  0.00    -0.272 OA
BRANCH  17  20
HETATM   20  C   UNL     1     -45.902 -52.655  12.578  1.00  0.00     0.084 A 
HETATM   21  C   UNL     1     -46.898 -51.732  11.925  1.00  0.00     0.027 A 
HETATM   22  C   UNL     1     -46.614 -51.608  13.392  1.00  0.00     0.027 A 
ENDBRANCH  17  20
ENDBRANCH  15  16
ENDBRANCH  13  15
ENDBRANCH   6  13
BRANCH   2  23
HETATM   23  C   UNL     1     -42.548 -46.956  10.311  1.00  0.00     0.147 C 
BRANCH  23  24
HETATM   24  C   UNL     1     -43.606 -47.060   9.219  1.00  0.00     0.040 C 
HETATM   25  C   UNL     1     -44.318 -45.747   8.832  1.00  0.00     0.183 C 
HETATM   26  O   UNL     1     -45.616 -46.379   8.964  1.00  0.00    -0.389 OA
HETATM   27  C   UNL     1     -45.014 -47.462   9.724  1.00  0.00     0.183 C 
BRANCH  24  28
HETATM   28  C   UNL     1     -43.186 -47.878   8.003  1.00  0.00     0.179 C 
BRANCH  28  29
HETATM   29  O   UNL     1     -44.344 -48.305   7.293  1.00  0.00    -0.400 OA
HETATM   30  H   UNL     1     -44.046 -48.950   6.621  1.00  0.00     0.209 HD
ENDBRANCH  28  29
ENDBRANCH  24  28
ENDBRANCH  23  24
ENDBRANCH   2  23
TORSDOF 8
ENDMDL
MODEL 5
REMARK VINA RESULT:      -6.4      2.598      6.794
REMARK  8 active torsions:
REMARK  status: ('A' for Active; 'I' for Inactive)
REMARK    1  A    between atoms: N_2  and  C_15 
REMARK    2  A    between atoms: C_6  and  N_8 
REMARK    3  A    between atoms: N_8  and  C_19 
REMARK    4  A    between atoms: C_13  and  C_15 
REMARK    5  A    between atoms: C_13  and  C_26 
REMARK    6  A    between atoms: C_14  and  C_19 
REMARK       I    between atoms: C_14  and  N_17 
REMARK    7  A    between atoms: C_16  and  N_17 
REMARK    8  A    between atoms: C_26  and  O_28 
ROOT
HETATM    1  C   UNL     1     -41.468 -49.899  12.170  1.00  0.00     0.117 A 
HETATM    2  N   UNL     1     -41.880 -47.972  11.165  1.00  0.00    -0.326 N 
HETATM    3  C   UNL     1     -40.877 -48.872  11.431  1.00  0.00     0.140 A 
HETATM    4  N   UNL     1     -42.813 -49.607  12.348  1.00  0.00    -0.346 N 
ATOM      5  HN  UNL     1     -43.499 -50.165  12.855  1.00  0.00     0.167 HD
HETATM    6  C   UNL     1     -40.634 -50.998  12.563  1.00  0.00     0.114 A 
HETATM    7  C   UNL     1     -43.026 -48.466  11.731  1.00  0.00     0.185 A 
HETATM    8  N   UNL     1     -39.596 -48.780  11.040  1.00  0.00    -0.336 N 
ATOM      9  HN  UNL     1     -39.206 -48.002  10.507  1.00  0.00     0.168 HD
HETATM   10  N   UNL     1     -39.334 -50.921  12.150  1.00  0.00    -0.341 N 
ATOM     11  HN  UNL     1     -38.687 -51.676  12.375  1.00  0.00     0.167 HD
HETATM   12  C   UNL     1     -38.898 -49.856  11.447  1.00  0.00     0.183 A 
ENDROOT
BRANCH   6  13
HETATM   13  N   UNL     1     -41.009 -52.179  13.244  1.00  0.00    -0.263 NA
HETATM   14  C   UNL     1     -39.937 -52.974  13.858  1.00  0.00     0.119 C 
BRANCH  13  15
HETATM   15  C   UNL     1     -41.986 -53.031  12.502  1.00  0.00     0.199 C 
BRANCH  15  16
HETATM   16  C   UNL     1     -43.441 -53.108  12.983  1.00  0.00     0.231 C 
HETATM   17  N   UNL     1     -44.445 -52.560  12.209  1.00  0.00    -0.355 N 
HETATM   18  H   UNL     1     -44.195 -52.326  11.255  1.00  0.00     0.162 HD
HETATM   19  O   UNL     1     -43.679 -53.627  14.083  1.00  0.00    -0.272 OA
BRANCH  17  20
HETATM   20  C   UNL     1     -45.825 -52.650  12.618  1.00  0.00     0.084 A 
HETATM   21  C   UNL     1     -46.880 -51.766  12.004  1.00  0.00     0.027 A 
HETATM   22  C   UNL     1     -46.504 -51.592  13.445  1.00  0.00     0.027 A 
ENDBRANCH  17  20
ENDBRANCH  15  16
ENDBRANCH  13  15
ENDBRANCH   6  13
BRANCH   2  23
HETATM   23  C   UNL     1     -41.806 -46.792  10.299  1.00  0.00     0.147 C 
BRANCH  23  24
HETATM   24  C   UNL     1     -41.255 -45.532  10.957  1.00  0.00     0.040 C 
HETATM   25  C   UNL     1     -41.238 -45.521  12.500  1.00  0.00     0.183 C 
HETATM   26  O   UNL     1     -41.883 -44.223  12.525  1.00  0.00    -0.389 OA
HETATM   27  C   UNL     1     -42.292 -44.397  11.141  1.00  0.00     0.183 C 
BRANCH  24  28
HETATM   28  C   UNL     1     -39.952 -45.018  10.353  1.00  0.00     0.179 C 
BRANCH  28  29
HETATM   29  O   UNL     1     -40.073 -43.626  10.077  1.00  0.00    -0.400 OA
HETATM   30  H   UNL     1     -40.739 -43.532   9.366  1.00  0.00     0.209 HD
ENDBRANCH  28  29
ENDBRANCH  24  28
ENDBRANCH  23  24
ENDBRANCH   2  23
TORSDOF 8
ENDMDL
MODEL 6
REMARK VINA RESULT:      -6.2      2.970      4.217
REMARK  8 active torsions:
REMARK  status: ('A' for Active; 'I' for Inactive)
REMARK    1  A    between atoms: N_2  and  C_15 
REMARK    2  A    between atoms: C_6  and  N_8 
REMARK    3  A    between atoms: N_8  and  C_19 
REMARK    4  A    between atoms: C_13  and  C_15 
REMARK    5  A    between atoms: C_13  and  C_26 
REMARK    6  A    between atoms: C_14  and  C_19 
REMARK       I    between atoms: C_14  and  N_17 
REMARK    7  A    between atoms: C_16  and  N_17 
REMARK    8  A    between atoms: C_26  and  O_28 
ROOT
HETATM    1  C   UNL     1     -40.131 -48.211  12.015  1.00  0.00     0.117 A 
HETATM    2  N   UNL     1     -39.337 -49.929  13.159  1.00  0.00    -0.326 N 
HETATM    3  C   UNL     1     -40.278 -48.930  13.203  1.00  0.00     0.140 A 
HETATM    4  N   UNL     1     -39.103 -48.775  11.273  1.00  0.00    -0.346 N 
ATOM      5  HN  UNL     1     -38.758 -48.461  10.366  1.00  0.00     0.167 HD
HETATM    6  C   UNL     1     -41.023 -47.109  11.791  1.00  0.00     0.114 A 
HETATM    7  C   UNL     1     -38.662 -49.796  11.973  1.00  0.00     0.185 A 
HETATM    8  N   UNL     1     -41.166 -48.710  14.187  1.00  0.00    -0.336 N 
ATOM      9  HN  UNL     1     -41.229 -49.258  15.045  1.00  0.00     0.168 HD
HETATM   10  N   UNL     1     -41.942 -46.894  12.780  1.00  0.00    -0.341 N 
ATOM     11  HN  UNL     1     -42.623 -46.140  12.680  1.00  0.00     0.167 HD
HETATM   12  C   UNL     1     -41.959 -47.667  13.884  1.00  0.00     0.183 A 
ENDROOT
BRANCH   6  13
HETATM   13  N   UNL     1     -41.122 -46.283  10.649  1.00  0.00    -0.263 NA
HETATM   14  C   UNL     1     -39.978 -45.413  10.343  1.00  0.00     0.119 C 
BRANCH  13  15
HETATM   15  C   UNL     1     -42.424 -45.563  10.522  1.00  0.00     0.199 C 
BRANCH  15  16
HETATM   16  C   UNL     1     -43.424 -45.992   9.440  1.00  0.00     0.231 C 
HETATM   17  N   UNL     1     -44.678 -46.439   9.809  1.00  0.00    -0.355 N 
HETATM   18  H   UNL     1     -44.953 -46.254  10.767  1.00  0.00     0.162 HD
HETATM   19  O   UNL     1     -43.067 -45.967   8.254  1.00  0.00    -0.272 OA
BRANCH  17  20
HETATM   20  C   UNL     1     -45.651 -46.813   8.812  1.00  0.00     0.084 A 
HETATM   21  C   UNL     1     -46.988 -47.386   9.203  1.00  0.00     0.027 A 
HETATM   22  C   UNL     1     -45.986 -48.245   8.493  1.00  0.00     0.027 A 
ENDBRANCH  17  20
ENDBRANCH  15  16
ENDBRANCH  13  15
ENDBRANCH   6  13
BRANCH   2  23
HETATM   23  C   UNL     1     -39.178 -51.039  14.103  1.00  0.00     0.147 C 
BRANCH  23  24
HETATM   24  C   UNL     1     -39.954 -52.305  13.760  1.00  0.00     0.040 C 
HETATM   25  C   UNL     1     -40.636 -52.333  12.376  1.00  0.00     0.183 C 
HETATM   26  O   UNL     1     -41.890 -52.749  12.972  1.00  0.00    -0.389 OA
HETATM   27  C   UNL     1     -41.413 -52.325  14.278  1.00  0.00     0.183 C 
BRANCH  24  28
HETATM   28  C   UNL     1     -39.221 -53.605  14.079  1.00  0.00     0.179 C 
BRANCH  28  29
HETATM   29  O   UNL     1     -39.520 -54.575  13.081  1.00  0.00    -0.400 OA
HETATM   30  H   UNL     1     -40.045 -55.279  13.515  1.00  0.00     0.209 HD
ENDBRANCH  28  29
ENDBRANCH  24  28
ENDBRANCH  23  24
ENDBRANCH   2  23
TORSDOF 8
ENDMDL
MODEL 7
REMARK VINA RESULT:      -5.9      2.488      6.525
REMARK  8 active torsions:
REMARK  status: ('A' for Active; 'I' for Inactive)
REMARK    1  A    between atoms: N_2  and  C_15 
REMARK    2  A    between atoms: C_6  and  N_8 
REMARK    3  A    between atoms: N_8  and  C_19 
REMARK    4  A    between atoms: C_13  and  C_15 
REMARK    5  A    between atoms: C_13  and  C_26 
REMARK    6  A    between atoms: C_14  and  C_19 
REMARK       I    between atoms: C_14  and  N_17 
REMARK    7  A    between atoms: C_16  and  N_17 
REMARK    8  A    between atoms: C_26  and  O_28 
ROOT
HETATM    1  C   UNL     1     -40.826 -50.884  12.801  1.00  0.00     0.117 A 
HETATM    2  N   UNL     1     -40.413 -48.875  11.975  1.00  0.00    -0.326 N 
HETATM    3  C   UNL     1     -40.746 -49.531  13.135  1.00  0.00     0.140 A 
HETATM    4  N   UNL     1     -40.549 -51.031  11.450  1.00  0.00    -0.346 N 
ATOM      5  HN  UNL     1     -40.541 -51.900  10.917  1.00  0.00     0.167 HD
HETATM    6  C   UNL     1     -41.140 -51.809  13.853  1.00  0.00     0.114 A 
HETATM    7  C   UNL     1     -40.298 -49.825  10.993  1.00  0.00     0.185 A 
HETATM    8  N   UNL     1     -40.937 -48.973  14.342  1.00  0.00    -0.336 N 
ATOM      9  HN  UNL     1     -40.878 -47.974  14.535  1.00  0.00     0.168 HD
HETATM   10  N   UNL     1     -41.314 -51.250  15.088  1.00  0.00    -0.341 N 
ATOM     11  HN  UNL     1     -41.519 -51.849  15.888  1.00  0.00     0.167 HD
HETATM   12  C   UNL     1     -41.217 -49.917  15.259  1.00  0.00     0.183 A 
ENDROOT
BRANCH   6  13
HETATM   13  N   UNL     1     -41.204 -53.219  13.785  1.00  0.00    -0.263 NA
HETATM   14  C   UNL     1     -39.933 -53.952  13.718  1.00  0.00     0.119 C 
BRANCH  13  15
HETATM   15  C   UNL     1     -42.205 -53.741  12.807  1.00  0.00     0.199 C 
BRANCH  15  16
HETATM   16  C   UNL     1     -43.701 -53.666  13.141  1.00  0.00     0.231 C 
HETATM   17  N   UNL     1     -44.496 -52.733  12.503  1.00  0.00    -0.355 N 
HETATM   18  H   UNL     1     -44.094 -52.290  11.685  1.00  0.00     0.162 HD
HETATM   19  O   UNL     1     -44.157 -54.420  14.012  1.00  0.00    -0.272 OA
BRANCH  17  20
HETATM   20  C   UNL     1     -45.912 -52.663  12.770  1.00  0.00     0.084 A 
HETATM   21  C   UNL     1     -46.798 -51.696  12.030  1.00  0.00     0.027 A 
HETATM   22  C   UNL     1     -46.551 -51.512  13.497  1.00  0.00     0.027 A 
ENDBRANCH  17  20
ENDBRANCH  15  16
ENDBRANCH  13  15
ENDBRANCH   6  13
BRANCH   2  23
HETATM   23  C   UNL     1     -40.072 -47.458  11.824  1.00  0.00     0.147 C 
BRANCH  23  24
HETATM   24  C   UNL     1     -41.241 -46.534  11.503  1.00  0.00     0.040 C 
HETATM   25  C   UNL     1     -42.156 -46.972  10.340  1.00  0.00     0.183 C 
HETATM   26  O   UNL     1     -42.060 -45.659   9.733  1.00  0.00    -0.389 OA
HETATM   27  C   UNL     1     -40.893 -45.365  10.548  1.00  0.00     0.183 C 
BRANCH  24  28
HETATM   28  C   UNL     1     -42.027 -46.057  12.719  1.00  0.00     0.179 C 
BRANCH  28  29
HETATM   29  O   UNL     1     -43.420 -46.231  12.483  1.00  0.00    -0.400 OA
HETATM   30  H   UNL     1     -43.854 -45.379  12.694  1.00  0.00     0.209 HD
ENDBRANCH  28  29
ENDBRANCH  24  28
ENDBRANCH  23  24
ENDBRANCH   2  23
TORSDOF 8
ENDMDL
MODEL 8
REMARK VINA RESULT:      -5.8      3.823      4.541
REMARK  8 active torsions:
REMARK  status: ('A' for Active; 'I' for Inactive)
REMARK    1  A    between atoms: N_2  and  C_15 
REMARK    2  A    between atoms: C_6  and  N_8 
REMARK    3  A    between atoms: N_8  and  C_19 
REMARK    4  A    between atoms: C_13  and  C_15 
REMARK    5  A    between atoms: C_13  and  C_26 
REMARK    6  A    between atoms: C_14  and  C_19 
REMARK       I    between atoms: C_14  and  N_17 
REMARK    7  A    between atoms: C_16  and  N_17 
REMARK    8  A    between atoms: C_26  and  O_28 
ROOT
HETATM    1  C   UNL     1     -39.975 -51.142  13.556  1.00  0.00     0.117 A 
HETATM    2  N   UNL     1     -40.350 -52.404  15.333  1.00  0.00    -0.326 N 
HETATM    3  C   UNL     1     -40.639 -52.289  13.995  1.00  0.00     0.140 A 
HETATM    4  N   UNL     1     -39.302 -50.574  14.628  1.00  0.00    -0.346 N 
ATOM      5  HN  UNL     1     -38.739 -49.724  14.617  1.00  0.00     0.167 HD
HETATM    6  C   UNL     1     -40.091 -50.799  12.167  1.00  0.00     0.114 A 
HETATM    7  C   UNL     1     -39.535 -51.352  15.661  1.00  0.00     0.185 A 
HETATM    8  N   UNL     1     -41.394 -53.127  13.265  1.00  0.00    -0.336 N 
ATOM      9  HN  UNL     1     -41.869 -53.951  13.634  1.00  0.00     0.168 HD
HETATM   10  N   UNL     1     -40.841 -51.659  11.415  1.00  0.00    -0.341 N 
ATOM     11  HN  UNL     1     -40.951 -51.491  10.415  1.00  0.00     0.167 HD
HETATM   12  C   UNL     1     -41.436 -52.728  11.981  1.00  0.00     0.183 A 
ENDROOT
BRANCH   6  13
HETATM   13  N   UNL     1     -39.462 -49.741  11.473  1.00  0.00    -0.263 NA
HETATM   14  C   UNL     1     -37.999 -49.646  11.569  1.00  0.00     0.119 C 
BRANCH  13  15
HETATM   15  C   UNL     1     -40.124 -48.413  11.648  1.00  0.00     0.199 C 
BRANCH  15  16
HETATM   16  C   UNL     1     -41.561 -48.212  11.150  1.00  0.00     0.231 C 
HETATM   17  N   UNL     1     -41.781 -47.788   9.854  1.00  0.00    -0.355 N 
HETATM   18  H   UNL     1     -40.986 -47.842   9.227  1.00  0.00     0.162 HD
HETATM   19  O   UNL     1     -42.497 -48.395  11.941  1.00  0.00    -0.272 OA
BRANCH  17  20
HETATM   20  C   UNL     1     -43.122 -47.626   9.347  1.00  0.00     0.084 A 
HETATM   21  C   UNL     1     -43.420 -47.747   7.876  1.00  0.00     0.027 A 
HETATM   22  C   UNL     1     -43.559 -46.420   8.561  1.00  0.00     0.027 A 
ENDBRANCH  17  20
ENDBRANCH  15  16
ENDBRANCH  13  15
ENDBRANCH   6  13
BRANCH   2  23
HETATM   23  C   UNL     1     -40.691 -53.518  16.221  1.00  0.00     0.147 C 
BRANCH  23  24
HETATM   24  C   UNL     1     -39.602 -54.571  16.398  1.00  0.00     0.040 C 
HETATM   25  C   UNL     1     -39.938 -55.747  17.339  1.00  0.00     0.183 C 
HETATM   26  O   UNL     1     -38.690 -55.567  18.053  1.00  0.00    -0.389 OA
HETATM   27  C   UNL     1     -38.554 -54.235  17.488  1.00  0.00     0.183 C 
BRANCH  24  28
HETATM   28  C   UNL     1     -38.944 -55.028  15.100  1.00  0.00     0.179 C 
BRANCH  28  29
HETATM   29  O   UNL     1     -37.899 -55.949  15.396  1.00  0.00    -0.400 OA
HETATM   30  H   UNL     1     -37.676 -55.833  16.342  1.00  0.00     0.209 HD
ENDBRANCH  28  29
ENDBRANCH  24  28
ENDBRANCH  23  24
ENDBRANCH   2  23
TORSDOF 8
ENDMDL
MODEL 9
REMARK VINA RESULT:      -5.8      1.845      2.654
REMARK  8 active torsions:
REMARK  status: ('A' for Active; 'I' for Inactive)
REMARK    1  A    between atoms: N_2  and  C_15 
REMARK    2  A    between atoms: C_6  and  N_8 
REMARK    3  A    between atoms: N_8  and  C_19 
REMARK    4  A    between atoms: C_13  and  C_15 
REMARK    5  A    between atoms: C_13  and  C_26 
REMARK    6  A    between atoms: C_14  and  C_19 
REMARK       I    between atoms: C_14  and  N_17 
REMARK    7  A    between atoms: C_16  and  N_17 
REMARK    8  A    between atoms: C_26  and  O_28 
ROOT
HETATM    1  C   UNL     1     -41.588 -50.687  12.625  1.00  0.00     0.117 A 
HETATM    2  N   UNL     1     -43.164 -52.237  12.600  1.00  0.00    -0.326 N 
HETATM    3  C   UNL     1     -42.860 -50.998  13.109  1.00  0.00     0.140 A 
HETATM    4  N   UNL     1     -41.136 -51.738  11.840  1.00  0.00    -0.346 N 
ATOM      5  HN  UNL     1     -40.238 -51.803  11.361  1.00  0.00     0.167 HD
HETATM    6  C   UNL     1     -41.032 -49.415  12.992  1.00  0.00     0.114 A 
HETATM    7  C   UNL     1     -42.097 -52.634  11.837  1.00  0.00     0.185 A 
HETATM    8  N   UNL     1     -43.643 -50.242  13.896  1.00  0.00    -0.336 N 
ATOM      9  HN  UNL     1     -44.566 -50.518  14.233  1.00  0.00     0.168 HD
HETATM   10  N   UNL     1     -41.833 -48.633  13.775  1.00  0.00    -0.341 N 
ATOM     11  HN  UNL     1     -41.512 -47.707  14.058  1.00  0.00     0.167 HD
HETATM   12  C   UNL     1     -43.042 -49.072  14.177  1.00  0.00     0.183 A 
ENDROOT
BRANCH   6  13
HETATM   13  N   UNL     1     -39.808 -48.845  12.575  1.00  0.00    -0.263 NA
HETATM   14  C   UNL     1     -38.967 -48.221  13.606  1.00  0.00     0.119 C 
BRANCH  13  15
HETATM   15  C   UNL     1     -39.911 -47.999  11.348  1.00  0.00     0.199 C 
BRANCH  15  16
HETATM   16  C   UNL     1     -41.289 -47.515  10.876  1.00  0.00     0.231 C 
HETATM   17  N   UNL     1     -41.853 -48.064   9.741  1.00  0.00    -0.355 N 
HETATM   18  H   UNL     1     -41.425 -48.918   9.399  1.00  0.00     0.162 HD
HETATM   19  O   UNL     1     -41.849 -46.605  11.504  1.00  0.00    -0.272 OA
BRANCH  17  20
HETATM   20  C   UNL     1     -43.162 -47.656   9.295  1.00  0.00     0.084 A 
HETATM   21  C   UNL     1     -43.570 -47.786   7.851  1.00  0.00     0.027 A 
HETATM   22  C   UNL     1     -43.394 -46.427   8.458  1.00  0.00     0.027 A 
ENDBRANCH  17  20
ENDBRANCH  15  16
ENDBRANCH  13  15
ENDBRANCH   6  13
BRANCH   2  23
HETATM   23  C   UNL     1     -44.444 -52.945  12.697  1.00  0.00     0.147 C 
BRANCH  23  24
HETATM   24  C   UNL     1     -44.673 -53.707  13.997  1.00  0.00     0.040 C 
HETATM   25  C   UNL     1     -43.445 -54.429  14.590  1.00  0.00     0.183 C 
HETATM   26  O   UNL     1     -44.203 -55.657  14.734  1.00  0.00    -0.389 OA
HETATM   27  C   UNL     1     -45.206 -55.149  13.813  1.00  0.00     0.183 C 
BRANCH  24  28
HETATM   28  C   UNL     1     -45.466 -52.940  15.051  1.00  0.00     0.179 C 
BRANCH  28  29
HETATM   29  O   UNL     1     -46.112 -53.861  15.923  1.00  0.00    -0.400 OA
HETATM   30  H   UNL     1     -46.171 -54.714  15.446  1.00  0.00     0.209 HD
ENDBRANCH  28  29
ENDBRANCH  24  28
ENDBRANCH  23  24
ENDBRANCH   2  23
TORSDOF 8
ENDMDL
