MODEL 1
REMARK VINA RESULT:      -6.2      0.000      0.000
REMARK  6 active torsions:
REMARK  status: ('A' for Active; 'I' for Inactive)
REMARK    1  A    between atoms: C_2  and  C_3 
REMARK       I    between atoms: N_5  and  C_9 
REMARK    2  A    between atoms: C_9  and  C_11 
REMARK    3  A    between atoms: C_11  and  N_12 
REMARK    4  A    between atoms: N_12  and  C_13 
REMARK    5  A    between atoms: C_13  and  C_15 
REMARK    6  A    between atoms: C_15  and  N_16 
ROOT
HETATM    1  N   UNL     1     -42.145 -50.189  11.887  1.00  0.00     0.098 N 
HETATM    2  H   UNL     1     -43.165 -50.279  11.860  1.00  0.00     0.317 HD
ENDROOT
BRANCH   1   3
HETATM    3  C   UNL     1     -41.656 -51.004  13.014  1.00  0.00     0.372 C 
BRANCH   3   4
HETATM    4  C   UNL     1     -42.814 -51.346  13.963  1.00  0.00     0.248 C 
HETATM    5  N   UNL     1     -43.149 -52.685  14.119  1.00  0.00    -0.346 N 
HETATM    6  C   UNL     1     -44.227 -53.052  15.032  1.00  0.00     0.157 C 
HETATM    7  C   UNL     1     -42.899 -53.711  13.105  1.00  0.00     0.152 C 
HETATM    8  C   UNL     1     -45.518 -53.392  14.257  1.00  0.00     0.139 C 
HETATM    9  O   UNL     1     -45.262 -54.373  13.229  1.00  0.00    -0.383 OA
HETATM   10  C   UNL     1     -44.194 -54.004  12.337  1.00  0.00     0.188 C 
HETATM   11  O   UNL     1     -43.396 -50.445  14.571  1.00  0.00    -0.271 OA
BRANCH   8  12
HETATM   12  C   UNL     1     -46.216 -52.137  13.709  1.00  0.00     0.029 C 
HETATM   13  C   UNL     1     -46.866 -51.304  14.804  1.00  0.00     0.007 C 
ENDBRANCH   8  12
ENDBRANCH   3   4
ENDBRANCH   1   3
BRANCH   1  14
HETATM   14  C   UNL     1     -41.775 -48.762  11.961  1.00  0.00     0.236 C 
HETATM   15  C   UNL     1     -40.536 -48.531  12.835  1.00  0.00     0.044 C 
BRANCH  14  16
HETATM   16  C   UNL     1     -41.605 -48.057  10.592  1.00  0.00     0.183 C 
BRANCH  16  17
HETATM   17  N   UNL     1     -42.824 -47.864   9.825  1.00  0.00    -0.301 N 
HETATM   18  C   UNL     1     -44.055 -47.485  10.279  1.00  0.00     0.118 A 
HETATM   19  C   UNL     1     -44.875 -47.394   9.174  1.00  0.00    -0.028 A 
HETATM   20  C   UNL     1     -46.309 -47.033   9.129  1.00  0.00     0.051 C 
HETATM   21  C   UNL     1     -44.027 -47.718   8.093  1.00  0.00     0.115 A 
HETATM   22  N   UNL     1     -42.783 -48.002   8.482  1.00  0.00    -0.310 N 
ATOM     23  HN  UNL     1     -41.986 -48.263   7.901  1.00  0.00     0.186 HD
ENDBRANCH  16  17
ENDBRANCH  14  16
ENDBRANCH   1  14
TORSDOF 6
ENDMDL
MODEL 2
REMARK VINA RESULT:      -6.0      1.240      2.105
REMARK  6 active torsions:
REMARK  status: ('A' for Active; 'I' for Inactive)
REMARK    1  A    between atoms: C_2  and  C_3 
REMARK       I    between atoms: N_5  and  C_9 
REMARK    2  A    between atoms: C_9  and  C_11 
REMARK    3  A    between atoms: C_11  and  N_12 
REMARK    4  A    between atoms: N_12  and  C_13 
REMARK    5  A    between atoms: C_13  and  C_15 
REMARK    6  A    between atoms: C_15  and  N_16 
ROOT
HETATM    1  N   UNL     1     -42.690 -49.812  11.755  1.00  0.00     0.098 N 
HETATM    2  H   UNL     1     -43.505 -49.268  11.458  1.00  0.00     0.317 HD
ENDROOT
BRANCH   1   3
HETATM    3  C   UNL     1     -42.955 -50.304  13.119  1.00  0.00     0.372 C 
BRANCH   3   4
HETATM    4  C   UNL     1     -43.009 -51.839  13.127  1.00  0.00     0.248 C 
HETATM    5  N   UNL     1     -44.214 -52.446  12.800  1.00  0.00    -0.346 N 
HETATM    6  C   UNL     1     -44.297 -53.904  12.772  1.00  0.00     0.157 C 
HETATM    7  C   UNL     1     -45.521 -51.813  12.981  1.00  0.00     0.152 C 
HETATM    8  C   UNL     1     -45.004 -54.443  14.033  1.00  0.00     0.139 C 
HETATM    9  O   UNL     1     -46.274 -53.788  14.236  1.00  0.00    -0.383 OA
HETATM   10  C   UNL     1     -46.182 -52.351  14.257  1.00  0.00     0.188 C 
HETATM   11  O   UNL     1     -41.994 -52.487  13.397  1.00  0.00    -0.271 OA
BRANCH   8  12
HETATM   12  C   UNL     1     -44.105 -54.376  15.278  1.00  0.00     0.029 C 
HETATM   13  C   UNL     1     -42.913 -55.318  15.191  1.00  0.00     0.007 C 
ENDBRANCH   8  12
ENDBRANCH   3   4
ENDBRANCH   1   3
BRANCH   1  14
HETATM   14  C   UNL     1     -41.472 -48.987  11.631  1.00  0.00     0.236 C 
HETATM   15  C   UNL     1     -40.242 -49.825  11.257  1.00  0.00     0.044 C 
BRANCH  14  16
HETATM   16  C   UNL     1     -41.599 -47.768  10.684  1.00  0.00     0.183 C 
BRANCH  16  17
HETATM   17  N   UNL     1     -42.814 -47.708   9.890  1.00  0.00    -0.301 N 
HETATM   18  C   UNL     1     -44.063 -47.325  10.288  1.00  0.00     0.118 A 
HETATM   19  C   UNL     1     -44.873 -47.389   9.174  1.00  0.00    -0.028 A 
HETATM   20  C   UNL     1     -46.318 -47.088   9.077  1.00  0.00     0.051 C 
HETATM   21  C   UNL     1     -44.002 -47.802   8.144  1.00  0.00     0.115 A 
HETATM   22  N   UNL     1     -42.753 -47.995   8.572  1.00  0.00    -0.310 N 
ATOM     23  HN  UNL     1     -41.941 -48.291   8.031  1.00  0.00     0.186 HD
ENDBRANCH  16  17
ENDBRANCH  14  16
ENDBRANCH   1  14
TORSDOF 6
ENDMDL
MODEL 3
REMARK VINA RESULT:      -5.8      1.498      1.943
REMARK  6 active torsions:
REMARK  status: ('A' for Active; 'I' for Inactive)
REMARK    1  A    between atoms: C_2  and  C_3 
REMARK       I    between atoms: N_5  and  C_9 
REMARK    2  A    between atoms: C_9  and  C_11 
REMARK    3  A    between atoms: C_11  and  N_12 
REMARK    4  A    between atoms: N_12  and  C_13 
REMARK    5  A    between atoms: C_13  and  C_15 
REMARK    6  A    between atoms: C_15  and  N_16 
ROOT
HETATM    1  N   UNL     1     -41.407 -49.219  10.887  1.00  0.00     0.098 N 
HETATM    2  H   UNL     1     -42.393 -49.458  10.746  1.00  0.00     0.317 HD
ENDROOT
BRANCH   1   3
HETATM    3  C   UNL     1     -40.856 -50.163  11.876  1.00  0.00     0.372 C 
BRANCH   3   4
HETATM    4  C   UNL     1     -41.989 -50.770  12.717  1.00  0.00     0.248 C 
HETATM    5  N   UNL     1     -41.659 -51.772  13.620  1.00  0.00    -0.346 N 
HETATM    6  C   UNL     1     -42.704 -52.356  14.456  1.00  0.00     0.157 C 
HETATM    7  C   UNL     1     -40.501 -52.656  13.471  1.00  0.00     0.152 C 
HETATM    8  C   UNL     1     -43.129 -53.741  13.924  1.00  0.00     0.139 C 
HETATM    9  O   UNL     1     -41.983 -54.598  13.736  1.00  0.00    -0.383 OA
HETATM   10  C   UNL     1     -40.956 -54.012  12.915  1.00  0.00     0.188 C 
HETATM   11  O   UNL     1     -43.141 -50.349  12.591  1.00  0.00    -0.271 OA
BRANCH   8  12
HETATM   12  C   UNL     1     -43.997 -53.638  12.661  1.00  0.00     0.029 C 
HETATM   13  C   UNL     1     -45.385 -53.083  12.948  1.00  0.00     0.007 C 
ENDBRANCH   8  12
ENDBRANCH   3   4
ENDBRANCH   1   3
BRANCH   1  14
HETATM   14  C   UNL     1     -41.292 -47.798  11.270  1.00  0.00     0.236 C 
HETATM   15  C   UNL     1     -39.847 -47.405  11.604  1.00  0.00     0.044 C 
BRANCH  14  16
HETATM   16  C   UNL     1     -41.901 -46.794  10.260  1.00  0.00     0.183 C 
BRANCH  16  17
HETATM   17  N   UNL     1     -43.074 -47.257   9.539  1.00  0.00    -0.301 N 
HETATM   18  C   UNL     1     -44.361 -47.341   9.989  1.00  0.00     0.118 A 
HETATM   19  C   UNL     1     -45.124 -47.790   8.932  1.00  0.00    -0.028 A 
HETATM   20  C   UNL     1     -46.577 -48.062   8.905  1.00  0.00     0.051 C 
HETATM   21  C   UNL     1     -44.196 -47.924   7.877  1.00  0.00     0.115 A 
HETATM   22  N   UNL     1     -42.954 -47.600   8.239  1.00  0.00    -0.310 N 
ATOM     23  HN  UNL     1     -42.109 -47.610   7.667  1.00  0.00     0.186 HD
ENDBRANCH  16  17
ENDBRANCH  14  16
ENDBRANCH   1  14
TORSDOF 6
ENDMDL
MODEL 4
REMARK VINA RESULT:      -5.7      2.466      3.499
REMARK  6 active torsions:
REMARK  status: ('A' for Active; 'I' for Inactive)
REMARK    1  A    between atoms: C_2  and  C_3 
REMARK       I    between atoms: N_5  and  C_9 
REMARK    2  A    between atoms: C_9  and  C_11 
REMARK    3  A    between atoms: C_11  and  N_12 
REMARK    4  A    between atoms: N_12  and  C_13 
REMARK    5  A    between atoms: C_13  and  C_15 
REMARK    6  A    between atoms: C_15  and  N_16 
ROOT
HETATM    1  N   UNL     1     -41.559 -50.203  11.333  1.00  0.00     0.098 N 
HETATM    2  H   UNL     1     -42.169 -50.370  10.528  1.00  0.00     0.317 HD
ENDROOT
BRANCH   1   3
HETATM    3  C   UNL     1     -41.974 -51.125  12.405  1.00  0.00     0.372 C 
BRANCH   3   4
HETATM    4  C   UNL     1     -40.852 -52.130  12.704  1.00  0.00     0.248 C 
HETATM    5  N   UNL     1     -41.213 -53.374  13.204  1.00  0.00    -0.346 N 
HETATM    6  C   UNL     1     -40.176 -54.365  13.476  1.00  0.00     0.157 C 
HETATM    7  C   UNL     1     -42.439 -53.622  13.964  1.00  0.00     0.152 C 
HETATM    8  C   UNL     1     -39.882 -54.459  14.988  1.00  0.00     0.139 C 
HETATM    9  O   UNL     1     -41.096 -54.661  15.741  1.00  0.00    -0.383 OA
HETATM   10  C   UNL     1     -42.114 -53.682  15.463  1.00  0.00     0.188 C 
HETATM   11  O   UNL     1     -39.679 -51.825  12.476  1.00  0.00    -0.271 OA
BRANCH   8  12
HETATM   12  C   UNL     1     -39.069 -53.259  15.498  1.00  0.00     0.029 C 
HETATM   13  C   UNL     1     -38.683 -53.394  16.964  1.00  0.00     0.007 C 
ENDBRANCH   8  12
ENDBRANCH   3   4
ENDBRANCH   1   3
BRANCH   1  14
HETATM   14  C   UNL     1     -41.608 -48.775  11.704  1.00  0.00     0.236 C 
HETATM   15  C   UNL     1     -40.489 -48.394  12.683  1.00  0.00     0.044 C 
BRANCH  14  16
HETATM   16  C   UNL     1     -41.636 -47.787  10.511  1.00  0.00     0.183 C 
BRANCH  16  17
HETATM   17  N   UNL     1     -42.878 -47.741   9.758  1.00  0.00    -0.301 N 
HETATM   18  C   UNL     1     -44.127 -47.422  10.210  1.00  0.00     0.118 A 
HETATM   19  C   UNL     1     -44.969 -47.471   9.119  1.00  0.00    -0.028 A 
HETATM   20  C   UNL     1     -46.426 -47.221   9.079  1.00  0.00     0.051 C 
HETATM   21  C   UNL     1     -44.116 -47.810   8.046  1.00  0.00     0.115 A 
HETATM   22  N   UNL     1     -42.848 -47.973   8.428  1.00  0.00    -0.310 N 
ATOM     23  HN  UNL     1     -42.044 -48.216   7.850  1.00  0.00     0.186 HD
ENDBRANCH  16  17
ENDBRANCH  14  16
ENDBRANCH   1  14
TORSDOF 6
ENDMDL
MODEL 5
REMARK VINA RESULT:      -5.6      2.638      3.814
REMARK  6 active torsions:
REMARK  status: ('A' for Active; 'I' for Inactive)
REMARK    1  A    between atoms: C_2  and  C_3 
REMARK       I    between atoms: N_5  and  C_9 
REMARK    2  A    between atoms: C_9  and  C_11 
REMARK    3  A    between atoms: C_11  and  N_12 
REMARK    4  A    between atoms: N_12  and  C_13 
REMARK    5  A    between atoms: C_13  and  C_15 
REMARK    6  A    between atoms: C_15  and  N_16 
ROOT
HETATM    1  N   UNL     1     -41.804 -53.263  14.734  1.00  0.00     0.098 N 
HETATM    2  H   UNL     1     -41.471 -53.045  15.677  1.00  0.00     0.317 HD
ENDROOT
BRANCH   1   3
HETATM    3  C   UNL     1     -42.398 -54.612  14.772  1.00  0.00     0.372 C 
BRANCH   3   4
HETATM    4  C   UNL     1     -43.860 -54.533  15.234  1.00  0.00     0.248 C 
HETATM    5  N   UNL     1     -44.849 -54.540  14.259  1.00  0.00    -0.346 N 
HETATM    6  C   UNL     1     -46.252 -54.493  14.661  1.00  0.00     0.157 C 
HETATM    7  C   UNL     1     -44.643 -54.076  12.886  1.00  0.00     0.152 C 
HETATM    8  C   UNL     1     -46.838 -53.080  14.460  1.00  0.00     0.139 C 
HETATM    9  O   UNL     1     -46.598 -52.604  13.119  1.00  0.00    -0.383 OA
HETATM   10  C   UNL     1     -45.213 -52.660  12.730  1.00  0.00     0.188 C 
HETATM   11  O   UNL     1     -44.121 -54.489  16.439  1.00  0.00    -0.271 OA
BRANCH   8  12
HETATM   12  C   UNL     1     -46.351 -52.089  15.529  1.00  0.00     0.029 C 
HETATM   13  C   UNL     1     -47.495 -51.453  16.304  1.00  0.00     0.007 C 
ENDBRANCH   8  12
ENDBRANCH   3   4
ENDBRANCH   1   3
BRANCH   1  14
HETATM   14  C   UNL     1     -40.695 -53.113  13.769  1.00  0.00     0.236 C 
HETATM   15  C   UNL     1     -39.752 -54.322  13.779  1.00  0.00     0.044 C 
BRANCH  14  16
HETATM   16  C   UNL     1     -41.128 -52.781  12.320  1.00  0.00     0.183 C 
BRANCH  16  17
HETATM   17  N   UNL     1     -41.333 -51.372  12.028  1.00  0.00    -0.301 N 
HETATM   18  C   UNL     1     -42.259 -50.526  12.567  1.00  0.00     0.118 A 
HETATM   19  C   UNL     1     -42.032 -49.283  12.013  1.00  0.00    -0.028 A 
HETATM   20  C   UNL     1     -42.773 -48.026  12.256  1.00  0.00     0.051 C 
HETATM   21  C   UNL     1     -40.923 -49.487  11.164  1.00  0.00     0.115 A 
HETATM   22  N   UNL     1     -40.495 -50.751  11.171  1.00  0.00    -0.310 N 
ATOM     23  HN  UNL     1     -39.716 -51.153  10.650  1.00  0.00     0.186 HD
ENDBRANCH  16  17
ENDBRANCH  14  16
ENDBRANCH   1  14
TORSDOF 6
ENDMDL
MODEL 6
REMARK VINA RESULT:      -5.5      1.857      2.750
REMARK  6 active torsions:
REMARK  status: ('A' for Active; 'I' for Inactive)
REMARK    1  A    between atoms: C_2  and  C_3 
REMARK       I    between atoms: N_5  and  C_9 
REMARK    2  A    between atoms: C_9  and  C_11 
REMARK    3  A    between atoms: C_11  and  N_12 
REMARK    4  A    between atoms: N_12  and  C_13 
REMARK    5  A    between atoms: C_13  and  C_15 
REMARK    6  A    between atoms: C_15  and  N_16 
ROOT
HETATM    1  N   UNL     1     -41.594 -50.712  14.615  1.00  0.00     0.098 N 
HETATM    2  H   UNL     1     -41.236 -50.019  15.278  1.00  0.00     0.317 HD
ENDROOT
BRANCH   1   3
HETATM    3  C   UNL     1     -41.700 -51.998  15.328  1.00  0.00     0.372 C 
BRANCH   3   4
HETATM    4  C   UNL     1     -43.175 -52.367  15.539  1.00  0.00     0.248 C 
HETATM    5  N   UNL     1     -43.694 -53.414  14.790  1.00  0.00    -0.346 N 
HETATM    6  C   UNL     1     -45.086 -53.811  14.982  1.00  0.00     0.157 C 
HETATM    7  C   UNL     1     -43.169 -53.822  13.486  1.00  0.00     0.152 C 
HETATM    8  C   UNL     1     -45.975 -53.283  13.836  1.00  0.00     0.139 C 
HETATM    9  O   UNL     1     -45.435 -53.648  12.549  1.00  0.00    -0.383 OA
HETATM   10  C   UNL     1     -44.060 -53.257  12.372  1.00  0.00     0.188 C 
HETATM   11  O   UNL     1     -43.849 -51.752  16.370  1.00  0.00    -0.271 OA
BRANCH   8  12
HETATM   12  C   UNL     1     -46.240 -51.774  13.953  1.00  0.00     0.029 C 
HETATM   13  C   UNL     1     -47.019 -51.412  15.209  1.00  0.00     0.007 C 
ENDBRANCH   8  12
ENDBRANCH   3   4
ENDBRANCH   1   3
BRANCH   1  14
HETATM   14  C   UNL     1     -40.728 -50.748  13.419  1.00  0.00     0.236 C 
HETATM   15  C   UNL     1     -39.881 -52.025  13.357  1.00  0.00     0.044 C 
BRANCH  14  16
HETATM   16  C   UNL     1     -41.459 -50.522  12.073  1.00  0.00     0.183 C 
BRANCH  16  17
HETATM   17  N   UNL     1     -41.387 -49.176  11.531  1.00  0.00    -0.301 N 
HETATM   18  C   UNL     1     -40.376 -48.267  11.664  1.00  0.00     0.118 A 
HETATM   19  C   UNL     1     -40.743 -47.155  10.937  1.00  0.00    -0.028 A 
HETATM   20  C   UNL     1     -40.000 -45.887  10.771  1.00  0.00     0.051 C 
HETATM   21  C   UNL     1     -41.991 -47.508  10.382  1.00  0.00     0.115 A 
HETATM   22  N   UNL     1     -42.385 -48.733  10.737  1.00  0.00    -0.310 N 
ATOM     23  HN  UNL     1     -43.240 -49.221  10.472  1.00  0.00     0.186 HD
ENDBRANCH  16  17
ENDBRANCH  14  16
ENDBRANCH   1  14
TORSDOF 6
ENDMDL
MODEL 7
REMARK VINA RESULT:      -5.3      2.386      3.380
REMARK  6 active torsions:
REMARK  status: ('A' for Active; 'I' for Inactive)
REMARK    1  A    between atoms: C_2  and  C_3 
REMARK       I    between atoms: N_5  and  C_9 
REMARK    2  A    between atoms: C_9  and  C_11 
REMARK    3  A    between atoms: C_11  and  N_12 
REMARK    4  A    between atoms: N_12  and  C_13 
REMARK    5  A    between atoms: C_13  and  C_15 
REMARK    6  A    between atoms: C_15  and  N_16 
ROOT
HETATM    1  N   UNL     1     -40.968 -53.091  12.538  1.00  0.00     0.098 N 
HETATM    2  H   UNL     1     -40.634 -53.193  11.575  1.00  0.00     0.317 HD
ENDROOT
BRANCH   1   3
HETATM    3  C   UNL     1     -42.416 -52.824  12.482  1.00  0.00     0.372 C 
BRANCH   3   4
HETATM    4  C   UNL     1     -43.179 -53.867  13.310  1.00  0.00     0.248 C 
HETATM    5  N   UNL     1     -44.545 -53.993  13.093  1.00  0.00    -0.346 N 
HETATM    6  C   UNL     1     -45.301 -54.992  13.843  1.00  0.00     0.157 C 
HETATM    7  C   UNL     1     -45.393 -52.912  12.587  1.00  0.00     0.152 C 
HETATM    8  C   UNL     1     -46.104 -54.337  14.986  1.00  0.00     0.139 C 
HETATM    9  O   UNL     1     -46.907 -53.243  14.495  1.00  0.00    -0.383 OA
HETATM   10  C   UNL     1     -46.155 -52.266  13.752  1.00  0.00     0.188 C 
HETATM   11  O   UNL     1     -42.572 -54.573  14.118  1.00  0.00    -0.271 OA
BRANCH   8  12
HETATM   12  C   UNL     1     -45.208 -53.922  16.164  1.00  0.00     0.029 C 
HETATM   13  C   UNL     1     -45.937 -53.969  17.499  1.00  0.00     0.007 C 
ENDBRANCH   8  12
ENDBRANCH   3   4
ENDBRANCH   1   3
BRANCH   1  14
HETATM   14  C   UNL     1     -40.181 -52.047  13.227  1.00  0.00     0.236 C 
HETATM   15  C   UNL     1     -39.090 -52.645  14.123  1.00  0.00     0.044 C 
BRANCH  14  16
HETATM   16  C   UNL     1     -39.581 -50.960  12.302  1.00  0.00     0.183 C 
BRANCH  16  17
HETATM   17  N   UNL     1     -40.505 -49.934  11.850  1.00  0.00    -0.301 N 
HETATM   18  C   UNL     1     -41.337 -49.157  12.604  1.00  0.00     0.118 A 
HETATM   19  C   UNL     1     -41.981 -48.302  11.735  1.00  0.00    -0.028 A 
HETATM   20  C   UNL     1     -42.994 -47.272  12.049  1.00  0.00     0.051 C 
HETATM   21  C   UNL     1     -41.443 -48.633  10.472  1.00  0.00     0.115 A 
HETATM   22  N   UNL     1     -40.547 -49.620  10.537  1.00  0.00    -0.310 N 
ATOM     23  HN  UNL     1     -40.017 -50.040   9.773  1.00  0.00     0.186 HD
ENDBRANCH  16  17
ENDBRANCH  14  16
ENDBRANCH   1  14
TORSDOF 6
ENDMDL
MODEL 8
REMARK VINA RESULT:      -5.3      2.600      6.253
REMARK  6 active torsions:
REMARK  status: ('A' for Active; 'I' for Inactive)
REMARK    1  A    between atoms: C_2  and  C_3 
REMARK       I    between atoms: N_5  and  C_9 
REMARK    2  A    between atoms: C_9  and  C_11 
REMARK    3  A    between atoms: C_11  and  N_12 
REMARK    4  A    between atoms: N_12  and  C_13 
REMARK    5  A    between atoms: C_13  and  C_15 
REMARK    6  A    between atoms: C_15  and  N_16 
ROOT
HETATM    1  N   UNL     1     -40.579 -52.223  13.830  1.00  0.00     0.098 N 
HETATM    2  H   UNL     1     -41.497 -51.811  14.018  1.00  0.00     0.317 HD
ENDROOT
BRANCH   1   3
HETATM    3  C   UNL     1     -39.943 -51.428  12.764  1.00  0.00     0.372 C 
BRANCH   3   4
HETATM    4  C   UNL     1     -40.980 -50.517  12.092  1.00  0.00     0.248 C 
HETATM    5  N   UNL     1     -40.522 -49.362  11.473  1.00  0.00    -0.346 N 
HETATM    6  C   UNL     1     -41.475 -48.483  10.801  1.00  0.00     0.157 C 
HETATM    7  C   UNL     1     -39.290 -48.668  11.851  1.00  0.00     0.152 C 
HETATM    8  C   UNL     1     -41.781 -47.238  11.659  1.00  0.00     0.139 C 
HETATM    9  O   UNL     1     -40.565 -46.578  12.068  1.00  0.00    -0.383 OA
HETATM   10  C   UNL     1     -39.629 -47.453  12.725  1.00  0.00     0.188 C 
HETATM   11  O   UNL     1     -42.172 -50.835  12.097  1.00  0.00    -0.271 OA
BRANCH   8  12
HETATM   12  C   UNL     1     -42.700 -47.562  12.848  1.00  0.00     0.029 C 
HETATM   13  C   UNL     1     -43.127 -46.318  13.614  1.00  0.00     0.007 C 
ENDBRANCH   8  12
ENDBRANCH   3   4
ENDBRANCH   1   3
BRANCH   1  14
HETATM   14  C   UNL     1     -40.734 -53.657  13.511  1.00  0.00     0.236 C 
HETATM   15  C   UNL     1     -39.505 -54.477  13.923  1.00  0.00     0.044 C 
BRANCH  14  16
HETATM   16  C   UNL     1     -42.026 -54.314  14.058  1.00  0.00     0.183 C 
BRANCH  16  17
HETATM   17  N   UNL     1     -43.271 -53.660  13.695  1.00  0.00    -0.301 N 
HETATM   18  C   UNL     1     -44.096 -52.916  14.490  1.00  0.00     0.118 A 
HETATM   19  C   UNL     1     -45.124 -52.468  13.688  1.00  0.00    -0.028 A 
HETATM   20  C   UNL     1     -46.284 -51.635  14.071  1.00  0.00     0.051 C 
HETATM   21  C   UNL     1     -44.808 -52.981  12.412  1.00  0.00     0.115 A 
HETATM   22  N   UNL     1     -43.685 -53.703  12.410  1.00  0.00    -0.310 N 
ATOM     23  HN  UNL     1     -43.243 -54.177  11.623  1.00  0.00     0.186 HD
ENDBRANCH  16  17
ENDBRANCH  14  16
ENDBRANCH   1  14
TORSDOF 6
ENDMDL
MODEL 9
REMARK VINA RESULT:      -5.2      3.228      4.665
REMARK  6 active torsions:
REMARK  status: ('A' for Active; 'I' for Inactive)
REMARK    1  A    between atoms: C_2  and  C_3 
REMARK       I    between atoms: N_5  and  C_9 
REMARK    2  A    between atoms: C_9  and  C_11 
REMARK    3  A    between atoms: C_11  and  N_12 
REMARK    4  A    between atoms: N_12  and  C_13 
REMARK    5  A    between atoms: C_13  and  C_15 
REMARK    6  A    between atoms: C_15  and  N_16 
ROOT
HETATM    1  N   UNL     1     -40.524 -45.780  12.736  1.00  0.00     0.098 N 
HETATM    2  H   UNL     1     -39.971 -45.388  13.503  1.00  0.00     0.317 HD
ENDROOT
BRANCH   1   3
HETATM    3  C   UNL     1     -39.807 -46.963  12.227  1.00  0.00     0.372 C 
BRANCH   3   4
HETATM    4  C   UNL     1     -40.359 -48.239  12.880  1.00  0.00     0.248 C 
HETATM    5  N   UNL     1     -39.447 -49.137  13.419  1.00  0.00    -0.346 N 
HETATM    6  C   UNL     1     -39.936 -50.349  14.071  1.00  0.00     0.157 C 
HETATM    7  C   UNL     1     -38.062 -49.265  12.964  1.00  0.00     0.152 C 
HETATM    8  C   UNL     1     -39.765 -51.578  13.154  1.00  0.00     0.139 C 
HETATM    9  O   UNL     1     -38.409 -51.680  12.670  1.00  0.00    -0.383 OA
HETATM   10  C   UNL     1     -37.934 -50.479  12.034  1.00  0.00     0.188 C 
HETATM   11  O   UNL     1     -41.577 -48.424  12.931  1.00  0.00    -0.271 OA
BRANCH   8  12
HETATM   12  C   UNL     1     -40.796 -51.603  12.015  1.00  0.00     0.029 C 
HETATM   13  C   UNL     1     -42.203 -51.912  12.506  1.00  0.00     0.007 C 
ENDBRANCH   8  12
ENDBRANCH   3   4
ENDBRANCH   1   3
BRANCH   1  14
HETATM   14  C   UNL     1     -40.774 -44.736  11.721  1.00  0.00     0.236 C 
HETATM   15  C   UNL     1     -39.877 -44.902  10.488  1.00  0.00     0.044 C 
BRANCH  14  16
HETATM   16  C   UNL     1     -42.254 -44.579  11.292  1.00  0.00     0.183 C 
BRANCH  16  17
HETATM   17  N   UNL     1     -42.830 -45.711  10.586  1.00  0.00    -0.301 N 
HETATM   18  C   UNL     1     -42.785 -45.982   9.248  1.00  0.00     0.118 A 
HETATM   19  C   UNL     1     -43.431 -47.187   9.064  1.00  0.00    -0.028 A 
HETATM   20  C   UNL     1     -43.667 -47.913   7.798  1.00  0.00     0.051 C 
HETATM   21  C   UNL     1     -43.809 -47.572  10.369  1.00  0.00     0.115 A 
HETATM   22  N   UNL     1     -43.446 -46.682  11.294  1.00  0.00    -0.310 N 
ATOM     23  HN  UNL     1     -43.598 -46.724  12.301  1.00  0.00     0.186 HD
ENDBRANCH  16  17
ENDBRANCH  14  16
ENDBRANCH   1  14
TORSDOF 6
ENDMDL
