MODEL 1
REMARK VINA RESULT:      -5.8      0.000      0.000
REMARK  5 active torsions:
REMARK  status: ('A' for Active; 'I' for Inactive)
REMARK    1  A    between atoms: C_2  and  N_3 
REMARK    2  A    between atoms: C_6  and  C_7 
REMARK    3  A    between atoms: C_7  and  N_8 
REMARK       I    between atoms: N_8  and  C_9 
REMARK       I    between atoms: C_9  and  N_11 
REMARK    4  A    between atoms: N_11  and  C_12 
REMARK    5  A    between atoms: C_15  and  O_16 
ROOT
HETATM    1  N   UNL     1     -41.556 -52.780  12.814  1.00  0.00    -0.342 N 
HETATM    2  C   UNL     1     -40.284 -52.352  13.070  1.00  0.00     0.320 C 
HETATM    3  O   UNL     1     -39.414 -53.052  13.578  1.00  0.00    -0.247 OA
HETATM    4  N   UNL     1     -40.042 -51.027  12.829  1.00  0.00    -0.308 N 
HETATM    5  H   UNL     1     -42.237 -52.036  12.847  1.00  0.00     0.164 HD
HETATM    6  H   UNL     1     -39.253 -50.686  13.366  1.00  0.00     0.170 HD
ENDROOT
BRANCH   1   7
HETATM    7  C   UNL     1     -42.037 -54.059  13.307  1.00  0.00     0.130 C 
BRANCH   7   8
HETATM    8  C   UNL     1     -43.149 -53.876  14.344  1.00  0.00     0.033 C 
HETATM    9  C   UNL     1     -44.145 -55.040  14.389  1.00  0.00     0.038 C 
HETATM   10  C   UNL     1     -45.346 -54.590  13.561  1.00  0.00     0.273 C 
HETATM   11  N   UNL     1     -44.988 -53.269  13.040  1.00  0.00     0.088 N 
HETATM   12  C   UNL     1     -44.041 -52.692  13.999  1.00  0.00     0.278 C 
BRANCH  11  13
HETATM   13  C   UNL     1     -46.141 -52.390  12.819  1.00  0.00     0.268 C 
HETATM   14  C   UNL     1     -46.489 -51.562  14.050  1.00  0.00     0.037 C 
ENDBRANCH  11  13
ENDBRANCH   7   8
ENDBRANCH   1   7
BRANCH   4  15
HETATM   15  C   UNL     1     -40.881 -50.091  12.203  1.00  0.00     0.051 A 
HETATM   16  C   UNL     1     -41.969 -49.506  12.849  1.00  0.00     0.035 A 
HETATM   17  C   UNL     1     -42.725 -48.548  12.179  1.00  0.00     0.058 A 
HETATM   18  C   UNL     1     -42.356 -48.203  10.888  1.00  0.00     0.141 A 
HETATM   19  N   UNL     1     -41.327 -48.774  10.225  1.00  0.00    -0.345 N 
HETATM   20  C   UNL     1     -40.627 -49.720  10.889  1.00  0.00     0.119 A 
ATOM     21  HN  UNL     1     -41.091 -48.506   9.270  1.00  0.00     0.167 HD
BRANCH  18  22
HETATM   22  O   UNL     1     -43.096 -47.211  10.279  1.00  0.00    -0.341 OA
HETATM   23  C   UNL     1     -43.409 -47.515   8.923  1.00  0.00     0.211 C 
ENDBRANCH  18  22
ENDBRANCH   4  15
TORSDOF 5
ENDMDL
MODEL 2
REMARK VINA RESULT:      -5.8      1.521      2.191
REMARK  5 active torsions:
REMARK  status: ('A' for Active; 'I' for Inactive)
REMARK    1  A    between atoms: C_2  and  N_3 
REMARK    2  A    between atoms: C_6  and  C_7 
REMARK    3  A    between atoms: C_7  and  N_8 
REMARK       I    between atoms: N_8  and  C_9 
REMARK       I    between atoms: C_9  and  N_11 
REMARK    4  A    between atoms: N_11  and  C_12 
REMARK    5  A    between atoms: C_15  and  O_16 
ROOT
HETATM    1  N   UNL     1     -43.187 -52.167  12.374  1.00  0.00    -0.342 N 
HETATM    2  C   UNL     1     -42.149 -51.854  13.205  1.00  0.00     0.320 C 
HETATM    3  O   UNL     1     -41.715 -52.605  14.073  1.00  0.00    -0.247 OA
HETATM    4  N   UNL     1     -41.668 -50.576  13.103  1.00  0.00    -0.308 N 
HETATM    5  H   UNL     1     -43.709 -51.358  12.072  1.00  0.00     0.164 HD
HETATM    6  H   UNL     1     -41.196 -50.285  13.950  1.00  0.00     0.170 HD
ENDROOT
BRANCH   1   7
HETATM    7  C   UNL     1     -43.991 -53.358  12.583  1.00  0.00     0.130 C 
BRANCH   7   8
HETATM    8  C   UNL     1     -45.474 -53.012  12.739  1.00  0.00     0.033 C 
HETATM    9  C   UNL     1     -45.743 -51.510  12.884  1.00  0.00     0.038 C 
HETATM   10  C   UNL     1     -45.903 -51.260  14.382  1.00  0.00     0.273 C 
HETATM   11  N   UNL     1     -45.669 -52.557  15.022  1.00  0.00     0.088 N 
HETATM   12  C   UNL     1     -46.042 -53.575  14.034  1.00  0.00     0.278 C 
BRANCH  11  13
HETATM   13  C   UNL     1     -46.395 -52.732  16.283  1.00  0.00     0.268 C 
HETATM   14  C   UNL     1     -47.415 -51.627  16.529  1.00  0.00     0.037 C 
ENDBRANCH  11  13
ENDBRANCH   7   8
ENDBRANCH   1   7
BRANCH   4  15
HETATM   15  C   UNL     1     -41.993 -49.601  12.146  1.00  0.00     0.051 A 
HETATM   16  C   UNL     1     -43.115 -48.782  12.257  1.00  0.00     0.035 A 
HETATM   17  C   UNL     1     -43.344 -47.804  11.294  1.00  0.00     0.058 A 
HETATM   18  C   UNL     1     -42.430 -47.674  10.259  1.00  0.00     0.141 A 
HETATM   19  N   UNL     1     -41.352 -48.472  10.107  1.00  0.00    -0.345 N 
HETATM   20  C   UNL     1     -41.169 -49.430  11.042  1.00  0.00     0.119 A 
ATOM     21  HN  UNL     1     -40.707 -48.357   9.326  1.00  0.00     0.167 HD
BRANCH  18  22
HETATM   22  O   UNL     1     -42.662 -46.656   9.357  1.00  0.00    -0.341 OA
HETATM   23  C   UNL     1     -43.706 -46.967   8.438  1.00  0.00     0.211 C 
ENDBRANCH  18  22
ENDBRANCH   4  15
TORSDOF 5
ENDMDL
MODEL 3
REMARK VINA RESULT:      -5.5      2.103      3.249
REMARK  5 active torsions:
REMARK  status: ('A' for Active; 'I' for Inactive)
REMARK    1  A    between atoms: C_2  and  N_3 
REMARK    2  A    between atoms: C_6  and  C_7 
REMARK    3  A    between atoms: C_7  and  N_8 
REMARK       I    between atoms: N_8  and  C_9 
REMARK       I    between atoms: C_9  and  N_11 
REMARK    4  A    between atoms: N_11  and  C_12 
REMARK    5  A    between atoms: C_15  and  O_16 
ROOT
HETATM    1  N   UNL     1     -42.589 -49.710  12.361  1.00  0.00    -0.342 N 
HETATM    2  C   UNL     1     -41.532 -50.076  11.576  1.00  0.00     0.320 C 
HETATM    3  O   UNL     1     -40.946 -51.149  11.672  1.00  0.00    -0.247 OA
HETATM    4  N   UNL     1     -41.066 -49.115  10.719  1.00  0.00    -0.308 N 
HETATM    5  H   UNL     1     -42.654 -48.711  12.495  1.00  0.00     0.164 HD
HETATM    6  H   UNL     1     -40.102 -49.284  10.457  1.00  0.00     0.170 HD
ENDROOT
BRANCH   1   7
HETATM    7  C   UNL     1     -42.983 -50.499  13.515  1.00  0.00     0.130 C 
BRANCH   7   8
HETATM    8  C   UNL     1     -44.313 -51.219  13.271  1.00  0.00     0.033 C 
HETATM    9  C   UNL     1     -45.251 -51.202  14.483  1.00  0.00     0.038 C 
HETATM   10  C   UNL     1     -45.065 -52.554  15.170  1.00  0.00     0.273 C 
HETATM   11  N   UNL     1     -44.028 -53.244  14.399  1.00  0.00     0.088 N 
HETATM   12  C   UNL     1     -44.103 -52.708  13.036  1.00  0.00     0.278 C 
BRANCH  11  13
HETATM   13  C   UNL     1     -44.153 -54.704  14.417  1.00  0.00     0.268 C 
HETATM   14  C   UNL     1     -45.477 -55.185  13.835  1.00  0.00     0.037 C 
ENDBRANCH  11  13
ENDBRANCH   7   8
ENDBRANCH   1   7
BRANCH   4  15
HETATM   15  C   UNL     1     -41.631 -47.864  10.428  1.00  0.00     0.051 A 
HETATM   16  C   UNL     1     -42.739 -47.714   9.595  1.00  0.00     0.035 A 
HETATM   17  C   UNL     1     -43.274 -46.445   9.394  1.00  0.00     0.058 A 
HETATM   18  C   UNL     1     -42.685 -45.372  10.045  1.00  0.00     0.141 A 
HETATM   19  N   UNL     1     -41.594 -45.480  10.832  1.00  0.00    -0.345 N 
HETATM   20  C   UNL     1     -41.079 -46.720  10.989  1.00  0.00     0.119 A 
ATOM     21  HN  UNL     1     -41.179 -44.667  11.286  1.00  0.00     0.167 HD
BRANCH  18  22
HETATM   22  O   UNL     1     -43.280 -44.140   9.863  1.00  0.00    -0.341 OA
HETATM   23  C   UNL     1     -43.015 -43.241  10.937  1.00  0.00     0.211 C 
ENDBRANCH  18  22
ENDBRANCH   4  15
TORSDOF 5
ENDMDL
MODEL 4
REMARK VINA RESULT:      -5.5      2.837      4.103
REMARK  5 active torsions:
REMARK  status: ('A' for Active; 'I' for Inactive)
REMARK    1  A    between atoms: C_2  and  N_3 
REMARK    2  A    between atoms: C_6  and  C_7 
REMARK    3  A    between atoms: C_7  and  N_8 
REMARK       I    between atoms: N_8  and  C_9 
REMARK       I    between atoms: C_9  and  N_11 
REMARK    4  A    between atoms: N_11  and  C_12 
REMARK    5  A    between atoms: C_15  and  O_16 
ROOT
HETATM    1  N   UNL     1     -44.605 -52.277  12.700  1.00  0.00    -0.342 N 
HETATM    2  C   UNL     1     -44.131 -53.552  12.574  1.00  0.00     0.320 C 
HETATM    3  O   UNL     1     -44.846 -54.539  12.434  1.00  0.00    -0.247 OA
HETATM    4  N   UNL     1     -42.779 -53.703  12.728  1.00  0.00    -0.308 N 
HETATM    5  H   UNL     1     -43.999 -51.682  13.246  1.00  0.00     0.164 HD
HETATM    6  H   UNL     1     -42.537 -54.648  13.000  1.00  0.00     0.170 HD
ENDROOT
BRANCH   1   7
HETATM    7  C   UNL     1     -46.022 -52.010  12.870  1.00  0.00     0.130 C 
BRANCH   7   8
HETATM    8  C   UNL     1     -46.316 -51.405  14.246  1.00  0.00     0.033 C 
HETATM    9  C   UNL     1     -45.061 -50.956  15.001  1.00  0.00     0.038 C 
HETATM   10  C   UNL     1     -44.734 -52.086  15.974  1.00  0.00     0.273 C 
HETATM   11  N   UNL     1     -45.732 -53.127  15.712  1.00  0.00     0.088 N 
HETATM   12  C   UNL     1     -46.916 -52.438  15.190  1.00  0.00     0.278 C 
BRANCH  11  13
HETATM   13  C   UNL     1     -46.052 -53.945  16.886  1.00  0.00     0.268 C 
HETATM   14  C   UNL     1     -45.852 -53.193  18.195  1.00  0.00     0.037 C 
ENDBRANCH  11  13
ENDBRANCH   7   8
ENDBRANCH   1   7
BRANCH   4  15
HETATM   15  C   UNL     1     -41.801 -52.702  12.837  1.00  0.00     0.051 A 
HETATM   16  C   UNL     1     -41.419 -52.153  14.060  1.00  0.00     0.035 A 
HETATM   17  C   UNL     1     -40.405 -51.199  14.092  1.00  0.00     0.058 A 
HETATM   18  C   UNL     1     -39.803 -50.838  12.896  1.00  0.00     0.141 A 
HETATM   19  N   UNL     1     -40.173 -51.328  11.694  1.00  0.00    -0.345 N 
HETATM   20  C   UNL     1     -41.176 -52.233  11.689  1.00  0.00     0.119 A 
ATOM     21  HN  UNL     1     -39.716 -51.031  10.832  1.00  0.00     0.167 HD
BRANCH  18  22
HETATM   22  O   UNL     1     -38.766 -49.932  12.978  1.00  0.00    -0.341 OA
HETATM   23  C   UNL     1     -38.262 -49.561  11.698  1.00  0.00     0.211 C 
ENDBRANCH  18  22
ENDBRANCH   4  15
TORSDOF 5
ENDMDL
MODEL 5
REMARK VINA RESULT:      -5.5      2.294      6.040
REMARK  5 active torsions:
REMARK  status: ('A' for Active; 'I' for Inactive)
REMARK    1  A    between atoms: C_2  and  N_3 
REMARK    2  A    between atoms: C_6  and  C_7 
REMARK    3  A    between atoms: C_7  and  N_8 
REMARK       I    between atoms: N_8  and  C_9 
REMARK       I    between atoms: C_9  and  N_11 
REMARK    4  A    between atoms: N_11  and  C_12 
REMARK    5  A    between atoms: C_15  and  O_16 
ROOT
HETATM    1  N   UNL     1     -40.642 -49.882  13.128  1.00  0.00    -0.342 N 
HETATM    2  C   UNL     1     -39.594 -50.732  13.349  1.00  0.00     0.320 C 
HETATM    3  O   UNL     1     -38.437 -50.364  13.517  1.00  0.00    -0.247 OA
HETATM    4  N   UNL     1     -39.882 -52.067  13.259  1.00  0.00    -0.308 N 
HETATM    5  H   UNL     1     -41.376 -50.297  12.573  1.00  0.00     0.164 HD
HETATM    6  H   UNL     1     -39.055 -52.615  13.054  1.00  0.00     0.170 HD
ENDROOT
BRANCH   1   7
HETATM    7  C   UNL     1     -40.428 -48.467  12.884  1.00  0.00     0.130 C 
BRANCH   7   8
HETATM    8  C   UNL     1     -40.402 -48.155  11.385  1.00  0.00     0.033 C 
HETATM    9  C   UNL     1     -40.325 -46.658  11.069  1.00  0.00     0.038 C 
HETATM   10  C   UNL     1     -41.757 -46.225  10.761  1.00  0.00     0.273 C 
HETATM   11  N   UNL     1     -42.578 -47.421  10.962  1.00  0.00     0.088 N 
HETATM   12  C   UNL     1     -41.701 -48.568  10.708  1.00  0.00     0.278 C 
BRANCH  11  13
HETATM   13  C   UNL     1     -43.780 -47.459  10.123  1.00  0.00     0.268 C 
HETATM   14  C   UNL     1     -43.454 -47.458   8.635  1.00  0.00     0.037 C 
ENDBRANCH  11  13
ENDBRANCH   7   8
ENDBRANCH   1   7
BRANCH   4  15
HETATM   15  C   UNL     1     -41.140 -52.677  13.132  1.00  0.00     0.051 A 
HETATM   16  C   UNL     1     -41.711 -53.442  14.148  1.00  0.00     0.035 A 
HETATM   17  C   UNL     1     -42.985 -53.974  13.967  1.00  0.00     0.058 A 
HETATM   18  C   UNL     1     -43.645 -53.710  12.777  1.00  0.00     0.141 A 
HETATM   19  N   UNL     1     -43.106 -52.999  11.763  1.00  0.00    -0.345 N 
HETATM   20  C   UNL     1     -41.859 -52.517  11.955  1.00  0.00     0.119 A 
ATOM     21  HN  UNL     1     -43.616 -52.835  10.895  1.00  0.00     0.167 HD
BRANCH  18  22
HETATM   22  O   UNL     1     -44.927 -54.208  12.660  1.00  0.00    -0.341 OA
HETATM   23  C   UNL     1     -45.329 -54.958  13.802  1.00  0.00     0.211 C 
ENDBRANCH  18  22
ENDBRANCH   4  15
TORSDOF 5
ENDMDL
MODEL 6
REMARK VINA RESULT:      -5.4      2.943      5.265
REMARK  5 active torsions:
REMARK  status: ('A' for Active; 'I' for Inactive)
REMARK    1  A    between atoms: C_2  and  N_3 
REMARK    2  A    between atoms: C_6  and  C_7 
REMARK    3  A    between atoms: C_7  and  N_8 
REMARK       I    between atoms: N_8  and  C_9 
REMARK       I    between atoms: C_9  and  N_11 
REMARK    4  A    between atoms: N_11  and  C_12 
REMARK    5  A    between atoms: C_15  and  O_16 
ROOT
HETATM    1  N   UNL     1     -45.127 -51.828  13.574  1.00  0.00    -0.342 N 
HETATM    2  C   UNL     1     -45.280 -52.575  12.440  1.00  0.00     0.320 C 
HETATM    3  O   UNL     1     -46.344 -52.704  11.842  1.00  0.00    -0.247 OA
HETATM    4  N   UNL     1     -44.182 -53.291  12.045  1.00  0.00    -0.308 N 
HETATM    5  H   UNL     1     -44.393 -52.171  14.176  1.00  0.00     0.164 HD
HETATM    6  H   UNL     1     -44.439 -54.081  11.466  1.00  0.00     0.170 HD
ENDROOT
BRANCH   1   7
HETATM    7  C   UNL     1     -46.272 -51.275  14.275  1.00  0.00     0.130 C 
BRANCH   7   8
HETATM    8  C   UNL     1     -46.853 -52.279  15.275  1.00  0.00     0.033 C 
HETATM    9  C   UNL     1     -47.536 -51.621  16.479  1.00  0.00     0.038 C 
HETATM   10  C   UNL     1     -46.507 -51.651  17.607  1.00  0.00     0.273 C 
HETATM   11  N   UNL     1     -45.302 -52.241  17.020  1.00  0.00     0.088 N 
HETATM   12  C   UNL     1     -45.758 -53.109  15.930  1.00  0.00     0.278 C 
BRANCH  11  13
HETATM   13  C   UNL     1     -44.473 -52.970  17.985  1.00  0.00     0.268 C 
HETATM   14  C   UNL     1     -43.612 -54.041  17.325  1.00  0.00     0.037 C 
ENDBRANCH  11  13
ENDBRANCH   7   8
ENDBRANCH   1   7
BRANCH   4  15
HETATM   15  C   UNL     1     -42.877 -53.231  12.559  1.00  0.00     0.051 A 
HETATM   16  C   UNL     1     -42.417 -54.099  13.548  1.00  0.00     0.035 A 
HETATM   17  C   UNL     1     -41.094 -54.012  13.972  1.00  0.00     0.058 A 
HETATM   18  C   UNL     1     -40.275 -53.063  13.378  1.00  0.00     0.141 A 
HETATM   19  N   UNL     1     -40.699 -52.188  12.441  1.00  0.00    -0.345 N 
HETATM   20  C   UNL     1     -41.994 -52.278  12.068  1.00  0.00     0.119 A 
ATOM     21  HN  UNL     1     -40.072 -51.494  12.035  1.00  0.00     0.167 HD
BRANCH  18  22
HETATM   22  O   UNL     1     -38.957 -53.046  13.786  1.00  0.00    -0.341 OA
HETATM   23  C   UNL     1     -38.485 -51.729  14.057  1.00  0.00     0.211 C 
ENDBRANCH  18  22
ENDBRANCH   4  15
TORSDOF 5
ENDMDL
MODEL 7
REMARK VINA RESULT:      -5.3      2.144      5.739
REMARK  5 active torsions:
REMARK  status: ('A' for Active; 'I' for Inactive)
REMARK    1  A    between atoms: C_2  and  N_3 
REMARK    2  A    between atoms: C_6  and  C_7 
REMARK    3  A    between atoms: C_7  and  N_8 
REMARK       I    between atoms: N_8  and  C_9 
REMARK       I    between atoms: C_9  and  N_11 
REMARK    4  A    between atoms: N_11  and  C_12 
REMARK    5  A    between atoms: C_15  and  O_16 
ROOT
HETATM    1  N   UNL     1     -40.503 -52.084  13.699  1.00  0.00    -0.342 N 
HETATM    2  C   UNL     1     -40.236 -53.414  13.531  1.00  0.00     0.320 C 
HETATM    3  O   UNL     1     -39.104 -53.886  13.492  1.00  0.00    -0.247 OA
HETATM    4  N   UNL     1     -41.319 -54.213  13.286  1.00  0.00    -0.308 N 
HETATM    5  H   UNL     1     -41.367 -51.797  13.263  1.00  0.00     0.164 HD
HETATM    6  H   UNL     1     -41.055 -55.067  12.810  1.00  0.00     0.170 HD
ENDROOT
BRANCH   1   7
HETATM    7  C   UNL     1     -39.446 -51.089  13.655  1.00  0.00     0.130 C 
BRANCH   7   8
HETATM    8  C   UNL     1     -39.171 -50.629  12.220  1.00  0.00     0.033 C 
HETATM    9  C   UNL     1     -38.338 -49.345  12.135  1.00  0.00     0.038 C 
HETATM   10  C   UNL     1     -39.340 -48.214  11.916  1.00  0.00     0.273 C 
HETATM   11  N   UNL     1     -40.659 -48.851  11.944  1.00  0.00     0.088 N 
HETATM   12  C   UNL     1     -40.456 -50.236  11.506  1.00  0.00     0.278 C 
BRANCH  11  13
HETATM   13  C   UNL     1     -41.663 -48.164  11.125  1.00  0.00     0.268 C 
HETATM   14  C   UNL     1     -41.224 -46.765  10.714  1.00  0.00     0.037 C 
ENDBRANCH  11  13
ENDBRANCH   7   8
ENDBRANCH   1   7
BRANCH   4  15
HETATM   15  C   UNL     1     -42.680 -53.872  13.345  1.00  0.00     0.051 A 
HETATM   16  C   UNL     1     -43.479 -54.155  14.452  1.00  0.00     0.035 A 
HETATM   17  C   UNL     1     -44.808 -53.741  14.459  1.00  0.00     0.058 A 
HETATM   18  C   UNL     1     -45.285 -53.047  13.357  1.00  0.00     0.141 A 
HETATM   19  N   UNL     1     -44.546 -52.785  12.258  1.00  0.00    -0.345 N 
HETATM   20  C   UNL     1     -43.267 -53.222  12.268  1.00  0.00     0.119 A 
ATOM     21  HN  UNL     1     -44.934 -52.283  11.460  1.00  0.00     0.167 HD
BRANCH  18  22
HETATM   22  O   UNL     1     -46.591 -52.605  13.426  1.00  0.00    -0.341 OA
HETATM   23  C   UNL     1     -46.735 -51.450  14.248  1.00  0.00     0.211 C 
ENDBRANCH  18  22
ENDBRANCH   4  15
TORSDOF 5
ENDMDL
MODEL 8
REMARK VINA RESULT:      -5.2      1.840      2.736
REMARK  5 active torsions:
REMARK  status: ('A' for Active; 'I' for Inactive)
REMARK    1  A    between atoms: C_2  and  N_3 
REMARK    2  A    between atoms: C_6  and  C_7 
REMARK    3  A    between atoms: C_7  and  N_8 
REMARK       I    between atoms: N_8  and  C_9 
REMARK       I    between atoms: C_9  and  N_11 
REMARK    4  A    between atoms: N_11  and  C_12 
REMARK    5  A    between atoms: C_15  and  O_16 
ROOT
HETATM    1  N   UNL     1     -40.355 -50.643  12.782  1.00  0.00    -0.342 N 
HETATM    2  C   UNL     1     -40.120 -49.631  13.670  1.00  0.00     0.320 C 
HETATM    3  O   UNL     1     -39.468 -49.762  14.701  1.00  0.00    -0.247 OA
HETATM    4  N   UNL     1     -40.758 -48.449  13.409  1.00  0.00    -0.308 N 
HETATM    5  H   UNL     1     -41.226 -50.535  12.283  1.00  0.00     0.164 HD
HETATM    6  H   UNL     1     -40.863 -47.887  14.246  1.00  0.00     0.170 HD
ENDROOT
BRANCH   1   7
HETATM    7  C   UNL     1     -40.005 -52.018  13.092  1.00  0.00     0.130 C 
BRANCH   7   8
HETATM    8  C   UNL     1     -40.988 -53.003  12.451  1.00  0.00     0.033 C 
HETATM    9  C   UNL     1     -42.366 -52.398  12.166  1.00  0.00     0.038 C 
HETATM   10  C   UNL     1     -43.258 -52.832  13.327  1.00  0.00     0.273 C 
HETATM   11  N   UNL     1     -42.384 -53.584  14.230  1.00  0.00     0.088 N 
HETATM   12  C   UNL     1     -41.319 -54.150  13.395  1.00  0.00     0.278 C 
BRANCH  11  13
HETATM   13  C   UNL     1     -43.081 -54.621  14.997  1.00  0.00     0.268 C 
HETATM   14  C   UNL     1     -44.381 -55.063  14.337  1.00  0.00     0.037 C 
ENDBRANCH  11  13
ENDBRANCH   7   8
ENDBRANCH   1   7
BRANCH   4  15
HETATM   15  C   UNL     1     -41.491 -48.092  12.266  1.00  0.00     0.051 A 
HETATM   16  C   UNL     1     -42.880 -48.183  12.204  1.00  0.00     0.035 A 
HETATM   17  C   UNL     1     -43.541 -47.763  11.052  1.00  0.00     0.058 A 
HETATM   18  C   UNL     1     -42.784 -47.256  10.008  1.00  0.00     0.141 A 
HETATM   19  N   UNL     1     -41.435 -47.184  10.026  1.00  0.00    -0.345 N 
HETATM   20  C   UNL     1     -40.818 -47.623  11.145  1.00  0.00     0.119 A 
ATOM     21  HN  UNL     1     -40.909 -46.817   9.234  1.00  0.00     0.167 HD
BRANCH  18  22
HETATM   22  O   UNL     1     -43.480 -46.799   8.908  1.00  0.00    -0.341 OA
HETATM   23  C   UNL     1     -43.488 -47.738   7.837  1.00  0.00     0.211 C 
ENDBRANCH  18  22
ENDBRANCH   4  15
TORSDOF 5
ENDMDL
MODEL 9
REMARK VINA RESULT:      -5.2      2.305      6.508
REMARK  5 active torsions:
REMARK  status: ('A' for Active; 'I' for Inactive)
REMARK    1  A    between atoms: C_2  and  N_3 
REMARK    2  A    between atoms: C_6  and  C_7 
REMARK    3  A    between atoms: C_7  and  N_8 
REMARK       I    between atoms: N_8  and  C_9 
REMARK       I    between atoms: C_9  and  N_11 
REMARK    4  A    between atoms: N_11  and  C_12 
REMARK    5  A    between atoms: C_15  and  O_16 
ROOT
HETATM    1  N   UNL     1     -40.983 -50.092  13.103  1.00  0.00    -0.342 N 
HETATM    2  C   UNL     1     -40.478 -50.670  11.972  1.00  0.00     0.320 C 
HETATM    3  O   UNL     1     -39.671 -50.126  11.226  1.00  0.00    -0.247 OA
HETATM    4  N   UNL     1     -41.014 -51.883  11.633  1.00  0.00    -0.308 N 
HETATM    5  H   UNL     1     -41.911 -50.417  13.331  1.00  0.00     0.164 HD
HETATM    6  H   UNL     1     -40.902 -52.079  10.645  1.00  0.00     0.170 HD
ENDROOT
BRANCH   1   7
HETATM    7  C   UNL     1     -40.741 -48.694  13.409  1.00  0.00     0.130 C 
BRANCH   7   8
HETATM    8  C   UNL     1     -41.947 -47.824  13.042  1.00  0.00     0.033 C 
HETATM    9  C   UNL     1     -42.768 -48.375  11.871  1.00  0.00     0.038 C 
HETATM   10  C   UNL     1     -42.301 -47.605  10.638  1.00  0.00     0.273 C 
HETATM   11  N   UNL     1     -41.232 -46.722  11.111  1.00  0.00     0.088 N 
HETATM   12  C   UNL     1     -41.512 -46.460  12.526  1.00  0.00     0.278 C 
BRANCH  11  13
HETATM   13  C   UNL     1     -41.109 -45.480  10.342  1.00  0.00     0.268 C 
HETATM   14  C   UNL     1     -39.667 -45.001  10.231  1.00  0.00     0.037 C 
ENDBRANCH  11  13
ENDBRANCH   7   8
ENDBRANCH   1   7
BRANCH   4  15
HETATM   15  C   UNL     1     -41.895 -52.682  12.379  1.00  0.00     0.051 A 
HETATM   16  C   UNL     1     -43.281 -52.586  12.261  1.00  0.00     0.035 A 
HETATM   17  C   UNL     1     -44.089 -53.447  12.999  1.00  0.00     0.058 A 
HETATM   18  C   UNL     1     -43.477 -54.382  13.819  1.00  0.00     0.141 A 
HETATM   19  N   UNL     1     -42.140 -54.479  13.978  1.00  0.00    -0.345 N 
HETATM   20  C   UNL     1     -41.380 -53.613  13.271  1.00  0.00     0.119 A 
ATOM     21  HN  UNL     1     -41.723 -55.170  14.601  1.00  0.00     0.167 HD
BRANCH  18  22
HETATM   22  O   UNL     1     -44.311 -55.254  14.489  1.00  0.00    -0.341 OA
HETATM   23  C   UNL     1     -45.604 -55.337  13.898  1.00  0.00     0.211 C 
ENDBRANCH  18  22
ENDBRANCH   4  15
TORSDOF 5
ENDMDL
