MODEL 1
REMARK VINA RESULT:      -6.3      0.000      0.000
REMARK  6 active torsions:
REMARK  status: ('A' for Active; 'I' for Inactive)
REMARK    1  A    between atoms: O_2  and  C_3 
REMARK    2  A    between atoms: C_3  and  C_4 
REMARK    3  A    between atoms: C_4  and  N_5 
REMARK    4  A    between atoms: C_7  and  N_8 
REMARK       I    between atoms: N_8  and  C_9 
REMARK    5  A    between atoms: C_9  and  C_11 
REMARK    6  A    between atoms: C_12  and  C_13 
ROOT
HETATM    1  N   UNL     1     -41.307 -50.117  11.496  1.00  0.00    -0.326 N 
HETATM    2  C   UNL     1     -42.046 -50.672  12.527  1.00  0.00     0.227 C 
HETATM    3  O   UNL     1     -42.806 -50.067  13.270  1.00  0.00    -0.273 OA
HETATM    4  H   UNL     1     -40.721 -50.747  10.967  1.00  0.00     0.169 HD
ENDROOT
BRANCH   1   5
HETATM    5  C   UNL     1     -41.292 -48.788  11.114  1.00  0.00     0.050 A 
HETATM    6  C   UNL     1     -42.237 -48.186  10.369  1.00  0.00     0.123 A 
HETATM    7  N   UNL     1     -42.188 -46.836  10.045  1.00  0.00    -0.320 N 
HETATM    8  C   UNL     1     -41.148 -46.016  10.466  1.00  0.00     0.247 A 
HETATM    9  C   UNL     1     -40.082 -46.682  11.260  1.00  0.00     0.077 A 
HETATM   10  O   UNL     1     -41.054 -44.816  10.228  1.00  0.00    -0.268 OA
HETATM   11  C   UNL     1     -40.170 -47.984  11.563  1.00  0.00     0.036 A 
BRANCH   7  12
HETATM   12  C   UNL     1     -43.317 -46.234   9.331  1.00  0.00     0.158 C 
BRANCH  12  13
HETATM   13  C   UNL     1     -44.271 -47.254   8.704  1.00  0.00     0.187 C 
BRANCH  13  14
HETATM   14  O   UNL     1     -45.518 -47.215   9.408  1.00  0.00    -0.394 OA
HETATM   15  C   UNL     1     -46.458 -48.118   8.841  1.00  0.00     0.201 C 
ENDBRANCH  13  14
ENDBRANCH  12  13
ENDBRANCH   7  12
ENDBRANCH   1   5
BRANCH   2  16
HETATM   16  C   UNL     1     -41.881 -52.154  12.677  1.00  0.00     0.095 A 
HETATM   17  C   UNL     1     -42.407 -52.781  13.961  1.00  0.00     0.030 A 
HETATM   18  C   UNL     1     -40.921 -52.809  13.668  1.00  0.00    -0.027 A 
HETATM   19  C   UNL     1     -40.245 -54.095  13.258  1.00  0.00     0.016 C 
HETATM   20  C   UNL     1     -40.040 -51.951  14.551  1.00  0.00     0.016 C 
BRANCH  17  21
HETATM   21  C   UNL     1     -43.310 -53.931  13.828  1.00  0.00    -0.019 C 
HETATM   22  C   UNL     1     -44.658 -53.877  13.802  1.00  0.00    -0.091 C 
HETATM   23  C   UNL     1     -45.446 -52.596  13.872  1.00  0.00     0.042 C 
HETATM   24  C   UNL     1     -45.498 -55.123  13.735  1.00  0.00     0.042 C 
ENDBRANCH  17  21
ENDBRANCH   2  16
TORSDOF 6
ENDMDL
MODEL 2
REMARK VINA RESULT:      -6.0      1.547      2.805
REMARK  6 active torsions:
REMARK  status: ('A' for Active; 'I' for Inactive)
REMARK    1  A    between atoms: O_2  and  C_3 
REMARK    2  A    between atoms: C_3  and  C_4 
REMARK    3  A    between atoms: C_4  and  N_5 
REMARK    4  A    between atoms: C_7  and  N_8 
REMARK       I    between atoms: N_8  and  C_9 
REMARK    5  A    between atoms: C_9  and  C_11 
REMARK    6  A    between atoms: C_12  and  C_13 
ROOT
HETATM    1  N   UNL     1     -43.348 -49.120  13.135  1.00  0.00    -0.326 N 
HETATM    2  C   UNL     1     -43.189 -50.494  13.077  1.00  0.00     0.227 C 
HETATM    3  O   UNL     1     -42.496 -51.101  12.272  1.00  0.00    -0.273 OA
HETATM    4  H   UNL     1     -43.956 -48.764  13.860  1.00  0.00     0.169 HD
ENDROOT
BRANCH   1   5
HETATM    5  C   UNL     1     -42.760 -48.185  12.304  1.00  0.00     0.050 A 
HETATM    6  C   UNL     1     -43.323 -47.671  11.195  1.00  0.00     0.123 A 
HETATM    7  N   UNL     1     -42.698 -46.706  10.417  1.00  0.00    -0.320 N 
HETATM    8  C   UNL     1     -41.437 -46.211  10.730  1.00  0.00     0.247 A 
HETATM    9  C   UNL     1     -40.794 -46.799  11.934  1.00  0.00     0.077 A 
HETATM   10  O   UNL     1     -40.839 -45.348  10.094  1.00  0.00    -0.268 OA
HETATM   11  C   UNL     1     -41.434 -47.720  12.667  1.00  0.00     0.036 A 
BRANCH   7  12
HETATM   12  C   UNL     1     -43.430 -46.113   9.294  1.00  0.00     0.158 C 
BRANCH  12  13
HETATM   13  C   UNL     1     -44.534 -47.010   8.730  1.00  0.00     0.187 C 
BRANCH  13  14
HETATM   14  O   UNL     1     -45.794 -46.348   8.885  1.00  0.00    -0.394 OA
HETATM   15  C   UNL     1     -46.838 -47.278   9.138  1.00  0.00     0.201 C 
ENDBRANCH  13  14
ENDBRANCH  12  13
ENDBRANCH   7  12
ENDBRANCH   1   5
BRANCH   2  16
HETATM   16  C   UNL     1     -43.929 -51.248  14.140  1.00  0.00     0.095 A 
HETATM   17  C   UNL     1     -44.255 -52.707  13.851  1.00  0.00     0.030 A 
HETATM   18  C   UNL     1     -45.380 -51.704  14.006  1.00  0.00    -0.027 A 
HETATM   19  C   UNL     1     -46.242 -51.705  15.247  1.00  0.00     0.016 C 
HETATM   20  C   UNL     1     -46.169 -51.372  12.758  1.00  0.00     0.016 C 
BRANCH  17  21
HETATM   21  C   UNL     1     -43.868 -53.697  14.865  1.00  0.00    -0.019 C 
HETATM   22  C   UNL     1     -42.742 -54.440  14.851  1.00  0.00    -0.091 C 
HETATM   23  C   UNL     1     -41.681 -54.333  13.788  1.00  0.00     0.042 C 
HETATM   24  C   UNL     1     -42.470 -55.482  15.901  1.00  0.00     0.042 C 
ENDBRANCH  17  21
ENDBRANCH   2  16
TORSDOF 6
ENDMDL
MODEL 3
REMARK VINA RESULT:      -6.0      2.889      7.777
REMARK  6 active torsions:
REMARK  status: ('A' for Active; 'I' for Inactive)
REMARK    1  A    between atoms: O_2  and  C_3 
REMARK    2  A    between atoms: C_3  and  C_4 
REMARK    3  A    between atoms: C_4  and  N_5 
REMARK    4  A    between atoms: C_7  and  N_8 
REMARK       I    between atoms: N_8  and  C_9 
REMARK    5  A    between atoms: C_9  and  C_11 
REMARK    6  A    between atoms: C_12  and  C_13 
ROOT
HETATM    1  N   UNL     1     -43.672 -50.514  12.677  1.00  0.00    -0.326 N 
HETATM    2  C   UNL     1     -42.697 -49.740  13.282  1.00  0.00     0.227 C 
HETATM    3  O   UNL     1     -42.105 -50.014  14.317  1.00  0.00    -0.273 OA
HETATM    4  H   UNL     1     -44.071 -50.154  11.821  1.00  0.00     0.169 HD
ENDROOT
BRANCH   1   5
HETATM    5  C   UNL     1     -44.154 -51.731  13.121  1.00  0.00     0.050 A 
HETATM    6  C   UNL     1     -45.043 -51.894  14.118  1.00  0.00     0.123 A 
HETATM    7  N   UNL     1     -45.520 -53.141  14.499  1.00  0.00    -0.320 N 
HETATM    8  C   UNL     1     -45.101 -54.311  13.877  1.00  0.00     0.247 A 
HETATM    9  C   UNL     1     -44.092 -54.143  12.798  1.00  0.00     0.077 A 
HETATM   10  O   UNL     1     -45.495 -55.440  14.155  1.00  0.00    -0.268 OA
HETATM   11  C   UNL     1     -43.665 -52.921  12.451  1.00  0.00     0.036 A 
BRANCH   7  12
HETATM   12  C   UNL     1     -46.576 -53.220  15.514  1.00  0.00     0.158 C 
BRANCH  12  13
HETATM   13  C   UNL     1     -46.054 -53.253  16.952  1.00  0.00     0.187 C 
BRANCH  13  14
HETATM   14  O   UNL     1     -45.909 -54.618  17.361  1.00  0.00    -0.394 OA
HETATM   15  C   UNL     1     -46.147 -54.767  18.754  1.00  0.00     0.201 C 
ENDBRANCH  13  14
ENDBRANCH  12  13
ENDBRANCH   7  12
ENDBRANCH   1   5
BRANCH   2  16
HETATM   16  C   UNL     1     -42.356 -48.483  12.541  1.00  0.00     0.095 A 
HETATM   17  C   UNL     1     -42.745 -48.422  11.070  1.00  0.00     0.030 A 
HETATM   18  C   UNL     1     -41.281 -48.396  11.460  1.00  0.00    -0.027 A 
HETATM   19  C   UNL     1     -40.482 -47.119  11.353  1.00  0.00     0.016 C 
HETATM   20  C   UNL     1     -40.463 -49.619  11.102  1.00  0.00     0.016 C 
BRANCH  17  21
HETATM   21  C   UNL     1     -43.515 -47.253  10.625  1.00  0.00    -0.019 C 
HETATM   22  C   UNL     1     -43.798 -46.937   9.344  1.00  0.00    -0.091 C 
HETATM   23  C   UNL     1     -43.383 -47.775   8.163  1.00  0.00     0.042 C 
HETATM   24  C   UNL     1     -44.534 -45.676   8.986  1.00  0.00     0.042 C 
ENDBRANCH  17  21
ENDBRANCH   2  16
TORSDOF 6
ENDMDL
MODEL 4
REMARK VINA RESULT:      -5.8      2.826      7.119
REMARK  6 active torsions:
REMARK  status: ('A' for Active; 'I' for Inactive)
REMARK    1  A    between atoms: O_2  and  C_3 
REMARK    2  A    between atoms: C_3  and  C_4 
REMARK    3  A    between atoms: C_4  and  N_5 
REMARK    4  A    between atoms: C_7  and  N_8 
REMARK       I    between atoms: N_8  and  C_9 
REMARK    5  A    between atoms: C_9  and  C_11 
REMARK    6  A    between atoms: C_12  and  C_13 
ROOT
HETATM    1  N   UNL     1     -40.649 -48.322  11.856  1.00  0.00    -0.326 N 
HETATM    2  C   UNL     1     -40.859 -47.149  12.560  1.00  0.00     0.227 C 
HETATM    3  O   UNL     1     -40.205 -46.763  13.519  1.00  0.00    -0.273 OA
HETATM    4  H   UNL     1     -41.274 -48.505  11.083  1.00  0.00     0.169 HD
ENDROOT
BRANCH   1   5
HETATM    5  C   UNL     1     -39.671 -49.268  12.100  1.00  0.00     0.050 A 
HETATM    6  C   UNL     1     -39.783 -50.293  12.964  1.00  0.00     0.123 A 
HETATM    7  N   UNL     1     -38.779 -51.236  13.142  1.00  0.00    -0.320 N 
HETATM    8  C   UNL     1     -37.581 -51.176  12.440  1.00  0.00     0.247 A 
HETATM    9  C   UNL     1     -37.435 -50.026  11.509  1.00  0.00     0.077 A 
HETATM   10  O   UNL     1     -36.663 -51.984  12.539  1.00  0.00    -0.268 OA
HETATM   11  C   UNL     1     -38.431 -49.144  11.355  1.00  0.00     0.036 A 
BRANCH   7  12
HETATM   12  C   UNL     1     -39.029 -52.387  14.014  1.00  0.00     0.158 C 
BRANCH  12  13
HETATM   13  C   UNL     1     -40.470 -52.479  14.522  1.00  0.00     0.187 C 
BRANCH  13  14
HETATM   14  O   UNL     1     -40.939 -53.820  14.343  1.00  0.00    -0.394 OA
HETATM   15  C   UNL     1     -41.114 -54.127  12.967  1.00  0.00     0.201 C 
ENDBRANCH  13  14
ENDBRANCH  12  13
ENDBRANCH   7  12
ENDBRANCH   1   5
BRANCH   2  16
HETATM   16  C   UNL     1     -41.979 -46.303  12.035  1.00  0.00     0.095 A 
HETATM   17  C   UNL     1     -42.418 -46.554  10.599  1.00  0.00     0.030 A 
HETATM   18  C   UNL     1     -41.803 -45.221  10.972  1.00  0.00    -0.027 A 
HETATM   19  C   UNL     1     -42.661 -43.982  11.071  1.00  0.00     0.016 C 
HETATM   20  C   UNL     1     -40.429 -44.926  10.408  1.00  0.00     0.016 C 
BRANCH  17  21
HETATM   21  C   UNL     1     -43.849 -46.780  10.361  1.00  0.00    -0.019 C 
HETATM   22  C   UNL     1     -44.394 -47.253   9.221  1.00  0.00    -0.091 C 
HETATM   23  C   UNL     1     -43.591 -47.656   8.013  1.00  0.00     0.042 C 
HETATM   24  C   UNL     1     -45.883 -47.381   9.051  1.00  0.00     0.042 C 
ENDBRANCH  17  21
ENDBRANCH   2  16
TORSDOF 6
ENDMDL
MODEL 5
REMARK VINA RESULT:      -5.6      3.857      7.126
REMARK  6 active torsions:
REMARK  status: ('A' for Active; 'I' for Inactive)
REMARK    1  A    between atoms: O_2  and  C_3 
REMARK    2  A    between atoms: C_3  and  C_4 
REMARK    3  A    between atoms: C_4  and  N_5 
REMARK    4  A    between atoms: C_7  and  N_8 
REMARK       I    between atoms: N_8  and  C_9 
REMARK    5  A    between atoms: C_9  and  C_11 
REMARK    6  A    between atoms: C_12  and  C_13 
ROOT
HETATM    1  N   UNL     1     -40.928 -51.954  14.396  1.00  0.00    -0.326 N 
HETATM    2  C   UNL     1     -39.992 -52.427  13.492  1.00  0.00     0.227 C 
HETATM    3  O   UNL     1     -40.063 -53.480  12.874  1.00  0.00    -0.273 OA
HETATM    4  H   UNL     1     -40.730 -51.062  14.829  1.00  0.00     0.169 HD
ENDROOT
BRANCH   1   5
HETATM    5  C   UNL     1     -42.107 -52.574  14.765  1.00  0.00     0.050 A 
HETATM    6  C   UNL     1     -43.164 -52.770  13.956  1.00  0.00     0.123 A 
HETATM    7  N   UNL     1     -44.312 -53.434  14.371  1.00  0.00    -0.320 N 
HETATM    8  C   UNL     1     -44.447 -53.932  15.662  1.00  0.00     0.247 A 
HETATM    9  C   UNL     1     -43.297 -53.688  16.572  1.00  0.00     0.077 A 
HETATM   10  O   UNL     1     -45.425 -54.539  16.085  1.00  0.00    -0.268 OA
HETATM   11  C   UNL     1     -42.202 -53.055  16.131  1.00  0.00     0.036 A 
BRANCH   7  12
HETATM   12  C   UNL     1     -45.368 -53.710  13.393  1.00  0.00     0.158 C 
BRANCH  12  13
HETATM   13  C   UNL     1     -46.153 -52.470  12.960  1.00  0.00     0.187 C 
BRANCH  13  14
HETATM   14  O   UNL     1     -46.429 -52.563  11.558  1.00  0.00    -0.394 OA
HETATM   15  C   UNL     1     -47.411 -51.615  11.162  1.00  0.00     0.201 C 
ENDBRANCH  13  14
ENDBRANCH  12  13
ENDBRANCH   7  12
ENDBRANCH   1   5
BRANCH   2  16
HETATM   16  C   UNL     1     -38.828 -51.510  13.269  1.00  0.00     0.095 A 
HETATM   17  C   UNL     1     -38.951 -50.094  13.813  1.00  0.00     0.030 A 
HETATM   18  C   UNL     1     -38.854 -50.316  12.317  1.00  0.00    -0.027 A 
HETATM   19  C   UNL     1     -37.585 -49.975  11.572  1.00  0.00     0.016 C 
HETATM   20  C   UNL     1     -40.096 -50.019  11.505  1.00  0.00     0.016 C 
BRANCH  17  21
HETATM   21  C   UNL     1     -37.858 -49.599  14.660  1.00  0.00    -0.019 C 
HETATM   22  C   UNL     1     -37.544 -48.303  14.865  1.00  0.00    -0.091 C 
HETATM   23  C   UNL     1     -38.308 -47.151  14.266  1.00  0.00     0.042 C 
HETATM   24  C   UNL     1     -36.358 -47.900  15.696  1.00  0.00     0.042 C 
ENDBRANCH  17  21
ENDBRANCH   2  16
TORSDOF 6
ENDMDL
MODEL 6
REMARK VINA RESULT:      -5.6      1.493      3.292
REMARK  6 active torsions:
REMARK  status: ('A' for Active; 'I' for Inactive)
REMARK    1  A    between atoms: O_2  and  C_3 
REMARK    2  A    between atoms: C_3  and  C_4 
REMARK    3  A    between atoms: C_4  and  N_5 
REMARK    4  A    between atoms: C_7  and  N_8 
REMARK       I    between atoms: N_8  and  C_9 
REMARK    5  A    between atoms: C_9  and  C_11 
REMARK    6  A    between atoms: C_12  and  C_13 
ROOT
HETATM    1  N   UNL     1     -41.882 -49.772  11.557  1.00  0.00    -0.326 N 
HETATM    2  C   UNL     1     -42.540 -50.411  12.594  1.00  0.00     0.227 C 
HETATM    3  O   UNL     1     -43.246 -49.871  13.434  1.00  0.00    -0.273 OA
HETATM    4  H   UNL     1     -41.334 -50.355  10.940  1.00  0.00     0.169 HD
ENDROOT
BRANCH   1   5
HETATM    5  C   UNL     1     -41.899 -48.418  11.278  1.00  0.00     0.050 A 
HETATM    6  C   UNL     1     -40.923 -47.549  11.597  1.00  0.00     0.123 A 
HETATM    7  N   UNL     1     -40.978 -46.203  11.258  1.00  0.00    -0.320 N 
HETATM    8  C   UNL     1     -42.058 -45.661  10.572  1.00  0.00     0.247 A 
HETATM    9  C   UNL     1     -43.158 -46.608  10.247  1.00  0.00     0.077 A 
HETATM   10  O   UNL     1     -42.161 -44.487  10.230  1.00  0.00    -0.268 OA
HETATM   11  C   UNL     1     -43.062 -47.902  10.579  1.00  0.00     0.036 A 
BRANCH   7  12
HETATM   12  C   UNL     1     -39.819 -45.350  11.538  1.00  0.00     0.158 C 
BRANCH  12  13
HETATM   13  C   UNL     1     -39.467 -45.249  13.024  1.00  0.00     0.187 C 
BRANCH  13  14
HETATM   14  O   UNL     1     -39.024 -43.916  13.305  1.00  0.00    -0.394 OA
HETATM   15  C   UNL     1     -39.892 -42.951  12.726  1.00  0.00     0.201 C 
ENDBRANCH  13  14
ENDBRANCH  12  13
ENDBRANCH   7  12
ENDBRANCH   1   5
BRANCH   2  16
HETATM   16  C   UNL     1     -42.360 -51.898  12.617  1.00  0.00     0.095 A 
HETATM   17  C   UNL     1     -42.696 -52.613  13.919  1.00  0.00     0.030 A 
HETATM   18  C   UNL     1     -41.268 -52.612  13.412  1.00  0.00    -0.027 A 
HETATM   19  C   UNL     1     -40.663 -53.863  12.821  1.00  0.00     0.016 C 
HETATM   20  C   UNL     1     -40.265 -51.810  14.213  1.00  0.00     0.016 C 
BRANCH  17  21
HETATM   21  C   UNL     1     -43.612 -53.759  13.841  1.00  0.00    -0.019 C 
HETATM   22  C   UNL     1     -44.954 -53.705  13.968  1.00  0.00    -0.091 C 
HETATM   23  C   UNL     1     -45.725 -52.428  14.180  1.00  0.00     0.042 C 
HETATM   24  C   UNL     1     -45.801 -54.947  13.946  1.00  0.00     0.042 C 
ENDBRANCH  17  21
ENDBRANCH   2  16
TORSDOF 6
ENDMDL
MODEL 7
REMARK VINA RESULT:      -5.5      3.124      6.792
REMARK  6 active torsions:
REMARK  status: ('A' for Active; 'I' for Inactive)
REMARK    1  A    between atoms: O_2  and  C_3 
REMARK    2  A    between atoms: C_3  and  C_4 
REMARK    3  A    between atoms: C_4  and  N_5 
REMARK    4  A    between atoms: C_7  and  N_8 
REMARK       I    between atoms: N_8  and  C_9 
REMARK    5  A    between atoms: C_9  and  C_11 
REMARK    6  A    between atoms: C_12  and  C_13 
ROOT
HETATM    1  N   UNL     1     -41.794 -50.011  13.138  1.00  0.00    -0.326 N 
HETATM    2  C   UNL     1     -40.942 -49.770  14.203  1.00  0.00     0.227 C 
HETATM    3  O   UNL     1     -40.914 -50.396  15.253  1.00  0.00    -0.273 OA
HETATM    4  H   UNL     1     -41.698 -49.407  12.334  1.00  0.00     0.169 HD
ENDROOT
BRANCH   1   5
HETATM    5  C   UNL     1     -42.761 -50.996  13.062  1.00  0.00     0.050 A 
HETATM    6  C   UNL     1     -44.068 -50.821  13.331  1.00  0.00     0.123 A 
HETATM    7  N   UNL     1     -45.003 -51.840  13.202  1.00  0.00    -0.320 N 
HETATM    8  C   UNL     1     -44.644 -53.119  12.793  1.00  0.00     0.247 A 
HETATM    9  C   UNL     1     -43.197 -53.330  12.527  1.00  0.00     0.077 A 
HETATM   10  O   UNL     1     -45.422 -54.057  12.644  1.00  0.00    -0.268 OA
HETATM   11  C   UNL     1     -42.327 -52.319  12.651  1.00  0.00     0.036 A 
BRANCH   7  12
HETATM   12  C   UNL     1     -46.422 -51.533  13.400  1.00  0.00     0.158 C 
BRANCH  12  13
HETATM   13  C   UNL     1     -46.832 -51.410  14.869  1.00  0.00     0.187 C 
BRANCH  13  14
HETATM   14  O   UNL     1     -47.096 -52.719  15.388  1.00  0.00    -0.394 OA
HETATM   15  C   UNL     1     -46.141 -53.085  16.374  1.00  0.00     0.201 C 
ENDBRANCH  13  14
ENDBRANCH  12  13
ENDBRANCH   7  12
ENDBRANCH   1   5
BRANCH   2  16
HETATM   16  C   UNL     1     -39.971 -48.652  13.976  1.00  0.00     0.095 A 
HETATM   17  C   UNL     1     -39.476 -48.445  12.552  1.00  0.00     0.030 A 
HETATM   18  C   UNL     1     -38.498 -48.859  13.632  1.00  0.00    -0.027 A 
HETATM   19  C   UNL     1     -37.495 -47.871  14.178  1.00  0.00     0.016 C 
HETATM   20  C   UNL     1     -37.931 -50.260  13.534  1.00  0.00     0.016 C 
BRANCH  17  21
HETATM   21  C   UNL     1     -39.582 -47.092  11.991  1.00  0.00    -0.019 C 
HETATM   22  C   UNL     1     -40.491 -46.686  11.080  1.00  0.00    -0.091 C 
HETATM   23  C   UNL     1     -41.572 -47.573  10.522  1.00  0.00     0.042 C 
HETATM   24  C   UNL     1     -40.472 -45.293  10.512  1.00  0.00     0.042 C 
ENDBRANCH  17  21
ENDBRANCH   2  16
TORSDOF 6
ENDMDL
MODEL 8
REMARK VINA RESULT:      -5.4      2.980      7.112
REMARK  6 active torsions:
REMARK  status: ('A' for Active; 'I' for Inactive)
REMARK    1  A    between atoms: O_2  and  C_3 
REMARK    2  A    between atoms: C_3  and  C_4 
REMARK    3  A    between atoms: C_4  and  N_5 
REMARK    4  A    between atoms: C_7  and  N_8 
REMARK       I    between atoms: N_8  and  C_9 
REMARK    5  A    between atoms: C_9  and  C_11 
REMARK    6  A    between atoms: C_12  and  C_13 
ROOT
HETATM    1  N   UNL     1     -40.914 -51.132  14.422  1.00  0.00    -0.326 N 
HETATM    2  C   UNL     1     -40.593 -50.551  13.207  1.00  0.00     0.227 C 
HETATM    3  O   UNL     1     -40.896 -50.984  12.104  1.00  0.00    -0.273 OA
HETATM    4  H   UNL     1     -40.592 -50.654  15.252  1.00  0.00     0.169 HD
ENDROOT
BRANCH   1   5
HETATM    5  C   UNL     1     -41.633 -52.297  14.616  1.00  0.00     0.050 A 
HETATM    6  C   UNL     1     -42.934 -52.462  14.317  1.00  0.00     0.123 A 
HETATM    7  N   UNL     1     -43.597 -53.669  14.500  1.00  0.00    -0.320 N 
HETATM    8  C   UNL     1     -42.956 -54.789  15.016  1.00  0.00     0.247 A 
HETATM    9  C   UNL     1     -41.527 -54.605  15.381  1.00  0.00     0.077 A 
HETATM   10  O   UNL     1     -43.480 -55.886  15.187  1.00  0.00    -0.268 OA
HETATM   11  C   UNL     1     -40.919 -53.428  15.178  1.00  0.00     0.036 A 
BRANCH   7  12
HETATM   12  C   UNL     1     -44.982 -53.798  14.038  1.00  0.00     0.158 C 
BRANCH  12  13
HETATM   13  C   UNL     1     -45.163 -53.546  12.539  1.00  0.00     0.187 C 
BRANCH  13  14
HETATM   14  O   UNL     1     -46.338 -52.751  12.341  1.00  0.00    -0.394 OA
HETATM   15  C   UNL     1     -46.375 -51.652  13.241  1.00  0.00     0.201 C 
ENDBRANCH  13  14
ENDBRANCH  12  13
ENDBRANCH   7  12
ENDBRANCH   1   5
BRANCH   2  16
HETATM   16  C   UNL     1     -39.833 -49.265  13.318  1.00  0.00     0.095 A 
HETATM   17  C   UNL     1     -39.240 -48.700  12.034  1.00  0.00     0.030 A 
HETATM   18  C   UNL     1     -38.319 -49.152  13.149  1.00  0.00    -0.027 A 
HETATM   19  C   UNL     1     -37.584 -48.139  13.994  1.00  0.00     0.016 C 
HETATM   20  C   UNL     1     -37.490 -50.390  12.883  1.00  0.00     0.016 C 
BRANCH  17  21
HETATM   21  C   UNL     1     -39.542 -47.299  11.712  1.00  0.00    -0.019 C 
HETATM   22  C   UNL     1     -40.609 -46.864  11.009  1.00  0.00    -0.091 C 
HETATM   23  C   UNL     1     -41.683 -47.771  10.470  1.00  0.00     0.042 C 
HETATM   24  C   UNL     1     -40.791 -45.411  10.669  1.00  0.00     0.042 C 
ENDBRANCH  17  21
ENDBRANCH   2  16
TORSDOF 6
ENDMDL
MODEL 9
REMARK VINA RESULT:      -5.3      2.174      4.473
REMARK  6 active torsions:
REMARK  status: ('A' for Active; 'I' for Inactive)
REMARK    1  A    between atoms: O_2  and  C_3 
REMARK    2  A    between atoms: C_3  and  C_4 
REMARK    3  A    between atoms: C_4  and  N_5 
REMARK    4  A    between atoms: C_7  and  N_8 
REMARK       I    between atoms: N_8  and  C_9 
REMARK    5  A    between atoms: C_9  and  C_11 
REMARK    6  A    between atoms: C_12  and  C_13 
ROOT
HETATM    1  N   UNL     1     -43.434 -49.096  13.214  1.00  0.00    -0.326 N 
HETATM    2  C   UNL     1     -43.219 -50.462  13.133  1.00  0.00     0.227 C 
HETATM    3  O   UNL     1     -42.449 -51.021  12.365  1.00  0.00    -0.273 OA
HETATM    4  H   UNL     1     -44.104 -48.782  13.903  1.00  0.00     0.169 HD
ENDROOT
BRANCH   1   5
HETATM    5  C   UNL     1     -42.824 -48.118  12.452  1.00  0.00     0.050 A 
HETATM    6  C   UNL     1     -41.709 -47.449  12.799  1.00  0.00     0.123 A 
HETATM    7  N   UNL     1     -41.118 -46.500  11.975  1.00  0.00    -0.320 N 
HETATM    8  C   UNL     1     -41.649 -46.170  10.733  1.00  0.00     0.247 A 
HETATM    9  C   UNL     1     -42.901 -46.880  10.358  1.00  0.00     0.077 A 
HETATM   10  O   UNL     1     -41.168 -45.354   9.953  1.00  0.00    -0.268 OA
HETATM   11  C   UNL     1     -43.434 -47.798  11.174  1.00  0.00     0.036 A 
BRANCH   7  12
HETATM   12  C   UNL     1     -39.840 -45.905  12.377  1.00  0.00     0.158 C 
BRANCH  12  13
HETATM   13  C   UNL     1     -39.528 -46.051  13.867  1.00  0.00     0.187 C 
BRANCH  13  14
HETATM   14  O   UNL     1     -38.357 -46.861  14.018  1.00  0.00    -0.394 OA
HETATM   15  C   UNL     1     -38.245 -47.365  15.342  1.00  0.00     0.201 C 
ENDBRANCH  13  14
ENDBRANCH  12  13
ENDBRANCH   7  12
ENDBRANCH   1   5
BRANCH   2  16
HETATM   16  C   UNL     1     -44.004 -51.271  14.120  1.00  0.00     0.095 A 
HETATM   17  C   UNL     1     -44.285 -52.722  13.755  1.00  0.00     0.030 A 
HETATM   18  C   UNL     1     -45.437 -51.746  13.886  1.00  0.00    -0.027 A 
HETATM   19  C   UNL     1     -46.367 -51.812  15.074  1.00  0.00     0.016 C 
HETATM   20  C   UNL     1     -46.160 -51.376  12.608  1.00  0.00     0.016 C 
BRANCH  17  21
HETATM   21  C   UNL     1     -43.938 -53.746  14.749  1.00  0.00    -0.019 C 
HETATM   22  C   UNL     1     -42.786 -54.447  14.789  1.00  0.00    -0.091 C 
HETATM   23  C   UNL     1     -41.652 -54.251  13.817  1.00  0.00     0.042 C 
HETATM   24  C   UNL     1     -42.554 -55.529  15.807  1.00  0.00     0.042 C 
ENDBRANCH  17  21
ENDBRANCH   2  16
TORSDOF 6
ENDMDL
