MODEL 1
REMARK VINA RESULT:      -6.1      0.000      0.000
REMARK  2 active torsions:
REMARK  status: ('A' for Active; 'I' for Inactive)
REMARK    1  A    between atoms: C_2  and  N_8 
REMARK       I    between atoms: N_8  and  C_9 
REMARK       I    between atoms: C_9  and  N_11 
REMARK    2  A    between atoms: N_11  and  C_12 
ROOT
HETATM    1  N   UNL     1     -41.775 -48.379   9.950  1.00  0.00    -0.334 N 
HETATM    2  C   UNL     1     -41.007 -48.789  11.014  1.00  0.00     0.321 C 
HETATM    3  O   UNL     1     -41.077 -48.290  12.131  1.00  0.00    -0.247 OA
HETATM    4  N   UNL     1     -40.208 -49.870  10.697  1.00  0.00    -0.308 N 
HETATM    5  H   UNL     1     -41.324 -48.473   9.049  1.00  0.00     0.165 HD
HETATM    6  H   UNL     1     -40.651 -50.517  10.061  1.00  0.00     0.170 HD
ENDROOT
BRANCH   1   7
HETATM    7  C   UNL     1     -42.804 -47.323  10.091  1.00  0.00     0.035 C 
HETATM    8  C   UNL     1     -43.752 -47.660  11.264  1.00  0.00     0.039 C 
HETATM    9  C   UNL     1     -42.099 -45.979  10.380  1.00  0.00     0.057 C 
HETATM   10  C   UNL     1     -43.053 -44.794  10.273  1.00  0.00     0.170 C 
HETATM   11  O   UNL     1     -43.671 -44.761   8.988  1.00  0.00    -0.391 OA
HETATM   12  C   UNL     1     -44.450 -45.926   8.731  1.00  0.00     0.170 C 
HETATM   13  C   UNL     1     -43.581 -47.176   8.761  1.00  0.00     0.057 C 
ENDBRANCH   1   7
BRANCH   4  14
HETATM   14  C   UNL     1     -39.370 -50.423  11.693  1.00  0.00     0.051 A 
HETATM   15  C   UNL     1     -38.012 -50.126  11.691  1.00  0.00     0.032 A 
HETATM   16  C   UNL     1     -37.172 -50.795  12.581  1.00  0.00     0.019 A 
HETATM   17  C   UNL     1     -37.732 -51.692  13.480  1.00  0.00     0.088 A 
HETATM   18  N   UNL     1     -39.052 -51.949  13.558  1.00  0.00    -0.373 N 
HETATM   19  C   UNL     1     -39.841 -51.324  12.650  1.00  0.00     0.117 A 
ATOM     20  HN  UNL     1     -39.437 -52.579  14.260  1.00  0.00     0.164 HD
ENDBRANCH   4  14
TORSDOF 2
ENDMDL
MODEL 2
REMARK VINA RESULT:      -6.0      1.850      6.938
REMARK  2 active torsions:
REMARK  status: ('A' for Active; 'I' for Inactive)
REMARK    1  A    between atoms: C_2  and  N_8 
REMARK       I    between atoms: N_8  and  C_9 
REMARK       I    between atoms: C_9  and  N_11 
REMARK    2  A    between atoms: N_11  and  C_12 
ROOT
HETATM    1  N   UNL     1     -40.629 -49.261  10.599  1.00  0.00    -0.334 N 
HETATM    2  C   UNL     1     -41.744 -48.462  10.685  1.00  0.00     0.321 C 
HETATM    3  O   UNL     1     -42.192 -48.037  11.745  1.00  0.00    -0.247 OA
HETATM    4  N   UNL     1     -42.253 -48.136   9.443  1.00  0.00    -0.308 N 
HETATM    5  H   UNL     1     -40.645 -49.920   9.832  1.00  0.00     0.165 HD
HETATM    6  H   UNL     1     -41.536 -48.001   8.745  1.00  0.00     0.170 HD
ENDROOT
BRANCH   1   7
HETATM    7  C   UNL     1     -39.837 -49.628  11.796  1.00  0.00     0.035 C 
HETATM    8  C   UNL     1     -39.820 -48.453  12.801  1.00  0.00     0.039 C 
HETATM    9  C   UNL     1     -40.490 -50.857  12.466  1.00  0.00     0.057 C 
HETATM   10  C   UNL     1     -39.599 -51.468  13.542  1.00  0.00     0.170 C 
HETATM   11  O   UNL     1     -38.326 -51.817  13.002  1.00  0.00    -0.391 OA
HETATM   12  C   UNL     1     -37.623 -50.687  12.494  1.00  0.00     0.170 C 
HETATM   13  C   UNL     1     -38.404 -50.025  11.368  1.00  0.00     0.057 C 
ENDBRANCH   1   7
BRANCH   4  14
HETATM   14  C   UNL     1     -43.392 -47.303   9.361  1.00  0.00     0.051 A 
HETATM   15  C   UNL     1     -44.654 -47.874   9.246  1.00  0.00     0.032 A 
HETATM   16  C   UNL     1     -45.752 -47.046   9.013  1.00  0.00     0.019 A 
HETATM   17  C   UNL     1     -45.554 -45.674   8.964  1.00  0.00     0.088 A 
HETATM   18  N   UNL     1     -44.357 -45.083   9.144  1.00  0.00    -0.373 N 
HETATM   19  C   UNL     1     -43.298 -45.911   9.319  1.00  0.00     0.117 A 
ATOM     20  HN  UNL     1     -44.252 -44.069   9.148  1.00  0.00     0.164 HD
ENDBRANCH   4  14
TORSDOF 2
ENDMDL
MODEL 3
REMARK VINA RESULT:      -5.8      2.458      6.959
REMARK  2 active torsions:
REMARK  status: ('A' for Active; 'I' for Inactive)
REMARK    1  A    between atoms: C_2  and  N_8 
REMARK       I    between atoms: N_8  and  C_9 
REMARK       I    between atoms: C_9  and  N_11 
REMARK    2  A    between atoms: N_11  and  C_12 
ROOT
HETATM    1  N   UNL     1     -39.125 -48.250  11.291  1.00  0.00    -0.334 N 
HETATM    2  C   UNL     1     -39.923 -47.172  11.594  1.00  0.00     0.321 C 
HETATM    3  O   UNL     1     -40.325 -46.924  12.725  1.00  0.00    -0.247 OA
HETATM    4  N   UNL     1     -40.156 -46.367  10.496  1.00  0.00    -0.308 N 
HETATM    5  H   UNL     1     -39.268 -48.628  10.363  1.00  0.00     0.165 HD
HETATM    6  H   UNL     1     -39.361 -46.302   9.877  1.00  0.00     0.170 HD
ENDROOT
BRANCH   1   7
HETATM    7  C   UNL     1     -38.633 -49.176  12.337  1.00  0.00     0.035 C 
HETATM    8  C   UNL     1     -38.091 -48.374  13.542  1.00  0.00     0.039 C 
HETATM    9  C   UNL     1     -39.808 -50.062  12.807  1.00  0.00     0.057 C 
HETATM   10  C   UNL     1     -39.342 -51.221  13.681  1.00  0.00     0.170 C 
HETATM   11  O   UNL     1     -38.371 -52.009  12.995  1.00  0.00    -0.391 OA
HETATM   12  C   UNL     1     -37.203 -51.263  12.662  1.00  0.00     0.170 C 
HETATM   13  C   UNL     1     -37.548 -50.102  11.740  1.00  0.00     0.057 C 
ENDBRANCH   1   7
BRANCH   4  14
HETATM   14  C   UNL     1     -40.947 -45.206  10.647  1.00  0.00     0.051 A 
HETATM   15  C   UNL     1     -40.336 -43.991  10.940  1.00  0.00     0.032 A 
HETATM   16  C   UNL     1     -41.134 -42.887  11.237  1.00  0.00     0.019 A 
HETATM   17  C   UNL     1     -42.514 -43.024  11.171  1.00  0.00     0.088 A 
HETATM   18  N   UNL     1     -43.137 -44.166  10.820  1.00  0.00    -0.373 N 
HETATM   19  C   UNL     1     -42.341 -45.237  10.585  1.00  0.00     0.117 A 
ATOM     20  HN  UNL     1     -44.151 -44.221  10.737  1.00  0.00     0.164 HD
ENDBRANCH   4  14
TORSDOF 2
ENDMDL
MODEL 4
REMARK VINA RESULT:      -5.7      4.140      6.528
REMARK  2 active torsions:
REMARK  status: ('A' for Active; 'I' for Inactive)
REMARK    1  A    between atoms: C_2  and  N_8 
REMARK       I    between atoms: N_8  and  C_9 
REMARK       I    between atoms: C_9  and  N_11 
REMARK    2  A    between atoms: N_11  and  C_12 
ROOT
HETATM    1  N   UNL     1     -43.089 -52.219  12.357  1.00  0.00    -0.334 N 
HETATM    2  C   UNL     1     -42.624 -50.925  12.390  1.00  0.00     0.321 C 
HETATM    3  O   UNL     1     -43.056 -50.070  13.154  1.00  0.00    -0.247 OA
HETATM    4  N   UNL     1     -41.570 -50.725  11.519  1.00  0.00    -0.308 N 
HETATM    5  H   UNL     1     -43.052 -52.653  11.444  1.00  0.00     0.165 HD
HETATM    6  H   UNL     1     -40.958 -51.525  11.448  1.00  0.00     0.170 HD
ENDROOT
BRANCH   1   7
HETATM    7  C   UNL     1     -44.126 -52.700  13.299  1.00  0.00     0.035 C 
HETATM    8  C   UNL     1     -45.370 -51.784  13.231  1.00  0.00     0.039 C 
HETATM    9  C   UNL     1     -44.532 -54.136  12.898  1.00  0.00     0.057 C 
HETATM   10  C   UNL     1     -45.390 -54.809  13.963  1.00  0.00     0.170 C 
HETATM   11  O   UNL     1     -44.716 -54.819  15.220  1.00  0.00    -0.391 OA
HETATM   12  C   UNL     1     -44.443 -53.505  15.699  1.00  0.00     0.170 C 
HETATM   13  C   UNL     1     -43.541 -52.753  14.730  1.00  0.00     0.057 C 
ENDBRANCH   1   7
BRANCH   4  14
HETATM   14  C   UNL     1     -40.967 -49.449  11.448  1.00  0.00     0.051 A 
HETATM   15  C   UNL     1     -39.942 -49.123  12.330  1.00  0.00     0.032 A 
HETATM   16  C   UNL     1     -39.461 -47.814  12.352  1.00  0.00     0.019 A 
HETATM   17  C   UNL     1     -39.981 -46.896  11.450  1.00  0.00     0.088 A 
HETATM   18  N   UNL     1     -40.922 -47.197  10.535  1.00  0.00    -0.373 N 
HETATM   19  C   UNL     1     -41.409 -48.462  10.566  1.00  0.00     0.117 A 
ATOM     20  HN  UNL     1     -41.251 -46.512   9.856  1.00  0.00     0.164 HD
ENDBRANCH   4  14
TORSDOF 2
ENDMDL
MODEL 5
REMARK VINA RESULT:      -5.5      1.742      2.346
REMARK  2 active torsions:
REMARK  status: ('A' for Active; 'I' for Inactive)
REMARK    1  A    between atoms: C_2  and  N_8 
REMARK       I    between atoms: N_8  and  C_9 
REMARK       I    between atoms: C_9  and  N_11 
REMARK    2  A    between atoms: N_11  and  C_12 
ROOT
HETATM    1  N   UNL     1     -41.561 -49.330  10.653  1.00  0.00    -0.334 N 
HETATM    2  C   UNL     1     -41.292 -50.075  11.777  1.00  0.00     0.321 C 
HETATM    3  O   UNL     1     -41.497 -49.676  12.918  1.00  0.00    -0.247 OA
HETATM    4  N   UNL     1     -40.837 -51.342  11.470  1.00  0.00    -0.308 N 
HETATM    5  H   UNL     1     -40.938 -49.508   9.876  1.00  0.00     0.165 HD
HETATM    6  H   UNL     1     -41.276 -51.732  10.648  1.00  0.00     0.170 HD
ENDROOT
BRANCH   1   7
HETATM    7  C   UNL     1     -42.184 -47.989  10.735  1.00  0.00     0.035 C 
HETATM    8  C   UNL     1     -43.202 -47.948  11.898  1.00  0.00     0.039 C 
HETATM    9  C   UNL     1     -41.077 -46.943  10.995  1.00  0.00     0.057 C 
HETATM   10  C   UNL     1     -41.584 -45.515  10.827  1.00  0.00     0.170 C 
HETATM   11  O   UNL     1     -42.144 -45.330   9.528  1.00  0.00    -0.391 OA
HETATM   12  C   UNL     1     -43.262 -46.182   9.293  1.00  0.00     0.170 C 
HETATM   13  C   UNL     1     -42.856 -47.646   9.385  1.00  0.00     0.057 C 
ENDBRANCH   1   7
BRANCH   4  14
HETATM   14  C   UNL     1     -40.532 -52.238  12.519  1.00  0.00     0.051 A 
HETATM   15  C   UNL     1     -41.374 -53.318  12.768  1.00  0.00     0.032 A 
HETATM   16  C   UNL     1     -41.148 -54.105  13.897  1.00  0.00     0.019 A 
HETATM   17  C   UNL     1     -40.054 -53.820  14.701  1.00  0.00     0.088 A 
HETATM   18  N   UNL     1     -39.177 -52.828  14.449  1.00  0.00    -0.373 N 
HETATM   19  C   UNL     1     -39.446 -52.046  13.375  1.00  0.00     0.117 A 
ATOM     20  HN  UNL     1     -38.357 -52.673  15.034  1.00  0.00     0.164 HD
ENDBRANCH   4  14
TORSDOF 2
ENDMDL
MODEL 6
REMARK VINA RESULT:      -5.4      2.247      6.721
REMARK  2 active torsions:
REMARK  status: ('A' for Active; 'I' for Inactive)
REMARK    1  A    between atoms: C_2  and  N_8 
REMARK       I    between atoms: N_8  and  C_9 
REMARK       I    between atoms: C_9  and  N_11 
REMARK    2  A    between atoms: N_11  and  C_12 
ROOT
HETATM    1  N   UNL     1     -41.144 -50.747  11.504  1.00  0.00    -0.334 N 
HETATM    2  C   UNL     1     -41.360 -49.404  11.703  1.00  0.00     0.321 C 
HETATM    3  O   UNL     1     -41.433 -48.887  12.812  1.00  0.00    -0.247 OA
HETATM    4  N   UNL     1     -41.411 -48.700  10.516  1.00  0.00    -0.308 N 
HETATM    5  H   UNL     1     -41.580 -51.122  10.672  1.00  0.00     0.165 HD
HETATM    6  H   UNL     1     -40.772 -49.054   9.818  1.00  0.00     0.170 HD
ENDROOT
BRANCH   1   7
HETATM    7  C   UNL     1     -40.921 -51.678  12.635  1.00  0.00     0.035 C 
HETATM    8  C   UNL     1     -42.010 -51.473  13.713  1.00  0.00     0.039 C 
HETATM    9  C   UNL     1     -40.999 -53.128  12.107  1.00  0.00     0.057 C 
HETATM   10  C   UNL     1     -40.517 -54.143  13.137  1.00  0.00     0.170 C 
HETATM   11  O   UNL     1     -39.188 -53.840  13.557  1.00  0.00    -0.391 OA
HETATM   12  C   UNL     1     -39.093 -52.562  14.180  1.00  0.00     0.170 C 
HETATM   13  C   UNL     1     -39.504 -51.458  13.215  1.00  0.00     0.057 C 
ENDBRANCH   1   7
BRANCH   4  14
HETATM   14  C   UNL     1     -41.610 -47.301  10.551  1.00  0.00     0.051 A 
HETATM   15  C   UNL     1     -40.530 -46.460  10.796  1.00  0.00     0.032 A 
HETATM   16  C   UNL     1     -40.764 -45.097  10.980  1.00  0.00     0.019 A 
HETATM   17  C   UNL     1     -42.060 -44.619  10.852  1.00  0.00     0.088 A 
HETATM   18  N   UNL     1     -43.117 -45.395  10.543  1.00  0.00    -0.373 N 
HETATM   19  C   UNL     1     -42.873 -46.722  10.418  1.00  0.00     0.117 A 
ATOM     20  HN  UNL     1     -44.050 -45.006  10.411  1.00  0.00     0.164 HD
ENDBRANCH   4  14
TORSDOF 2
ENDMDL
MODEL 7
REMARK VINA RESULT:      -5.4      4.001      5.884
REMARK  2 active torsions:
REMARK  status: ('A' for Active; 'I' for Inactive)
REMARK    1  A    between atoms: C_2  and  N_8 
REMARK       I    between atoms: N_8  and  C_9 
REMARK       I    between atoms: C_9  and  N_11 
REMARK    2  A    between atoms: N_11  and  C_12 
ROOT
HETATM    1  N   UNL     1     -43.377 -51.886  12.590  1.00  0.00    -0.334 N 
HETATM    2  C   UNL     1     -42.867 -50.611  12.521  1.00  0.00     0.321 C 
HETATM    3  O   UNL     1     -43.295 -49.674  13.185  1.00  0.00    -0.247 OA
HETATM    4  N   UNL     1     -41.777 -50.528  11.677  1.00  0.00    -0.308 N 
HETATM    5  H   UNL     1     -43.323 -52.406  11.724  1.00  0.00     0.165 HD
HETATM    6  H   UNL     1     -41.191 -51.350  11.704  1.00  0.00     0.170 HD
ENDROOT
BRANCH   1   7
HETATM    7  C   UNL     1     -44.463 -52.243  13.533  1.00  0.00     0.035 C 
HETATM    8  C   UNL     1     -44.809 -53.743  13.398  1.00  0.00     0.039 C 
HETATM    9  C   UNL     1     -43.980 -51.962  14.974  1.00  0.00     0.057 C 
HETATM   10  C   UNL     1     -45.117 -52.042  15.987  1.00  0.00     0.170 C 
HETATM   11  O   UNL     1     -46.168 -51.146  15.634  1.00  0.00    -0.391 OA
HETATM   12  C   UNL     1     -46.741 -51.454  14.366  1.00  0.00     0.170 C 
HETATM   13  C   UNL     1     -45.697 -51.351  13.262  1.00  0.00     0.057 C 
ENDBRANCH   1   7
BRANCH   4  14
HETATM   14  C   UNL     1     -41.127 -49.284  11.510  1.00  0.00     0.051 A 
HETATM   15  C   UNL     1     -40.086 -48.933  12.364  1.00  0.00     0.032 A 
HETATM   16  C   UNL     1     -39.556 -47.645  12.288  1.00  0.00     0.019 A 
HETATM   17  C   UNL     1     -40.045 -46.778  11.322  1.00  0.00     0.088 A 
HETATM   18  N   UNL     1     -41.001 -47.110  10.432  1.00  0.00    -0.373 N 
HETATM   19  C   UNL     1     -41.535 -48.349  10.558  1.00  0.00     0.117 A 
ATOM     20  HN  UNL     1     -41.306 -46.464   9.705  1.00  0.00     0.164 HD
ENDBRANCH   4  14
TORSDOF 2
ENDMDL
MODEL 8
REMARK VINA RESULT:      -5.4      4.371      6.961
REMARK  2 active torsions:
REMARK  status: ('A' for Active; 'I' for Inactive)
REMARK    1  A    between atoms: C_2  and  N_8 
REMARK       I    between atoms: N_8  and  C_9 
REMARK       I    between atoms: C_9  and  N_11 
REMARK    2  A    between atoms: N_11  and  C_12 
ROOT
HETATM    1  N   UNL     1     -41.837 -50.936  12.296  1.00  0.00    -0.334 N 
HETATM    2  C   UNL     1     -42.772 -51.523  13.115  1.00  0.00     0.321 C 
HETATM    3  O   UNL     1     -42.543 -51.861  14.271  1.00  0.00    -0.247 OA
HETATM    4  N   UNL     1     -44.010 -51.620  12.511  1.00  0.00    -0.308 N 
HETATM    5  H   UNL     1     -41.944 -51.156  11.315  1.00  0.00     0.165 HD
HETATM    6  H   UNL     1     -44.223 -50.833  11.915  1.00  0.00     0.170 HD
ENDROOT
BRANCH   1   7
HETATM    7  C   UNL     1     -40.474 -50.607  12.777  1.00  0.00     0.035 C 
HETATM    8  C   UNL     1     -40.548 -49.528  13.880  1.00  0.00     0.039 C 
HETATM    9  C   UNL     1     -39.833 -51.886  13.361  1.00  0.00     0.057 C 
HETATM   10  C   UNL     1     -38.343 -51.710  13.631  1.00  0.00     0.170 C 
HETATM   11  O   UNL     1     -37.660 -51.313  12.444  1.00  0.00    -0.391 OA
HETATM   12  C   UNL     1     -38.126 -50.063  11.942  1.00  0.00     0.170 C 
HETATM   13  C   UNL     1     -39.604 -50.140  11.586  1.00  0.00     0.057 C 
ENDBRANCH   1   7
BRANCH   4  14
HETATM   14  C   UNL     1     -45.086 -52.187  13.231  1.00  0.00     0.051 A 
HETATM   15  C   UNL     1     -45.911 -51.367  13.994  1.00  0.00     0.032 A 
HETATM   16  C   UNL     1     -46.872 -51.953  14.819  1.00  0.00     0.019 A 
HETATM   17  C   UNL     1     -47.012 -53.333  14.802  1.00  0.00     0.088 A 
HETATM   18  N   UNL     1     -46.279 -54.151  14.021  1.00  0.00    -0.373 N 
HETATM   19  C   UNL     1     -45.320 -53.562  13.267  1.00  0.00     0.117 A 
ATOM     20  HN  UNL     1     -46.438 -55.158  13.999  1.00  0.00     0.164 HD
ENDBRANCH   4  14
TORSDOF 2
ENDMDL
MODEL 9
REMARK VINA RESULT:      -5.4      4.234      5.897
REMARK  2 active torsions:
REMARK  status: ('A' for Active; 'I' for Inactive)
REMARK    1  A    between atoms: C_2  and  N_8 
REMARK       I    between atoms: N_8  and  C_9 
REMARK       I    between atoms: C_9  and  N_11 
REMARK    2  A    between atoms: N_11  and  C_12 
ROOT
HETATM    1  N   UNL     1     -42.611 -51.577  14.545  1.00  0.00    -0.334 N 
HETATM    2  C   UNL     1     -41.622 -51.622  13.591  1.00  0.00     0.321 C 
HETATM    3  O   UNL     1     -41.677 -52.331  12.593  1.00  0.00    -0.247 OA
HETATM    4  N   UNL     1     -40.602 -50.728  13.851  1.00  0.00    -0.308 N 
HETATM    5  H   UNL     1     -42.279 -51.392  15.483  1.00  0.00     0.165 HD
HETATM    6  H   UNL     1     -40.928 -49.864  14.260  1.00  0.00     0.170 HD
ENDROOT
BRANCH   1   7
HETATM    7  C   UNL     1     -43.867 -52.351  14.406  1.00  0.00     0.035 C 
HETATM    8  C   UNL     1     -44.754 -52.151  15.656  1.00  0.00     0.039 C 
HETATM    9  C   UNL     1     -44.627 -51.843  13.160  1.00  0.00     0.057 C 
HETATM   10  C   UNL     1     -45.789 -52.755  12.784  1.00  0.00     0.170 C 
HETATM   11  O   UNL     1     -45.333 -54.090  12.575  1.00  0.00    -0.391 OA
HETATM   12  C   UNL     1     -44.746 -54.653  13.745  1.00  0.00     0.170 C 
HETATM   13  C   UNL     1     -43.533 -53.845  14.184  1.00  0.00     0.057 C 
ENDBRANCH   1   7
BRANCH   4  14
HETATM   14  C   UNL     1     -39.516 -50.641  12.951  1.00  0.00     0.051 A 
HETATM   15  C   UNL     1     -38.284 -51.180  13.306  1.00  0.00     0.032 A 
HETATM   16  C   UNL     1     -37.184 -50.955  12.478  1.00  0.00     0.019 A 
HETATM   17  C   UNL     1     -37.370 -50.251  11.297  1.00  0.00     0.088 A 
HETATM   18  N   UNL     1     -38.564 -49.778  10.888  1.00  0.00    -0.373 N 
HETATM   19  C   UNL     1     -39.607 -49.966  11.732  1.00  0.00     0.117 A 
ATOM     20  HN  UNL     1     -38.676 -49.304   9.992  1.00  0.00     0.164 HD
ENDBRANCH   4  14
TORSDOF 2
ENDMDL
