MODEL 1
REMARK VINA RESULT:      -5.9      0.000      0.000
REMARK  7 active torsions:
REMARK  status: ('A' for Active; 'I' for Inactive)
REMARK    1  A    between atoms: C_2  and  C_3 
REMARK    2  A    between atoms: C_2  and  N_10 
REMARK    3  A    between atoms: C_3  and  N_4 
REMARK    4  A    between atoms: N_10  and  C_11 
REMARK    5  A    between atoms: C_11  and  C_13 
REMARK       I    between atoms: C_13  and  N_15 
REMARK    6  A    between atoms: N_15  and  C_16 
REMARK    7  A    between atoms: C_16  and  C_17 
ROOT
HETATM    1  C   UNL     1     -40.715 -50.600  11.938  1.00  0.00     0.308 C 
HETATM    2  C   UNL     1     -39.238 -50.736  12.298  1.00  0.00     0.053 C 
ENDROOT
BRANCH   1   3
HETATM    3  N   UNL     1     -41.450 -49.618  12.781  1.00  0.00     0.102 N 
HETATM    4  H   UNL     1     -42.348 -50.039  13.030  1.00  0.00     0.317 HD
BRANCH   3   5
HETATM    5  C   UNL     1     -41.676 -48.296  12.161  1.00  0.00     0.237 C 
HETATM    6  C   UNL     1     -40.640 -47.272  12.651  1.00  0.00     0.044 C 
BRANCH   5   7
HETATM    7  C   UNL     1     -41.568 -48.364  10.620  1.00  0.00     0.183 C 
BRANCH   7   8
HETATM    8  N   UNL     1     -42.716 -47.867   9.887  1.00  0.00    -0.302 N 
HETATM    9  C   UNL     1     -43.913 -47.471  10.417  1.00  0.00     0.111 A 
HETATM   10  C   UNL     1     -44.775 -47.318   9.359  1.00  0.00     0.037 A 
HETATM   11  C   UNL     1     -44.006 -47.640   8.227  1.00  0.00     0.108 A 
HETATM   12  N   UNL     1     -42.751 -47.977   8.540  1.00  0.00    -0.310 N 
ATOM     13  HN  UNL     1     -41.997 -48.253   7.911  1.00  0.00     0.186 HD
ENDBRANCH   7   8
ENDBRANCH   5   7
ENDBRANCH   3   5
ENDBRANCH   1   3
BRANCH   1  14
HETATM   14  C   UNL     1     -41.385 -51.985  12.068  1.00  0.00     0.250 C 
HETATM   15  O   UNL     1     -40.745 -53.030  11.977  1.00  0.00    -0.271 OA
HETATM   16  N   UNL     1     -42.733 -51.942  12.333  1.00  0.00    -0.357 N 
HETATM   17  H   UNL     1     -43.179 -51.027  12.331  1.00  0.00     0.162 HD
BRANCH  16  18
HETATM   18  C   UNL     1     -43.553 -53.127  12.496  1.00  0.00     0.154 C 
BRANCH  18  19
HETATM   19  C   UNL     1     -45.021 -52.797  12.767  1.00  0.00     0.139 C 
HETATM   20  C   UNL     1     -45.306 -51.361  13.191  1.00  0.00     0.035 C 
HETATM   21  C   UNL     1     -46.417 -51.480  14.216  1.00  0.00     0.029 C 
HETATM   22  C   UNL     1     -46.720 -52.961  14.293  1.00  0.00     0.168 C 
HETATM   23  O   UNL     1     -45.541 -53.621  13.827  1.00  0.00    -0.384 OA
ENDBRANCH  18  19
ENDBRANCH  16  18
ENDBRANCH   1  14
TORSDOF 7
ENDMDL
MODEL 2
REMARK VINA RESULT:      -5.7      2.818      3.609
REMARK  7 active torsions:
REMARK  status: ('A' for Active; 'I' for Inactive)
REMARK    1  A    between atoms: C_2  and  C_3 
REMARK    2  A    between atoms: C_2  and  N_10 
REMARK    3  A    between atoms: C_3  and  N_4 
REMARK    4  A    between atoms: N_10  and  C_11 
REMARK    5  A    between atoms: C_11  and  C_13 
REMARK       I    between atoms: C_13  and  N_15 
REMARK    6  A    between atoms: N_15  and  C_16 
REMARK    7  A    between atoms: C_16  and  C_17 
ROOT
HETATM    1  C   UNL     1     -40.046 -48.779  11.413  1.00  0.00     0.308 C 
HETATM    2  C   UNL     1     -39.435 -48.279  12.720  1.00  0.00     0.053 C 
ENDROOT
BRANCH   1   3
HETATM    3  N   UNL     1     -40.643 -47.700  10.579  1.00  0.00     0.102 N 
HETATM    4  H   UNL     1     -40.110 -47.656   9.708  1.00  0.00     0.317 HD
BRANCH   3   5
HETATM    5  C   UNL     1     -40.680 -46.363  11.207  1.00  0.00     0.237 C 
HETATM    6  C   UNL     1     -39.853 -45.350  10.399  1.00  0.00     0.044 C 
BRANCH   5   7
HETATM    7  C   UNL     1     -42.124 -45.815  11.296  1.00  0.00     0.183 C 
BRANCH   7   8
HETATM    8  N   UNL     1     -43.082 -46.418  10.391  1.00  0.00    -0.302 N 
HETATM    9  C   UNL     1     -43.363 -46.015   9.114  1.00  0.00     0.111 A 
HETATM   10  C   UNL     1     -44.489 -46.702   8.730  1.00  0.00     0.037 A 
HETATM   11  C   UNL     1     -44.813 -47.501   9.841  1.00  0.00     0.108 A 
HETATM   12  N   UNL     1     -43.962 -47.332  10.857  1.00  0.00    -0.310 N 
ATOM     13  HN  UNL     1     -43.973 -47.786  11.770  1.00  0.00     0.186 HD
ENDBRANCH   7   8
ENDBRANCH   5   7
ENDBRANCH   3   5
ENDBRANCH   1   3
BRANCH   1  14
HETATM   14  C   UNL     1     -41.130 -49.827  11.743  1.00  0.00     0.250 C 
HETATM   15  O   UNL     1     -42.254 -49.505  12.120  1.00  0.00    -0.271 OA
HETATM   16  N   UNL     1     -40.741 -51.129  11.542  1.00  0.00    -0.357 N 
HETATM   17  H   UNL     1     -39.771 -51.292  11.284  1.00  0.00     0.162 HD
BRANCH  16  18
HETATM   18  C   UNL     1     -41.606 -52.268  11.787  1.00  0.00     0.154 C 
BRANCH  18  19
HETATM   19  C   UNL     1     -40.893 -53.403  12.523  1.00  0.00     0.139 C 
HETATM   20  C   UNL     1     -41.681 -54.051  13.655  1.00  0.00     0.035 C 
HETATM   21  C   UNL     1     -40.641 -54.358  14.716  1.00  0.00     0.029 C 
HETATM   22  C   UNL     1     -39.328 -53.901  14.118  1.00  0.00     0.168 C 
HETATM   23  O   UNL     1     -39.672 -52.934  13.124  1.00  0.00    -0.384 OA
ENDBRANCH  18  19
ENDBRANCH  16  18
ENDBRANCH   1  14
TORSDOF 7
ENDMDL
MODEL 3
REMARK VINA RESULT:      -5.6      2.671      5.760
REMARK  7 active torsions:
REMARK  status: ('A' for Active; 'I' for Inactive)
REMARK    1  A    between atoms: C_2  and  C_3 
REMARK    2  A    between atoms: C_2  and  N_10 
REMARK    3  A    between atoms: C_3  and  N_4 
REMARK    4  A    between atoms: N_10  and  C_11 
REMARK    5  A    between atoms: C_11  and  C_13 
REMARK       I    between atoms: C_13  and  N_15 
REMARK    6  A    between atoms: N_15  and  C_16 
REMARK    7  A    between atoms: C_16  and  C_17 
ROOT
HETATM    1  C   UNL     1     -39.495 -49.927  12.009  1.00  0.00     0.308 C 
HETATM    2  C   UNL     1     -38.090 -50.037  11.422  1.00  0.00     0.053 C 
ENDROOT
BRANCH   1   3
HETATM    3  N   UNL     1     -40.527 -50.671  11.236  1.00  0.00     0.102 N 
HETATM    4  H   UNL     1     -41.162 -49.981  10.830  1.00  0.00     0.317 HD
BRANCH   3   5
HETATM    5  C   UNL     1     -41.302 -51.665  12.009  1.00  0.00     0.237 C 
HETATM    6  C   UNL     1     -40.372 -52.576  12.825  1.00  0.00     0.044 C 
BRANCH   5   7
HETATM    7  C   UNL     1     -42.272 -50.983  13.002  1.00  0.00     0.183 C 
BRANCH   7   8
HETATM    8  N   UNL     1     -43.648 -51.437  12.947  1.00  0.00    -0.302 N 
HETATM    9  C   UNL     1     -44.699 -50.943  13.669  1.00  0.00     0.111 A 
HETATM   10  C   UNL     1     -45.741 -51.819  13.487  1.00  0.00     0.037 A 
HETATM   11  C   UNL     1     -45.224 -52.811  12.634  1.00  0.00     0.108 A 
HETATM   12  N   UNL     1     -43.950 -52.586  12.302  1.00  0.00    -0.310 N 
ATOM     13  HN  UNL     1     -43.346 -53.149  11.703  1.00  0.00     0.186 HD
ENDBRANCH   7   8
ENDBRANCH   5   7
ENDBRANCH   3   5
ENDBRANCH   1   3
BRANCH   1  14
HETATM   14  C   UNL     1     -39.887 -48.435  12.076  1.00  0.00     0.250 C 
HETATM   15  O   UNL     1     -39.720 -47.762  13.089  1.00  0.00    -0.271 OA
HETATM   16  N   UNL     1     -40.394 -47.928  10.904  1.00  0.00    -0.357 N 
HETATM   17  H   UNL     1     -40.547 -48.582  10.140  1.00  0.00     0.162 HD
BRANCH  16  18
HETATM   18  C   UNL     1     -40.821 -46.550  10.748  1.00  0.00     0.154 C 
BRANCH  18  19
HETATM   19  C   UNL     1     -42.322 -46.422  10.486  1.00  0.00     0.139 C 
HETATM   20  C   UNL     1     -43.046 -47.722  10.155  1.00  0.00     0.035 C 
HETATM   21  C   UNL     1     -44.077 -47.330   9.114  1.00  0.00     0.029 C 
HETATM   22  C   UNL     1     -43.903 -45.837   8.937  1.00  0.00     0.168 C 
HETATM   23  O   UNL     1     -42.572 -45.549   9.369  1.00  0.00    -0.384 OA
ENDBRANCH  18  19
ENDBRANCH  16  18
ENDBRANCH   1  14
TORSDOF 7
ENDMDL
MODEL 4
REMARK VINA RESULT:      -5.5      2.819      5.810
REMARK  7 active torsions:
REMARK  status: ('A' for Active; 'I' for Inactive)
REMARK    1  A    between atoms: C_2  and  C_3 
REMARK    2  A    between atoms: C_2  and  N_10 
REMARK    3  A    between atoms: C_3  and  N_4 
REMARK    4  A    between atoms: N_10  and  C_11 
REMARK    5  A    between atoms: C_11  and  C_13 
REMARK       I    between atoms: C_13  and  N_15 
REMARK    6  A    between atoms: N_15  and  C_16 
REMARK    7  A    between atoms: C_16  and  C_17 
ROOT
HETATM    1  C   UNL     1     -42.740 -49.254  12.445  1.00  0.00     0.308 C 
HETATM    2  C   UNL     1     -41.830 -48.728  13.553  1.00  0.00     0.053 C 
ENDROOT
BRANCH   1   3
HETATM    3  N   UNL     1     -42.505 -50.684  12.105  1.00  0.00     0.102 N 
HETATM    4  H   UNL     1     -43.420 -51.121  11.972  1.00  0.00     0.317 HD
BRANCH   3   5
HETATM    5  C   UNL     1     -41.728 -51.451  13.100  1.00  0.00     0.237 C 
HETATM    6  C   UNL     1     -42.533 -52.649  13.626  1.00  0.00     0.044 C 
BRANCH   5   7
HETATM    7  C   UNL     1     -40.416 -52.005  12.495  1.00  0.00     0.183 C 
BRANCH   7   8
HETATM    8  N   UNL     1     -39.314 -51.066  12.420  1.00  0.00    -0.302 N 
HETATM    9  C   UNL     1     -38.522 -50.654  13.456  1.00  0.00     0.111 A 
HETATM   10  C   UNL     1     -37.786 -49.594  12.985  1.00  0.00     0.037 A 
HETATM   11  C   UNL     1     -38.200 -49.442  11.649  1.00  0.00     0.108 A 
HETATM   12  N   UNL     1     -39.131 -50.334  11.299  1.00  0.00    -0.310 N 
ATOM     13  HN  UNL     1     -39.596 -50.437  10.397  1.00  0.00     0.186 HD
ENDBRANCH   7   8
ENDBRANCH   5   7
ENDBRANCH   3   5
ENDBRANCH   1   3
BRANCH   1  14
HETATM   14  C   UNL     1     -42.531 -48.389  11.183  1.00  0.00     0.250 C 
HETATM   15  O   UNL     1     -41.551 -48.524  10.455  1.00  0.00    -0.271 OA
HETATM   16  N   UNL     1     -43.546 -47.498  10.931  1.00  0.00    -0.357 N 
HETATM   17  H   UNL     1     -44.285 -47.423  11.627  1.00  0.00     0.162 HD
BRANCH  16  18
HETATM   18  C   UNL     1     -43.552 -46.593   9.797  1.00  0.00     0.154 C 
BRANCH  18  19
HETATM   19  C   UNL     1     -44.622 -46.947   8.764  1.00  0.00     0.139 C 
HETATM   20  C   UNL     1     -45.966 -47.385   9.332  1.00  0.00     0.035 C 
HETATM   21  C   UNL     1     -46.443 -48.472   8.388  1.00  0.00     0.029 C 
HETATM   22  C   UNL     1     -45.367 -48.566   7.327  1.00  0.00     0.168 C 
HETATM   23  O   UNL     1     -44.185 -48.034   7.929  1.00  0.00    -0.384 OA
ENDBRANCH  18  19
ENDBRANCH  16  18
ENDBRANCH   1  14
TORSDOF 7
ENDMDL
MODEL 5
REMARK VINA RESULT:      -5.4      1.949      3.855
REMARK  7 active torsions:
REMARK  status: ('A' for Active; 'I' for Inactive)
REMARK    1  A    between atoms: C_2  and  C_3 
REMARK    2  A    between atoms: C_2  and  N_10 
REMARK    3  A    between atoms: C_3  and  N_4 
REMARK    4  A    between atoms: N_10  and  C_11 
REMARK    5  A    between atoms: C_11  and  C_13 
REMARK       I    between atoms: C_13  and  N_15 
REMARK    6  A    between atoms: N_15  and  C_16 
REMARK    7  A    between atoms: C_16  and  C_17 
ROOT
HETATM    1  C   UNL     1     -42.230 -49.847  12.909  1.00  0.00     0.308 C 
HETATM    2  C   UNL     1     -43.122 -48.942  13.755  1.00  0.00     0.053 C 
ENDROOT
BRANCH   1   3
HETATM    3  N   UNL     1     -42.234 -49.507  11.459  1.00  0.00     0.102 N 
HETATM    4  H   UNL     1     -42.285 -50.386  10.940  1.00  0.00     0.317 HD
BRANCH   3   5
HETATM    5  C   UNL     1     -41.075 -48.719  10.991  1.00  0.00     0.237 C 
HETATM    6  C   UNL     1     -41.492 -47.286  10.627  1.00  0.00     0.044 C 
BRANCH   5   7
HETATM    7  C   UNL     1     -39.977 -48.621  12.076  1.00  0.00     0.183 C 
BRANCH   7   8
HETATM    8  N   UNL     1     -38.919 -49.608  11.990  1.00  0.00    -0.302 N 
HETATM    9  C   UNL     1     -38.374 -50.313  13.027  1.00  0.00     0.111 A 
HETATM   10  C   UNL     1     -37.255 -50.934  12.530  1.00  0.00     0.037 A 
HETATM   11  C   UNL     1     -37.206 -50.547  11.178  1.00  0.00     0.108 A 
HETATM   12  N   UNL     1     -38.215 -49.738  10.842  1.00  0.00    -0.310 N 
ATOM     13  HN  UNL     1     -38.409 -49.317   9.934  1.00  0.00     0.186 HD
ENDBRANCH   7   8
ENDBRANCH   5   7
ENDBRANCH   3   5
ENDBRANCH   1   3
BRANCH   1  14
HETATM   14  C   UNL     1     -42.695 -51.308  13.091  1.00  0.00     0.250 C 
HETATM   15  O   UNL     1     -41.990 -52.153  13.636  1.00  0.00    -0.271 OA
HETATM   16  N   UNL     1     -43.965 -51.561  12.632  1.00  0.00    -0.357 N 
HETATM   17  H   UNL     1     -44.444 -50.807  12.144  1.00  0.00     0.162 HD
BRANCH  16  18
HETATM   18  C   UNL     1     -44.597 -52.864  12.708  1.00  0.00     0.154 C 
BRANCH  18  19
HETATM   19  C   UNL     1     -45.819 -52.876  13.627  1.00  0.00     0.139 C 
HETATM   20  C   UNL     1     -46.551 -51.547  13.766  1.00  0.00     0.035 C 
HETATM   21  C   UNL     1     -46.992 -51.505  15.217  1.00  0.00     0.029 C 
HETATM   22  C   UNL     1     -46.518 -52.816  15.806  1.00  0.00     0.168 C 
HETATM   23  O   UNL     1     -45.447 -53.253  14.966  1.00  0.00    -0.384 OA
ENDBRANCH  18  19
ENDBRANCH  16  18
ENDBRANCH   1  14
TORSDOF 7
ENDMDL
MODEL 6
REMARK VINA RESULT:      -5.4      2.440      4.850
REMARK  7 active torsions:
REMARK  status: ('A' for Active; 'I' for Inactive)
REMARK    1  A    between atoms: C_2  and  C_3 
REMARK    2  A    between atoms: C_2  and  N_10 
REMARK    3  A    between atoms: C_3  and  N_4 
REMARK    4  A    between atoms: N_10  and  C_11 
REMARK    5  A    between atoms: C_11  and  C_13 
REMARK       I    between atoms: C_13  and  N_15 
REMARK    6  A    between atoms: N_15  and  C_16 
REMARK    7  A    between atoms: C_16  and  C_17 
ROOT
HETATM    1  C   UNL     1     -40.980 -50.481  12.257  1.00  0.00     0.308 C 
HETATM    2  C   UNL     1     -42.044 -49.446  11.900  1.00  0.00     0.053 C 
ENDROOT
BRANCH   1   3
HETATM    3  N   UNL     1     -39.783 -50.441  11.373  1.00  0.00     0.102 N 
HETATM    4  H   UNL     1     -39.746 -51.329  10.868  1.00  0.00     0.317 HD
BRANCH   3   5
HETATM    5  C   UNL     1     -38.497 -50.205  12.060  1.00  0.00     0.237 C 
HETATM    6  C   UNL     1     -37.348 -50.061  11.050  1.00  0.00     0.044 C 
BRANCH   5   7
HETATM    7  C   UNL     1     -38.533 -48.912  12.908  1.00  0.00     0.183 C 
BRANCH   7   8
HETATM    8  N   UNL     1     -37.614 -48.870  14.029  1.00  0.00    -0.302 N 
HETATM    9  C   UNL     1     -37.300 -49.906  14.866  1.00  0.00     0.111 A 
HETATM   10  C   UNL     1     -36.598 -49.360  15.912  1.00  0.00     0.037 A 
HETATM   11  C   UNL     1     -36.534 -47.986  15.618  1.00  0.00     0.108 A 
HETATM   12  N   UNL     1     -37.151 -47.680  14.473  1.00  0.00    -0.310 N 
ATOM     13  HN  UNL     1     -37.251 -46.763  14.037  1.00  0.00     0.186 HD
ENDBRANCH   7   8
ENDBRANCH   5   7
ENDBRANCH   3   5
ENDBRANCH   1   3
BRANCH   1  14
HETATM   14  C   UNL     1     -41.617 -51.887  12.190  1.00  0.00     0.250 C 
HETATM   15  O   UNL     1     -40.946 -52.898  12.001  1.00  0.00    -0.271 OA
HETATM   16  N   UNL     1     -42.975 -51.905  12.397  1.00  0.00    -0.357 N 
HETATM   17  H   UNL     1     -43.446 -51.007  12.486  1.00  0.00     0.162 HD
BRANCH  16  18
HETATM   18  C   UNL     1     -43.769 -53.119  12.379  1.00  0.00     0.154 C 
BRANCH  18  19
HETATM   19  C   UNL     1     -45.228 -52.877  12.769  1.00  0.00     0.139 C 
HETATM   20  C   UNL     1     -45.602 -51.427  13.053  1.00  0.00     0.035 C 
HETATM   21  C   UNL     1     -46.590 -51.507  14.201  1.00  0.00     0.029 C 
HETATM   22  C   UNL     1     -46.745 -52.987  14.480  1.00  0.00     0.168 C 
HETATM   23  O   UNL     1     -45.562 -53.602  13.967  1.00  0.00    -0.384 OA
ENDBRANCH  18  19
ENDBRANCH  16  18
ENDBRANCH   1  14
TORSDOF 7
ENDMDL
MODEL 7
REMARK VINA RESULT:      -5.3      1.997      3.247
REMARK  7 active torsions:
REMARK  status: ('A' for Active; 'I' for Inactive)
REMARK    1  A    between atoms: C_2  and  C_3 
REMARK    2  A    between atoms: C_2  and  N_10 
REMARK    3  A    between atoms: C_3  and  N_4 
REMARK    4  A    between atoms: N_10  and  C_11 
REMARK    5  A    between atoms: C_11  and  C_13 
REMARK       I    between atoms: C_13  and  N_15 
REMARK    6  A    between atoms: N_15  and  C_16 
REMARK    7  A    between atoms: C_16  and  C_17 
ROOT
HETATM    1  C   UNL     1     -42.455 -48.357  11.856  1.00  0.00     0.308 C 
HETATM    2  C   UNL     1     -42.860 -47.660  13.152  1.00  0.00     0.053 C 
ENDROOT
BRANCH   1   3
HETATM    3  N   UNL     1     -43.440 -48.191  10.752  1.00  0.00     0.102 N 
HETATM    4  H   UNL     1     -43.747 -49.125  10.473  1.00  0.00     0.317 HD
BRANCH   3   5
HETATM    5  C   UNL     1     -42.946 -47.456   9.569  1.00  0.00     0.237 C 
HETATM    6  C   UNL     1     -43.853 -47.694   8.352  1.00  0.00     0.044 C 
BRANCH   5   7
HETATM    7  C   UNL     1     -42.902 -45.930   9.823  1.00  0.00     0.183 C 
BRANCH   7   8
HETATM    8  N   UNL     1     -41.671 -45.424  10.395  1.00  0.00    -0.302 N 
HETATM    9  C   UNL     1     -41.548 -44.391  11.284  1.00  0.00     0.111 A 
HETATM   10  C   UNL     1     -40.208 -44.099  11.358  1.00  0.00     0.037 A 
HETATM   11  C   UNL     1     -39.598 -45.013  10.480  1.00  0.00     0.108 A 
HETATM   12  N   UNL     1     -40.482 -45.821   9.888  1.00  0.00    -0.310 N 
ATOM     13  HN  UNL     1     -40.303 -46.564   9.213  1.00  0.00     0.186 HD
ENDBRANCH   7   8
ENDBRANCH   5   7
ENDBRANCH   3   5
ENDBRANCH   1   3
BRANCH   1  14
HETATM   14  C   UNL     1     -42.262 -49.862  12.144  1.00  0.00     0.250 C 
HETATM   15  O   UNL     1     -41.202 -50.439  11.915  1.00  0.00    -0.271 OA
HETATM   16  N   UNL     1     -43.354 -50.476  12.709  1.00  0.00    -0.357 N 
HETATM   17  H   UNL     1     -44.203 -49.923  12.804  1.00  0.00     0.162 HD
BRANCH  16  18
HETATM   18  C   UNL     1     -43.385 -51.882  13.062  1.00  0.00     0.154 C 
BRANCH  18  19
HETATM   19  C   UNL     1     -44.779 -52.358  13.472  1.00  0.00     0.139 C 
HETATM   20  C   UNL     1     -45.870 -51.295  13.452  1.00  0.00     0.035 C 
HETATM   21  C   UNL     1     -46.749 -51.628  14.642  1.00  0.00     0.029 C 
HETATM   22  C   UNL     1     -46.130 -52.870  15.248  1.00  0.00     0.168 C 
HETATM   23  O   UNL     1     -44.768 -52.873  14.816  1.00  0.00    -0.384 OA
ENDBRANCH  18  19
ENDBRANCH  16  18
ENDBRANCH   1  14
TORSDOF 7
ENDMDL
MODEL 8
REMARK VINA RESULT:      -5.3      2.451      6.016
REMARK  7 active torsions:
REMARK  status: ('A' for Active; 'I' for Inactive)
REMARK    1  A    between atoms: C_2  and  C_3 
REMARK    2  A    between atoms: C_2  and  N_10 
REMARK    3  A    between atoms: C_3  and  N_4 
REMARK    4  A    between atoms: N_10  and  C_11 
REMARK    5  A    between atoms: C_11  and  C_13 
REMARK       I    between atoms: C_13  and  N_15 
REMARK    6  A    between atoms: N_15  and  C_16 
REMARK    7  A    between atoms: C_16  and  C_17 
ROOT
HETATM    1  C   UNL     1     -41.724 -51.158  12.468  1.00  0.00     0.308 C 
HETATM    2  C   UNL     1     -40.382 -50.785  11.842  1.00  0.00     0.053 C 
ENDROOT
BRANCH   1   3
HETATM    3  N   UNL     1     -42.358 -52.359  11.857  1.00  0.00     0.102 N 
HETATM    4  H   UNL     1     -43.261 -52.068  11.476  1.00  0.00     0.317 HD
BRANCH   3   5
HETATM    5  C   UNL     1     -42.549 -53.505  12.769  1.00  0.00     0.237 C 
HETATM    6  C   UNL     1     -42.108 -53.154  14.198  1.00  0.00     0.044 C 
BRANCH   5   7
HETATM    7  C   UNL     1     -44.032 -53.940  12.835  1.00  0.00     0.183 C 
BRANCH   7   8
HETATM    8  N   UNL     1     -44.987 -52.877  13.080  1.00  0.00    -0.302 N 
HETATM    9  C   UNL     1     -45.521 -52.523  14.289  1.00  0.00     0.111 A 
HETATM   10  C   UNL     1     -46.548 -51.651  14.019  1.00  0.00     0.037 A 
HETATM   11  C   UNL     1     -46.555 -51.536  12.617  1.00  0.00     0.108 A 
HETATM   12  N   UNL     1     -45.609 -52.281  12.038  1.00  0.00    -0.310 N 
ATOM     13  HN  UNL     1     -45.405 -52.378  11.044  1.00  0.00     0.186 HD
ENDBRANCH   7   8
ENDBRANCH   5   7
ENDBRANCH   3   5
ENDBRANCH   1   3
BRANCH   1  14
HETATM   14  C   UNL     1     -42.681 -49.954  12.335  1.00  0.00     0.250 C 
HETATM   15  O   UNL     1     -43.609 -49.769  13.118  1.00  0.00    -0.271 OA
HETATM   16  N   UNL     1     -42.379 -49.099  11.302  1.00  0.00    -0.357 N 
HETATM   17  H   UNL     1     -41.626 -49.373  10.675  1.00  0.00     0.162 HD
BRANCH  16  18
HETATM   18  C   UNL     1     -43.147 -47.906  11.002  1.00  0.00     0.154 C 
BRANCH  18  19
HETATM   19  C   UNL     1     -42.331 -46.622  11.159  1.00  0.00     0.139 C 
HETATM   20  C   UNL     1     -40.840 -46.752  10.874  1.00  0.00     0.035 C 
HETATM   21  C   UNL     1     -40.178 -45.839  11.889  1.00  0.00     0.029 C 
HETATM   22  C   UNL     1     -41.322 -45.224  12.665  1.00  0.00     0.168 C 
HETATM   23  O   UNL     1     -42.424 -46.121  12.505  1.00  0.00    -0.384 OA
ENDBRANCH  18  19
ENDBRANCH  16  18
ENDBRANCH   1  14
TORSDOF 7
ENDMDL
MODEL 9
REMARK VINA RESULT:      -5.3      2.523      6.412
REMARK  7 active torsions:
REMARK  status: ('A' for Active; 'I' for Inactive)
REMARK    1  A    between atoms: C_2  and  C_3 
REMARK    2  A    between atoms: C_2  and  N_10 
REMARK    3  A    between atoms: C_3  and  N_4 
REMARK    4  A    between atoms: N_10  and  C_11 
REMARK    5  A    between atoms: C_11  and  C_13 
REMARK       I    between atoms: C_13  and  N_15 
REMARK    6  A    between atoms: N_15  and  C_16 
REMARK    7  A    between atoms: C_16  and  C_17 
ROOT
HETATM    1  C   UNL     1     -43.436 -49.673  13.522  1.00  0.00     0.308 C 
HETATM    2  C   UNL     1     -42.797 -50.433  14.682  1.00  0.00     0.053 C 
ENDROOT
BRANCH   1   3
HETATM    3  N   UNL     1     -44.468 -50.456  12.789  1.00  0.00     0.102 N 
HETATM    4  H   UNL     1     -45.280 -49.848  12.661  1.00  0.00     0.317 HD
BRANCH   3   5
HETATM    5  C   UNL     1     -44.887 -51.715  13.439  1.00  0.00     0.237 C 
HETATM    6  C   UNL     1     -46.411 -51.754  13.638  1.00  0.00     0.044 C 
BRANCH   5   7
HETATM    7  C   UNL     1     -44.499 -52.951  12.594  1.00  0.00     0.183 C 
BRANCH   7   8
HETATM    8  N   UNL     1     -43.085 -53.267  12.558  1.00  0.00    -0.302 N 
HETATM    9  C   UNL     1     -42.386 -53.988  13.487  1.00  0.00     0.111 A 
HETATM   10  C   UNL     1     -41.056 -53.828  13.184  1.00  0.00     0.037 A 
HETATM   11  C   UNL     1     -41.050 -52.995  12.050  1.00  0.00     0.108 A 
HETATM   12  N   UNL     1     -42.281 -52.648  11.664  1.00  0.00    -0.310 N 
ATOM     13  HN  UNL     1     -42.552 -52.056  10.879  1.00  0.00     0.186 HD
ENDBRANCH   7   8
ENDBRANCH   5   7
ENDBRANCH   3   5
ENDBRANCH   1   3
BRANCH   1  14
HETATM   14  C   UNL     1     -42.325 -49.248  12.539  1.00  0.00     0.250 C 
HETATM   15  O   UNL     1     -41.138 -49.474  12.758  1.00  0.00    -0.271 OA
HETATM   16  N   UNL     1     -42.782 -48.639  11.395  1.00  0.00    -0.357 N 
HETATM   17  H   UNL     1     -43.779 -48.445  11.335  1.00  0.00     0.162 HD
BRANCH  16  18
HETATM   18  C   UNL     1     -41.908 -48.164  10.339  1.00  0.00     0.154 C 
BRANCH  18  19
HETATM   19  C   UNL     1     -41.624 -46.665  10.436  1.00  0.00     0.139 C 
HETATM   20  C   UNL     1     -40.285 -46.287  11.059  1.00  0.00     0.035 C 
HETATM   21  C   UNL     1     -40.579 -45.036  11.864  1.00  0.00     0.029 C 
HETATM   22  C   UNL     1     -42.049 -44.758  11.629  1.00  0.00     0.168 C 
HETATM   23  O   UNL     1     -42.621 -46.008  11.240  1.00  0.00    -0.384 OA
ENDBRANCH  18  19
ENDBRANCH  16  18
ENDBRANCH   1  14
TORSDOF 7
ENDMDL
