MODEL 1
REMARK VINA RESULT:      -6.2      0.000      0.000
REMARK  3 active torsions:
REMARK  status: ('A' for Active; 'I' for Inactive)
REMARK    1  A    between atoms: C_2  and  C_3 
REMARK    2  A    between atoms: C_2  and  C_14 
REMARK       I    between atoms: C_3  and  N_5 
REMARK    3  A    between atoms: N_5  and  C_6 
ROOT
HETATM    1  C   UNL     1     -41.998 -51.025  12.610  1.00  0.00     0.226 C 
HETATM    2  O   UNL     1     -41.215 -51.557  13.397  1.00  0.00    -0.273 OA
HETATM    3  N   UNL     1     -43.331 -51.370  12.512  1.00  0.00    -0.352 N 
HETATM    4  H   UNL     1     -43.834 -50.987  11.723  1.00  0.00     0.163 HD
ENDROOT
BRANCH   1   5
HETATM    5  C   UNL     1     -41.547 -49.850  11.727  1.00  0.00     0.110 C 
HETATM    6  C   UNL     1     -40.028 -49.847  11.607  1.00  0.00     0.025 C 
BRANCH   5   7
HETATM    7  C   UNL     1     -42.162 -48.542  12.169  1.00  0.00     0.002 A 
HETATM    8  C   UNL     1     -42.848 -47.624  11.318  1.00  0.00     0.031 A 
HETATM    9  C   UNL     1     -43.088 -47.698   9.853  1.00  0.00     0.070 C 
HETATM   10  N   UNL     1     -43.340 -46.588  11.999  1.00  0.00    -0.303 N 
HETATM   11  N   UNL     1     -42.988 -46.820  13.270  1.00  0.00    -0.300 N 
ATOM     12  HN  UNL     1     -43.868 -45.796  11.633  1.00  0.00     0.186 HD
HETATM   13  C   UNL     1     -43.443 -45.906  14.293  1.00  0.00     0.177 C 
HETATM   14  C   UNL     1     -42.264 -47.974  13.438  1.00  0.00     0.033 A 
HETATM   15  C   UNL     1     -41.769 -48.432  14.765  1.00  0.00     0.070 C 
ENDBRANCH   5   7
ENDBRANCH   1   5
BRANCH   3  16
HETATM   16  C   UNL     1     -43.995 -52.468  13.238  1.00  0.00     0.029 C 
HETATM   17  C   UNL     1     -43.227 -53.788  13.032  1.00  0.00     0.038 C 
HETATM   18  C   UNL     1     -45.415 -52.661  12.637  1.00  0.00     0.031 C 
HETATM   19  C   UNL     1     -46.400 -51.550  13.004  1.00  0.00     0.007 C 
HETATM   20  C   UNL     1     -46.477 -51.301  14.513  1.00  0.00    -0.019 C 
HETATM   21  C   UNL     1     -47.160 -52.460  15.247  1.00  0.00     0.010 C 
HETATM   22  C   UNL     1     -45.074 -51.026  15.066  1.00  0.00     0.007 C 
HETATM   23  C   UNL     1     -44.087 -52.151  14.749  1.00  0.00     0.031 C 
ENDBRANCH   3  16
TORSDOF 3
ENDMDL
MODEL 2
REMARK VINA RESULT:      -5.8      2.349      3.466
REMARK  3 active torsions:
REMARK  status: ('A' for Active; 'I' for Inactive)
REMARK    1  A    between atoms: C_2  and  C_3 
REMARK    2  A    between atoms: C_2  and  C_14 
REMARK       I    between atoms: C_3  and  N_5 
REMARK    3  A    between atoms: N_5  and  C_6 
ROOT
HETATM    1  C   UNL     1     -39.990 -52.309  14.003  1.00  0.00     0.226 C 
HETATM    2  O   UNL     1     -39.422 -53.166  13.326  1.00  0.00    -0.273 OA
HETATM    3  N   UNL     1     -41.092 -52.570  14.793  1.00  0.00    -0.352 N 
HETATM    4  H   UNL     1     -41.571 -51.763  15.171  1.00  0.00     0.163 HD
ENDROOT
BRANCH   1   5
HETATM    5  C   UNL     1     -39.435 -50.878  14.084  1.00  0.00     0.110 C 
HETATM    6  C   UNL     1     -39.690 -50.302  15.471  1.00  0.00     0.025 C 
BRANCH   5   7
HETATM    7  C   UNL     1     -39.912 -50.021  12.933  1.00  0.00     0.002 A 
HETATM    8  C   UNL     1     -39.099 -49.572  11.848  1.00  0.00     0.031 A 
HETATM    9  C   UNL     1     -37.649 -49.788  11.606  1.00  0.00     0.070 C 
HETATM   10  N   UNL     1     -39.807 -48.888  10.948  1.00  0.00    -0.303 N 
HETATM   11  N   UNL     1     -41.057 -48.889  11.428  1.00  0.00    -0.300 N 
ATOM     12  HN  UNL     1     -39.470 -48.460  10.086  1.00  0.00     0.186 HD
HETATM   13  C   UNL     1     -42.104 -48.285  10.635  1.00  0.00     0.177 C 
HETATM   14  C   UNL     1     -41.185 -49.543  12.628  1.00  0.00     0.033 A 
HETATM   15  C   UNL     1     -42.484 -49.672  13.345  1.00  0.00     0.070 C 
ENDBRANCH   5   7
ENDBRANCH   1   5
BRANCH   3  16
HETATM   16  C   UNL     1     -41.813 -53.853  14.874  1.00  0.00     0.029 C 
HETATM   17  C   UNL     1     -40.910 -54.937  15.493  1.00  0.00     0.038 C 
HETATM   18  C   UNL     1     -42.158 -54.309  13.430  1.00  0.00     0.031 C 
HETATM   19  C   UNL     1     -43.271 -53.492  12.771  1.00  0.00     0.007 C 
HETATM   20  C   UNL     1     -44.534 -53.409  13.633  1.00  0.00    -0.019 C 
HETATM   21  C   UNL     1     -45.260 -54.756  13.711  1.00  0.00     0.010 C 
HETATM   22  C   UNL     1     -44.179 -52.872  15.023  1.00  0.00     0.007 C 
HETATM   23  C   UNL     1     -43.101 -53.707  15.717  1.00  0.00     0.031 C 
ENDBRANCH   3  16
TORSDOF 3
ENDMDL
MODEL 3
REMARK VINA RESULT:      -5.8      2.804      3.818
REMARK  3 active torsions:
REMARK  status: ('A' for Active; 'I' for Inactive)
REMARK    1  A    between atoms: C_2  and  C_3 
REMARK    2  A    between atoms: C_2  and  C_14 
REMARK       I    between atoms: C_3  and  N_5 
REMARK    3  A    between atoms: N_5  and  C_6 
ROOT
HETATM    1  C   UNL     1     -38.761 -51.099  12.817  1.00  0.00     0.226 C 
HETATM    2  O   UNL     1     -37.759 -51.777  13.045  1.00  0.00    -0.273 OA
HETATM    3  N   UNL     1     -39.939 -51.219  13.527  1.00  0.00    -0.352 N 
HETATM    4  H   UNL     1     -40.740 -50.733  13.146  1.00  0.00     0.163 HD
ENDROOT
BRANCH   1   5
HETATM    5  C   UNL     1     -38.731 -49.985  11.758  1.00  0.00     0.110 C 
HETATM    6  C   UNL     1     -37.365 -49.950  11.084  1.00  0.00     0.025 C 
BRANCH   5   7
HETATM    7  C   UNL     1     -39.209 -48.663  12.315  1.00  0.00     0.002 A 
HETATM    8  C   UNL     1     -40.378 -47.963  11.887  1.00  0.00     0.031 A 
HETATM    9  C   UNL     1     -41.349 -48.317  10.819  1.00  0.00     0.070 C 
HETATM   10  N   UNL     1     -40.584 -46.857  12.604  1.00  0.00    -0.303 N 
HETATM   11  N   UNL     1     -39.576 -46.830  13.484  1.00  0.00    -0.300 N 
ATOM     12  HN  UNL     1     -41.342 -46.182  12.503  1.00  0.00     0.186 HD
HETATM   13  C   UNL     1     -39.549 -45.780  14.476  1.00  0.00     0.177 C 
HETATM   14  C   UNL     1     -38.704 -47.883  13.353  1.00  0.00     0.033 A 
HETATM   15  C   UNL     1     -37.512 -48.059  14.228  1.00  0.00     0.070 C 
ENDBRANCH   5   7
ENDBRANCH   1   5
BRANCH   3  16
HETATM   16  C   UNL     1     -40.219 -52.217  14.575  1.00  0.00     0.029 C 
HETATM   17  C   UNL     1     -39.198 -52.091  15.721  1.00  0.00     0.038 C 
HETATM   18  C   UNL     1     -40.048 -53.632  13.957  1.00  0.00     0.031 C 
HETATM   19  C   UNL     1     -41.168 -54.028  12.993  1.00  0.00     0.007 C 
HETATM   20  C   UNL     1     -42.562 -53.868  13.608  1.00  0.00    -0.019 C 
HETATM   21  C   UNL     1     -42.825 -54.909  14.701  1.00  0.00     0.010 C 
HETATM   22  C   UNL     1     -42.737 -52.437  14.130  1.00  0.00     0.007 C 
HETATM   23  C   UNL     1     -41.651 -52.041  15.132  1.00  0.00     0.031 C 
ENDBRANCH   3  16
TORSDOF 3
ENDMDL
MODEL 4
REMARK VINA RESULT:      -5.6      3.008      4.304
REMARK  3 active torsions:
REMARK  status: ('A' for Active; 'I' for Inactive)
REMARK    1  A    between atoms: C_2  and  C_3 
REMARK    2  A    between atoms: C_2  and  C_14 
REMARK       I    between atoms: C_3  and  N_5 
REMARK    3  A    between atoms: N_5  and  C_6 
ROOT
HETATM    1  C   UNL     1     -42.321 -53.533  15.711  1.00  0.00     0.226 C 
HETATM    2  O   UNL     1     -41.780 -52.907  16.623  1.00  0.00    -0.273 OA
HETATM    3  N   UNL     1     -43.679 -53.772  15.652  1.00  0.00    -0.352 N 
HETATM    4  H   UNL     1     -43.986 -54.434  14.951  1.00  0.00     0.163 HD
ENDROOT
BRANCH   1   5
HETATM    5  C   UNL     1     -41.505 -54.021  14.503  1.00  0.00     0.110 C 
HETATM    6  C   UNL     1     -40.199 -54.644  14.978  1.00  0.00     0.025 C 
BRANCH   5   7
HETATM    7  C   UNL     1     -41.361 -52.948  13.447  1.00  0.00     0.002 A 
HETATM    8  C   UNL     1     -42.362 -52.590  12.493  1.00  0.00     0.031 A 
HETATM    9  C   UNL     1     -43.713 -53.174  12.283  1.00  0.00     0.070 C 
HETATM   10  N   UNL     1     -41.977 -51.566  11.731  1.00  0.00    -0.303 N 
HETATM   11  N   UNL     1     -40.752 -51.255  12.174  1.00  0.00    -0.300 N 
ATOM     12  HN  UNL     1     -42.500 -51.119  10.978  1.00  0.00     0.186 HD
HETATM   13  C   UNL     1     -40.076 -50.115  11.598  1.00  0.00     0.177 C 
HETATM   14  C   UNL     1     -40.317 -52.060  13.197  1.00  0.00     0.033 A 
HETATM   15  C   UNL     1     -38.987 -51.894  13.846  1.00  0.00     0.070 C 
ENDBRANCH   5   7
ENDBRANCH   1   5
BRANCH   3  16
HETATM   16  C   UNL     1     -44.665 -53.419  16.690  1.00  0.00     0.029 C 
HETATM   17  C   UNL     1     -44.342 -54.153  18.006  1.00  0.00     0.038 C 
HETATM   18  C   UNL     1     -46.063 -53.907  16.220  1.00  0.00     0.031 C 
HETATM   19  C   UNL     1     -46.660 -53.077  15.083  1.00  0.00     0.007 C 
HETATM   20  C   UNL     1     -46.682 -51.576  15.394  1.00  0.00    -0.019 C 
HETATM   21  C   UNL     1     -47.705 -51.236  16.483  1.00  0.00     0.010 C 
HETATM   22  C   UNL     1     -45.273 -51.103  15.768  1.00  0.00     0.007 C 
HETATM   23  C   UNL     1     -44.680 -51.893  16.936  1.00  0.00     0.031 C 
ENDBRANCH   3  16
TORSDOF 3
ENDMDL
MODEL 5
REMARK VINA RESULT:      -5.4      3.315      4.489
REMARK  3 active torsions:
REMARK  status: ('A' for Active; 'I' for Inactive)
REMARK    1  A    between atoms: C_2  and  C_3 
REMARK    2  A    between atoms: C_2  and  C_14 
REMARK       I    between atoms: C_3  and  N_5 
REMARK    3  A    between atoms: N_5  and  C_6 
ROOT
HETATM    1  C   UNL     1     -38.428 -51.089  15.137  1.00  0.00     0.226 C 
HETATM    2  O   UNL     1     -38.682 -50.929  16.330  1.00  0.00    -0.273 OA
HETATM    3  N   UNL     1     -38.914 -52.144  14.389  1.00  0.00    -0.352 N 
HETATM    4  H   UNL     1     -38.508 -52.263  13.471  1.00  0.00     0.163 HD
ENDROOT
BRANCH   1   5
HETATM    5  C   UNL     1     -37.607 -50.045  14.362  1.00  0.00     0.110 C 
HETATM    6  C   UNL     1     -36.831 -49.170  15.338  1.00  0.00     0.025 C 
BRANCH   5   7
HETATM    7  C   UNL     1     -38.450 -49.297  13.354  1.00  0.00     0.002 A 
HETATM    8  C   UNL     1     -38.288 -49.357  11.937  1.00  0.00     0.031 A 
HETATM    9  C   UNL     1     -37.281 -50.101  11.136  1.00  0.00     0.070 C 
HETATM   10  N   UNL     1     -39.218 -48.643  11.300  1.00  0.00    -0.303 N 
HETATM   11  N   UNL     1     -39.976 -48.127  12.276  1.00  0.00    -0.300 N 
ATOM     12  HN  UNL     1     -39.327 -48.519  10.294  1.00  0.00     0.186 HD
HETATM   13  C   UNL     1     -41.140 -47.351  11.912  1.00  0.00     0.177 C 
HETATM   14  C   UNL     1     -39.558 -48.471  13.537  1.00  0.00     0.033 A 
HETATM   15  C   UNL     1     -40.253 -48.014  14.772  1.00  0.00     0.070 C 
ENDBRANCH   5   7
ENDBRANCH   1   5
BRANCH   3  16
HETATM   16  C   UNL     1     -39.706 -53.275  14.905  1.00  0.00     0.029 C 
HETATM   17  C   UNL     1     -38.890 -54.075  15.937  1.00  0.00     0.038 C 
HETATM   18  C   UNL     1     -40.016 -54.231  13.720  1.00  0.00     0.031 C 
HETATM   19  C   UNL     1     -41.055 -53.686  12.738  1.00  0.00     0.007 C 
HETATM   20  C   UNL     1     -42.346 -53.238  13.430  1.00  0.00    -0.019 C 
HETATM   21  C   UNL     1     -43.147 -54.430  13.966  1.00  0.00     0.010 C 
HETATM   22  C   UNL     1     -42.020 -52.228  14.535  1.00  0.00     0.007 C 
HETATM   23  C   UNL     1     -41.018 -52.776  15.554  1.00  0.00     0.031 C 
ENDBRANCH   3  16
TORSDOF 3
ENDMDL
MODEL 6
REMARK VINA RESULT:      -5.4      1.995      2.656
REMARK  3 active torsions:
REMARK  status: ('A' for Active; 'I' for Inactive)
REMARK    1  A    between atoms: C_2  and  C_3 
REMARK    2  A    between atoms: C_2  and  C_14 
REMARK       I    between atoms: C_3  and  N_5 
REMARK    3  A    between atoms: N_5  and  C_6 
ROOT
HETATM    1  C   UNL     1     -42.623 -49.741  12.593  1.00  0.00     0.226 C 
HETATM    2  O   UNL     1     -43.256 -48.752  12.963  1.00  0.00    -0.273 OA
HETATM    3  N   UNL     1     -42.861 -51.017  13.064  1.00  0.00    -0.352 N 
HETATM    4  H   UNL     1     -42.175 -51.718  12.816  1.00  0.00     0.163 HD
ENDROOT
BRANCH   1   5
HETATM    5  C   UNL     1     -41.562 -49.625  11.487  1.00  0.00     0.110 C 
HETATM    6  C   UNL     1     -40.380 -50.531  11.808  1.00  0.00     0.025 C 
BRANCH   5   7
HETATM    7  C   UNL     1     -41.209 -48.185  11.190  1.00  0.00     0.002 A 
HETATM    8  C   UNL     1     -41.848 -47.364  10.213  1.00  0.00     0.031 A 
HETATM    9  C   UNL     1     -42.939 -47.708   9.263  1.00  0.00     0.070 C 
HETATM   10  N   UNL     1     -41.369 -46.120  10.220  1.00  0.00    -0.303 N 
HETATM   11  N   UNL     1     -40.438 -46.120  11.182  1.00  0.00    -0.300 N 
ATOM     12  HN  UNL     1     -41.651 -45.340   9.625  1.00  0.00     0.186 HD
HETATM   13  C   UNL     1     -39.771 -44.878  11.502  1.00  0.00     0.177 C 
HETATM   14  C   UNL     1     -40.282 -47.339  11.795  1.00  0.00     0.033 A 
HETATM   15  C   UNL     1     -39.306 -47.571  12.895  1.00  0.00     0.070 C 
ENDBRANCH   5   7
ENDBRANCH   1   5
BRANCH   3  16
HETATM   16  C   UNL     1     -43.811 -51.382  14.130  1.00  0.00     0.029 C 
HETATM   17  C   UNL     1     -43.755 -50.351  15.273  1.00  0.00     0.038 C 
HETATM   18  C   UNL     1     -43.377 -52.751  14.721  1.00  0.00     0.031 C 
HETATM   19  C   UNL     1     -43.645 -53.939  13.795  1.00  0.00     0.007 C 
HETATM   20  C   UNL     1     -45.095 -53.992  13.304  1.00  0.00    -0.019 C 
HETATM   21  C   UNL     1     -46.065 -54.362  14.432  1.00  0.00     0.010 C 
HETATM   22  C   UNL     1     -45.468 -52.660  12.646  1.00  0.00     0.007 C 
HETATM   23  C   UNL     1     -45.252 -51.464  13.576  1.00  0.00     0.031 C 
ENDBRANCH   3  16
TORSDOF 3
ENDMDL
MODEL 7
REMARK VINA RESULT:      -5.3      2.818      4.112
REMARK  3 active torsions:
REMARK  status: ('A' for Active; 'I' for Inactive)
REMARK    1  A    between atoms: C_2  and  C_3 
REMARK    2  A    between atoms: C_2  and  C_14 
REMARK       I    between atoms: C_3  and  N_5 
REMARK    3  A    between atoms: N_5  and  C_6 
ROOT
HETATM    1  C   UNL     1     -41.744 -54.008  14.273  1.00  0.00     0.226 C 
HETATM    2  O   UNL     1     -41.745 -54.699  15.291  1.00  0.00    -0.273 OA
HETATM    3  N   UNL     1     -42.890 -53.492  13.700  1.00  0.00    -0.352 N 
HETATM    4  H   UNL     1     -42.784 -53.083  12.781  1.00  0.00     0.163 HD
ENDROOT
BRANCH   1   5
HETATM    5  C   UNL     1     -40.421 -53.589  13.610  1.00  0.00     0.110 C 
HETATM    6  C   UNL     1     -39.340 -54.616  13.920  1.00  0.00     0.025 C 
BRANCH   5   7
HETATM    7  C   UNL     1     -40.060 -52.155  13.926  1.00  0.00     0.002 A 
HETATM    8  C   UNL     1     -39.448 -51.707  15.136  1.00  0.00     0.031 A 
HETATM    9  C   UNL     1     -39.064 -52.486  16.341  1.00  0.00     0.070 C 
HETATM   10  N   UNL     1     -39.188 -50.399  15.105  1.00  0.00    -0.303 N 
HETATM   11  N   UNL     1     -39.616 -49.996  13.902  1.00  0.00    -0.300 N 
ATOM     12  HN  UNL     1     -38.757 -49.832  15.836  1.00  0.00     0.186 HD
HETATM   13  C   UNL     1     -39.406 -48.619  13.517  1.00  0.00     0.177 C 
HETATM   14  C   UNL     1     -40.166 -51.003  13.149  1.00  0.00     0.033 A 
HETATM   15  C   UNL     1     -40.705 -50.786  11.778  1.00  0.00     0.070 C 
ENDBRANCH   5   7
ENDBRANCH   1   5
BRANCH   3  16
HETATM   16  C   UNL     1     -44.271 -53.761  14.140  1.00  0.00     0.029 C 
HETATM   17  C   UNL     1     -44.564 -55.273  14.090  1.00  0.00     0.038 C 
HETATM   18  C   UNL     1     -45.242 -53.070  13.143  1.00  0.00     0.031 C 
HETATM   19  C   UNL     1     -45.281 -51.546  13.272  1.00  0.00     0.007 C 
HETATM   20  C   UNL     1     -45.549 -51.080  14.706  1.00  0.00    -0.019 C 
HETATM   21  C   UNL     1     -46.987 -51.380  15.144  1.00  0.00     0.010 C 
HETATM   22  C   UNL     1     -44.522 -51.706  15.655  1.00  0.00     0.007 C 
HETATM   23  C   UNL     1     -44.503 -53.234  15.575  1.00  0.00     0.031 C 
ENDBRANCH   3  16
TORSDOF 3
ENDMDL
MODEL 8
REMARK VINA RESULT:      -5.3      3.416      6.839
REMARK  3 active torsions:
REMARK  status: ('A' for Active; 'I' for Inactive)
REMARK    1  A    between atoms: C_2  and  C_3 
REMARK    2  A    between atoms: C_2  and  C_14 
REMARK       I    between atoms: C_3  and  N_5 
REMARK    3  A    between atoms: N_5  and  C_6 
ROOT
HETATM    1  C   UNL     1     -39.722 -52.569  15.191  1.00  0.00     0.226 C 
HETATM    2  O   UNL     1     -40.083 -52.031  16.238  1.00  0.00    -0.273 OA
HETATM    3  N   UNL     1     -38.925 -51.948  14.251  1.00  0.00    -0.352 N 
HETATM    4  H   UNL     1     -38.832 -52.422  13.362  1.00  0.00     0.163 HD
ENDROOT
BRANCH   1   5
HETATM    5  C   UNL     1     -40.073 -54.038  14.903  1.00  0.00     0.110 C 
HETATM    6  C   UNL     1     -39.039 -54.641  13.960  1.00  0.00     0.025 C 
BRANCH   5   7
HETATM    7  C   UNL     1     -41.512 -54.202  14.471  1.00  0.00     0.002 A 
HETATM    8  C   UNL     1     -42.503 -54.953  15.173  1.00  0.00     0.031 A 
HETATM    9  C   UNL     1     -42.371 -55.752  16.419  1.00  0.00     0.070 C 
HETATM   10  N   UNL     1     -43.699 -54.863  14.589  1.00  0.00    -0.303 N 
HETATM   11  N   UNL     1     -43.501 -54.070  13.529  1.00  0.00    -0.300 N 
ATOM     12  HN  UNL     1     -44.571 -55.302  14.885  1.00  0.00     0.186 HD
HETATM   13  C   UNL     1     -44.637 -53.705  12.714  1.00  0.00     0.177 C 
HETATM   14  C   UNL     1     -42.201 -53.649  13.393  1.00  0.00     0.033 A 
HETATM   15  C   UNL     1     -41.751 -52.758  12.289  1.00  0.00     0.070 C 
ENDBRANCH   5   7
ENDBRANCH   1   5
BRANCH   3  16
HETATM   16  C   UNL     1     -38.472 -50.546  14.292  1.00  0.00     0.029 C 
HETATM   17  C   UNL     1     -37.476 -50.339  15.449  1.00  0.00     0.038 C 
HETATM   18  C   UNL     1     -39.705 -49.645  14.577  1.00  0.00     0.031 C 
HETATM   19  C   UNL     1     -40.665 -49.514  13.393  1.00  0.00     0.007 C 
HETATM   20  C   UNL     1     -39.959 -49.080  12.105  1.00  0.00    -0.019 C 
HETATM   21  C   UNL     1     -39.488 -47.623  12.176  1.00  0.00     0.010 C 
HETATM   22  C   UNL     1     -38.803 -50.038  11.799  1.00  0.00     0.007 C 
HETATM   23  C   UNL     1     -37.807 -50.144  12.956  1.00  0.00     0.031 C 
ENDBRANCH   3  16
TORSDOF 3
ENDMDL
MODEL 9
REMARK VINA RESULT:      -5.2      4.258      7.109
REMARK  3 active torsions:
REMARK  status: ('A' for Active; 'I' for Inactive)
REMARK    1  A    between atoms: C_2  and  C_3 
REMARK    2  A    between atoms: C_2  and  C_14 
REMARK       I    between atoms: C_3  and  N_5 
REMARK    3  A    between atoms: N_5  and  C_6 
ROOT
HETATM    1  C   UNL     1     -39.227 -48.649  12.155  1.00  0.00     0.226 C 
HETATM    2  O   UNL     1     -40.011 -49.260  11.429  1.00  0.00    -0.273 OA
HETATM    3  N   UNL     1     -39.519 -47.432  12.739  1.00  0.00    -0.352 N 
HETATM    4  H   UNL     1     -38.745 -46.949  13.175  1.00  0.00     0.163 HD
ENDROOT
BRANCH   1   5
HETATM    5  C   UNL     1     -37.871 -49.264  12.540  1.00  0.00     0.110 C 
HETATM    6  C   UNL     1     -37.410 -50.222  11.448  1.00  0.00     0.025 C 
BRANCH   5   7
HETATM    7  C   UNL     1     -37.888 -49.838  13.938  1.00  0.00     0.002 A 
HETATM    8  C   UNL     1     -37.368 -49.193  15.101  1.00  0.00     0.031 A 
HETATM    9  C   UNL     1     -36.683 -47.879  15.221  1.00  0.00     0.070 C 
HETATM   10  N   UNL     1     -37.581 -49.912  16.204  1.00  0.00    -0.303 N 
HETATM   11  N   UNL     1     -38.228 -51.004  15.778  1.00  0.00    -0.300 N 
ATOM     12  HN  UNL     1     -37.311 -49.680  17.160  1.00  0.00     0.186 HD
HETATM   13  C   UNL     1     -38.681 -51.967  16.756  1.00  0.00     0.177 C 
HETATM   14  C   UNL     1     -38.431 -51.028  14.420  1.00  0.00     0.033 A 
HETATM   15  C   UNL     1     -39.132 -52.143  13.727  1.00  0.00     0.070 C 
ENDBRANCH   5   7
ENDBRANCH   1   5
BRANCH   3  16
HETATM   16  C   UNL     1     -40.740 -46.637  12.514  1.00  0.00     0.029 C 
HETATM   17  C   UNL     1     -41.991 -47.465  12.869  1.00  0.00     0.038 C 
HETATM   18  C   UNL     1     -40.827 -46.295  11.001  1.00  0.00     0.031 C 
HETATM   19  C   UNL     1     -39.814 -45.244  10.544  1.00  0.00     0.007 C 
HETATM   20  C   UNL     1     -39.857 -43.971  11.395  1.00  0.00    -0.019 C 
HETATM   21  C   UNL     1     -41.140 -43.167  11.152  1.00  0.00     0.010 C 
HETATM   22  C   UNL     1     -39.680 -44.329  12.874  1.00  0.00     0.007 C 
HETATM   23  C   UNL     1     -40.717 -45.343  13.361  1.00  0.00     0.031 C 
ENDBRANCH   3  16
TORSDOF 3
ENDMDL
