MODEL 1
REMARK VINA RESULT:      -7.3      0.000      0.000
REMARK  5 active torsions:
REMARK  status: ('A' for Active; 'I' for Inactive)
REMARK    1  A    between atoms: N_3  and  C_7 
REMARK    2  A    between atoms: N_4  and  C_18 
REMARK    3  A    between atoms: C_18  and  C_22 
REMARK    4  A    between atoms: C_22  and  C_25 
REMARK    5  A    between atoms: C_22  and  O_27 
ROOT
HETATM    1  C   UNL     1     -42.355 -48.470  12.318  1.00  0.00     0.122 A 
HETATM    2  N   UNL     1     -42.391 -47.105  10.611  1.00  0.00    -0.325 N 
HETATM    3  C   UNL     1     -42.666 -47.169  11.949  1.00  0.00     0.140 A 
HETATM    4  C   UNL     1     -42.505 -48.809  13.685  1.00  0.00     0.135 A 
HETATM    5  N   UNL     1     -41.944 -49.199  11.212  1.00  0.00    -0.346 N 
ATOM      6  HN  UNL     1     -41.679 -50.183  11.180  1.00  0.00     0.167 HD
HETATM    7  C   UNL     1     -41.971 -48.345  10.213  1.00  0.00     0.185 A 
HETATM    8  N   UNL     1     -43.118 -46.181  12.737  1.00  0.00    -0.336 N 
ATOM      9  HN  UNL     1     -43.351 -45.241  12.415  1.00  0.00     0.168 HD
HETATM   10  N   UNL     1     -42.945 -47.820  14.517  1.00  0.00    -0.337 N 
ATOM     11  HN  UNL     1     -43.066 -48.001  15.514  1.00  0.00     0.168 HD
HETATM   12  C   UNL     1     -43.220 -46.600  14.009  1.00  0.00     0.183 A 
ENDROOT
BRANCH   4  13
HETATM   13  N   UNL     1     -42.232 -50.050  14.214  1.00  0.00    -0.364 N 
HETATM   14  C   UNL     1     -43.124 -51.181  13.985  1.00  0.00     0.145 C 
HETATM   15  C   UNL     1     -42.371 -52.348  14.606  1.00  0.00     0.132 C 
HETATM   16  S   UNL     1     -42.543 -53.866  13.715  1.00  0.00     0.150 S 
HETATM   17  C   UNL     1     -40.896 -51.955  14.474  1.00  0.00     0.025 C 
HETATM   18  C   UNL     1     -41.024 -53.745  12.782  1.00  0.00     0.141 C 
HETATM   19  O   UNL     1     -43.669 -53.789  12.809  1.00  0.00    -0.227 OA
HETATM   20  O   UNL     1     -42.404 -54.958  14.659  1.00  0.00    -0.227 OA
HETATM   21  C   UNL     1     -40.457 -52.358  13.056  1.00  0.00     0.022 C 
HETATM   22  C   UNL     1     -40.909 -50.441  14.677  1.00  0.00     0.130 C 
ENDBRANCH   4  13
BRANCH   2  23
HETATM   23  C   UNL     1     -42.492 -45.941   9.766  1.00  0.00     0.165 C 
BRANCH  23  24
HETATM   24  C   UNL     1     -43.764 -45.839   8.905  1.00  0.00     0.165 C 
BRANCH  24  25
HETATM   25  C   UNL     1     -44.766 -46.978   9.159  1.00  0.00     0.151 C 
HETATM   26  O   UNL     1     -44.704 -47.996   8.154  1.00  0.00    -0.383 OA
HETATM   27  C   UNL     1     -46.012 -48.557   7.982  1.00  0.00     0.168 C 
HETATM   28  C   UNL     1     -46.931 -47.846   8.954  1.00  0.00     0.029 C 
HETATM   29  C   UNL     1     -46.220 -46.534   9.185  1.00  0.00     0.036 C 
ENDBRANCH  24  25
BRANCH  24  30
HETATM   30  O   UNL     1     -44.398 -44.576   9.176  1.00  0.00    -0.391 OA
HETATM   31  H   UNL     1     -43.963 -44.167   9.943  1.00  0.00     0.210 HD
ENDBRANCH  24  30
ENDBRANCH  23  24
ENDBRANCH   2  23
TORSDOF 5
ENDMDL
MODEL 2
REMARK VINA RESULT:      -7.1      1.846      2.632
REMARK  5 active torsions:
REMARK  status: ('A' for Active; 'I' for Inactive)
REMARK    1  A    between atoms: N_3  and  C_7 
REMARK    2  A    between atoms: N_4  and  C_18 
REMARK    3  A    between atoms: C_18  and  C_22 
REMARK    4  A    between atoms: C_22  and  C_25 
REMARK    5  A    between atoms: C_22  and  O_27 
ROOT
HETATM    1  C   UNL     1     -41.991 -49.655  12.048  1.00  0.00     0.122 A 
HETATM    2  N   UNL     1     -42.403 -47.701  11.158  1.00  0.00    -0.325 N 
HETATM    3  C   UNL     1     -41.403 -48.616  11.339  1.00  0.00     0.140 A 
HETATM    4  C   UNL     1     -41.181 -50.779  12.339  1.00  0.00     0.135 A 
HETATM    5  N   UNL     1     -43.313 -49.352  12.337  1.00  0.00    -0.346 N 
ATOM      6  HN  UNL     1     -43.977 -49.917  12.866  1.00  0.00     0.167 HD
HETATM    7  C   UNL     1     -43.524 -48.180  11.781  1.00  0.00     0.185 A 
HETATM    8  N   UNL     1     -40.136 -48.536  10.904  1.00  0.00    -0.336 N 
ATOM      9  HN  UNL     1     -39.744 -47.741  10.400  1.00  0.00     0.168 HD
HETATM   10  N   UNL     1     -39.891 -50.738  11.894  1.00  0.00    -0.337 N 
ATOM     11  HN  UNL     1     -39.261 -51.521  12.066  1.00  0.00     0.168 HD
HETATM   12  C   UNL     1     -39.456 -49.649  11.224  1.00  0.00     0.183 A 
ENDROOT
BRANCH   4  13
HETATM   13  N   UNL     1     -41.611 -51.893  13.024  1.00  0.00    -0.364 N 
HETATM   14  C   UNL     1     -42.449 -51.770  14.213  1.00  0.00     0.145 C 
HETATM   15  C   UNL     1     -42.801 -53.214  14.538  1.00  0.00     0.132 C 
HETATM   16  S   UNL     1     -44.448 -53.429  15.146  1.00  0.00     0.150 S 
HETATM   17  C   UNL     1     -42.763 -53.925  13.182  1.00  0.00     0.025 C 
HETATM   18  C   UNL     1     -45.195 -53.892  13.591  1.00  0.00     0.141 C 
HETATM   19  O   UNL     1     -44.991 -52.160  15.580  1.00  0.00    -0.227 OA
HETATM   20  O   UNL     1     -44.458 -54.593  16.012  1.00  0.00    -0.227 OA
HETATM   21  C   UNL     1     -44.131 -53.685  12.521  1.00  0.00     0.022 C 
HETATM   22  C   UNL     1     -41.624 -53.226  12.443  1.00  0.00     0.130 C 
ENDBRANCH   4  13
BRANCH   2  23
HETATM   23  C   UNL     1     -42.315 -46.463  10.423  1.00  0.00     0.165 C 
BRANCH  23  24
HETATM   24  C   UNL     1     -43.220 -46.347   9.184  1.00  0.00     0.165 C 
BRANCH  24  25
HETATM   25  C   UNL     1     -44.239 -47.492   9.063  1.00  0.00     0.151 C 
HETATM   26  O   UNL     1     -44.207 -48.119   7.776  1.00  0.00    -0.383 OA
HETATM   27  C   UNL     1     -45.527 -48.575   7.450  1.00  0.00     0.168 C 
HETATM   28  C   UNL     1     -46.422 -48.215   8.618  1.00  0.00     0.029 C 
HETATM   29  C   UNL     1     -45.685 -47.063   9.259  1.00  0.00     0.036 C 
ENDBRANCH  24  25
BRANCH  24  30
HETATM   30  O   UNL     1     -43.919 -45.091   9.246  1.00  0.00    -0.391 OA
HETATM   31  H   UNL     1     -43.272 -44.381   9.400  1.00  0.00     0.210 HD
ENDBRANCH  24  30
ENDBRANCH  23  24
ENDBRANCH   2  23
TORSDOF 5
ENDMDL
MODEL 3
REMARK VINA RESULT:      -7.0      3.652      5.791
REMARK  5 active torsions:
REMARK  status: ('A' for Active; 'I' for Inactive)
REMARK    1  A    between atoms: N_3  and  C_7 
REMARK    2  A    between atoms: N_4  and  C_18 
REMARK    3  A    between atoms: C_18  and  C_22 
REMARK    4  A    between atoms: C_22  and  C_25 
REMARK    5  A    between atoms: C_22  and  O_27 
ROOT
HETATM    1  C   UNL     1     -42.898 -51.197  12.942  1.00  0.00     0.122 A 
HETATM    2  N   UNL     1     -41.951 -49.576  11.822  1.00  0.00    -0.325 N 
HETATM    3  C   UNL     1     -41.862 -50.919  12.060  1.00  0.00     0.140 A 
HETATM    4  C   UNL     1     -43.073 -52.547  13.332  1.00  0.00     0.135 A 
HETATM    5  N   UNL     1     -43.573 -50.032  13.273  1.00  0.00    -0.346 N 
ATOM      6  HN  UNL     1     -44.358 -49.931  13.917  1.00  0.00     0.167 HD
HETATM    7  C   UNL     1     -42.983 -49.086  12.576  1.00  0.00     0.185 A 
HETATM    8  N   UNL     1     -40.980 -51.784  11.537  1.00  0.00    -0.336 N 
ATOM      9  HN  UNL     1     -40.221 -51.529  10.904  1.00  0.00     0.168 HD
HETATM   10  N   UNL     1     -42.201 -53.456  12.802  1.00  0.00    -0.337 N 
ATOM     11  HN  UNL     1     -42.282 -54.445  13.038  1.00  0.00     0.168 HD
HETATM   12  C   UNL     1     -41.233 -53.033  11.962  1.00  0.00     0.183 A 
ENDROOT
BRANCH   4  13
HETATM   13  N   UNL     1     -44.053 -52.990  14.190  1.00  0.00    -0.364 N 
HETATM   14  C   UNL     1     -43.962 -52.754  15.627  1.00  0.00     0.145 C 
HETATM   15  C   UNL     1     -45.298 -53.262  16.147  1.00  0.00     0.132 C 
HETATM   16  S   UNL     1     -45.961 -52.301  17.475  1.00  0.00     0.150 S 
HETATM   17  C   UNL     1     -46.259 -53.063  14.971  1.00  0.00     0.025 C 
HETATM   18  C   UNL     1     -47.049 -51.286  16.488  1.00  0.00     0.141 C 
HETATM   19  O   UNL     1     -44.927 -51.471  18.057  1.00  0.00    -0.227 OA
HETATM   20  O   UNL     1     -46.781 -53.174  18.294  1.00  0.00    -0.227 OA
HETATM   21  C   UNL     1     -46.733 -51.601  15.032  1.00  0.00     0.022 C 
HETATM   22  C   UNL     1     -45.392 -53.349  13.747  1.00  0.00     0.130 C 
ENDBRANCH   4  13
BRANCH   2  23
HETATM   23  C   UNL     1     -41.131 -48.806  10.920  1.00  0.00     0.165 C 
BRANCH  23  24
HETATM   24  C   UNL     1     -40.164 -47.802  11.574  1.00  0.00     0.165 C 
BRANCH  24  25
HETATM   25  C   UNL     1     -38.872 -48.452  12.095  1.00  0.00     0.151 C 
HETATM   26  O   UNL     1     -38.560 -49.673  11.415  1.00  0.00    -0.383 OA
HETATM   27  C   UNL     1     -37.899 -50.558  12.331  1.00  0.00     0.168 C 
HETATM   28  C   UNL     1     -37.788 -49.826  13.652  1.00  0.00     0.029 C 
HETATM   29  C   UNL     1     -38.911 -48.820  13.571  1.00  0.00     0.036 C 
ENDBRANCH  24  25
BRANCH  24  30
HETATM   30  O   UNL     1     -39.833 -46.791  10.606  1.00  0.00    -0.391 OA
HETATM   31  H   UNL     1     -39.231 -46.149  11.019  1.00  0.00     0.210 HD
ENDBRANCH  24  30
ENDBRANCH  23  24
ENDBRANCH   2  23
TORSDOF 5
ENDMDL
MODEL 4
REMARK VINA RESULT:      -7.0      2.776      4.403
REMARK  5 active torsions:
REMARK  status: ('A' for Active; 'I' for Inactive)
REMARK    1  A    between atoms: N_3  and  C_7 
REMARK    2  A    between atoms: N_4  and  C_18 
REMARK    3  A    between atoms: C_18  and  C_22 
REMARK    4  A    between atoms: C_22  and  C_25 
REMARK    5  A    between atoms: C_22  and  O_27 
ROOT
HETATM    1  C   UNL     1     -42.123 -50.196  12.305  1.00  0.00     0.122 A 
HETATM    2  N   UNL     1     -41.760 -48.186  11.524  1.00  0.00    -0.325 N 
HETATM    3  C   UNL     1     -41.117 -49.339  11.879  1.00  0.00     0.140 A 
HETATM    4  C   UNL     1     -41.739 -51.501  12.696  1.00  0.00     0.135 A 
HETATM    5  N   UNL     1     -43.352 -49.555  12.257  1.00  0.00    -0.346 N 
ATOM      6  HN  UNL     1     -44.259 -49.931  12.535  1.00  0.00     0.167 HD
HETATM    7  C   UNL     1     -43.095 -48.359  11.777  1.00  0.00     0.185 A 
HETATM    8  N   UNL     1     -39.801 -49.594  11.808  1.00  0.00    -0.336 N 
ATOM      9  HN  UNL     1     -39.095 -48.923  11.504  1.00  0.00     0.168 HD
HETATM   10  N   UNL     1     -40.408 -51.799  12.618  1.00  0.00    -0.337 N 
ATOM     11  HN  UNL     1     -40.071 -52.726  12.878  1.00  0.00     0.168 HD
HETATM   12  C   UNL     1     -39.542 -50.854  12.193  1.00  0.00     0.183 A 
ENDROOT
BRANCH   4  13
HETATM   13  N   UNL     1     -42.611 -52.471  13.134  1.00  0.00    -0.364 N 
HETATM   14  C   UNL     1     -43.085 -52.493  14.514  1.00  0.00     0.145 C 
HETATM   15  C   UNL     1     -44.119 -53.609  14.508  1.00  0.00     0.132 C 
HETATM   16  S   UNL     1     -45.522 -53.289  15.535  1.00  0.00     0.150 S 
HETATM   17  C   UNL     1     -44.650 -53.621  13.072  1.00  0.00     0.025 C 
HETATM   18  C   UNL     1     -46.596 -52.668  14.250  1.00  0.00     0.141 C 
HETATM   19  O   UNL     1     -45.227 -52.224  16.469  1.00  0.00    -0.227 OA
HETATM   20  O   UNL     1     -46.050 -54.564  15.984  1.00  0.00    -0.227 OA
HETATM   21  C   UNL     1     -45.741 -52.539  12.996  1.00  0.00     0.022 C 
HETATM   22  C   UNL     1     -43.422 -53.276  12.232  1.00  0.00     0.130 C 
ENDBRANCH   4  13
BRANCH   2  23
HETATM   23  C   UNL     1     -41.159 -47.004  10.958  1.00  0.00     0.165 C 
BRANCH  23  24
HETATM   24  C   UNL     1     -42.130 -45.884  10.542  1.00  0.00     0.165 C 
BRANCH  24  25
HETATM   25  C   UNL     1     -41.893 -44.562  11.290  1.00  0.00     0.151 C 
HETATM   26  O   UNL     1     -42.648 -43.477  10.739  1.00  0.00    -0.383 OA
HETATM   27  C   UNL     1     -41.903 -42.263  10.905  1.00  0.00     0.168 C 
HETATM   28  C   UNL     1     -40.616 -42.626  11.616  1.00  0.00     0.029 C 
HETATM   29  C   UNL     1     -40.448 -44.088  11.275  1.00  0.00     0.036 C 
ENDBRANCH  24  25
BRANCH  24  30
HETATM   30  O   UNL     1     -41.992 -45.663   9.127  1.00  0.00    -0.391 OA
HETATM   31  H   UNL     1     -41.857 -46.521   8.690  1.00  0.00     0.210 HD
ENDBRANCH  24  30
ENDBRANCH  23  24
ENDBRANCH   2  23
TORSDOF 5
ENDMDL
MODEL 5
REMARK VINA RESULT:      -7.0      4.040      8.234
REMARK  5 active torsions:
REMARK  status: ('A' for Active; 'I' for Inactive)
REMARK    1  A    between atoms: N_3  and  C_7 
REMARK    2  A    between atoms: N_4  and  C_18 
REMARK    3  A    between atoms: C_18  and  C_22 
REMARK    4  A    between atoms: C_22  and  C_25 
REMARK    5  A    between atoms: C_22  and  O_27 
ROOT
HETATM    1  C   UNL     1     -41.048 -46.717  11.273  1.00  0.00     0.122 A 
HETATM    2  N   UNL     1     -40.430 -48.797  11.546  1.00  0.00    -0.325 N 
HETATM    3  C   UNL     1     -41.322 -48.015  10.864  1.00  0.00     0.140 A 
HETATM    4  C   UNL     1     -41.806 -45.679  10.680  1.00  0.00     0.135 A 
HETATM    5  N   UNL     1     -40.041 -46.715  12.226  1.00  0.00    -0.346 N 
ATOM      6  HN  UNL     1     -39.655 -45.910  12.719  1.00  0.00     0.167 HD
HETATM    7  C   UNL     1     -39.692 -47.976  12.356  1.00  0.00     0.185 A 
HETATM    8  N   UNL     1     -42.244 -48.416   9.975  1.00  0.00    -0.336 N 
ATOM      9  HN  UNL     1     -42.420 -49.388   9.719  1.00  0.00     0.168 HD
HETATM   10  N   UNL     1     -42.741 -46.051   9.757  1.00  0.00    -0.337 N 
ATOM     11  HN  UNL     1     -43.312 -45.348   9.289  1.00  0.00     0.168 HD
HETATM   12  C   UNL     1     -42.902 -47.360   9.469  1.00  0.00     0.183 A 
ENDROOT
BRANCH   4  13
HETATM   13  N   UNL     1     -41.654 -44.341  10.968  1.00  0.00    -0.364 N 
HETATM   14  C   UNL     1     -42.660 -43.616  11.738  1.00  0.00     0.145 C 
HETATM   15  C   UNL     1     -42.021 -42.250  11.942  1.00  0.00     0.132 C 
HETATM   16  S   UNL     1     -42.357 -41.532  13.523  1.00  0.00     0.150 S 
HETATM   17  C   UNL     1     -40.516 -42.533  11.925  1.00  0.00     0.025 C 
HETATM   18  C   UNL     1     -40.844 -42.048  14.321  1.00  0.00     0.141 C 
HETATM   19  O   UNL     1     -43.480 -42.199  14.147  1.00  0.00    -0.227 OA
HETATM   20  O   UNL     1     -42.319 -40.090  13.377  1.00  0.00    -0.227 OA
HETATM   21  C   UNL     1     -40.137 -42.980  13.347  1.00  0.00     0.022 C 
HETATM   22  C   UNL     1     -40.373 -43.655  10.899  1.00  0.00     0.130 C 
ENDBRANCH   4  13
BRANCH   2  23
HETATM   23  C   UNL     1     -40.267 -50.224  11.425  1.00  0.00     0.165 C 
BRANCH  23  24
HETATM   24  C   UNL     1     -39.363 -50.894  12.475  1.00  0.00     0.165 C 
BRANCH  24  25
HETATM   25  C   UNL     1     -40.039 -52.067  13.203  1.00  0.00     0.151 C 
HETATM   26  O   UNL     1     -39.093 -53.005  13.727  1.00  0.00    -0.383 OA
HETATM   27  C   UNL     1     -39.673 -54.316  13.693  1.00  0.00     0.168 C 
HETATM   28  C   UNL     1     -41.069 -54.169  13.124  1.00  0.00     0.029 C 
HETATM   29  C   UNL     1     -40.970 -52.891  12.326  1.00  0.00     0.036 C 
ENDBRANCH  24  25
BRANCH  24  30
HETATM   30  O   UNL     1     -38.171 -51.362  11.819  1.00  0.00    -0.391 OA
HETATM   31  H   UNL     1     -37.629 -51.846  12.465  1.00  0.00     0.210 HD
ENDBRANCH  24  30
ENDBRANCH  23  24
ENDBRANCH   2  23
TORSDOF 5
ENDMDL
MODEL 6
REMARK VINA RESULT:      -7.0      3.652      8.221
REMARK  5 active torsions:
REMARK  status: ('A' for Active; 'I' for Inactive)
REMARK    1  A    between atoms: N_3  and  C_7 
REMARK    2  A    between atoms: N_4  and  C_18 
REMARK    3  A    between atoms: C_18  and  C_22 
REMARK    4  A    between atoms: C_22  and  C_25 
REMARK    5  A    between atoms: C_22  and  O_27 
ROOT
HETATM    1  C   UNL     1     -41.325 -49.904  12.010  1.00  0.00     0.122 A 
HETATM    2  N   UNL     1     -41.195 -52.055  12.377  1.00  0.00    -0.325 N 
HETATM    3  C   UNL     1     -40.435 -50.969  12.039  1.00  0.00     0.140 A 
HETATM    4  C   UNL     1     -40.792 -48.623  11.725  1.00  0.00     0.135 A 
HETATM    5  N   UNL     1     -42.612 -50.344  12.276  1.00  0.00    -0.346 N 
ATOM      6  HN  UNL     1     -43.467 -49.788  12.295  1.00  0.00     0.167 HD
HETATM    7  C   UNL     1     -42.492 -51.634  12.499  1.00  0.00     0.185 A 
HETATM    8  N   UNL     1     -39.113 -50.938  11.809  1.00  0.00    -0.336 N 
ATOM      9  HN  UNL     1     -38.502 -51.754  11.824  1.00  0.00     0.168 HD
HETATM   10  N   UNL     1     -39.446 -48.554  11.504  1.00  0.00    -0.337 N 
ATOM     11  HN  UNL     1     -39.002 -47.658  11.303  1.00  0.00     0.168 HD
HETATM   12  C   UNL     1     -38.708 -49.683  11.555  1.00  0.00     0.183 A 
ENDROOT
BRANCH   4  13
HETATM   13  N   UNL     1     -41.534 -47.465  11.667  1.00  0.00    -0.364 N 
HETATM   14  C   UNL     1     -41.758 -46.652  12.857  1.00  0.00     0.145 C 
HETATM   15  C   UNL     1     -42.475 -45.427  12.309  1.00  0.00     0.132 C 
HETATM   16  S   UNL     1     -42.019 -43.915  13.105  1.00  0.00     0.150 S 
HETATM   17  C   UNL     1     -41.968 -45.307  10.869  1.00  0.00     0.025 C 
HETATM   18  C   UNL     1     -40.804 -43.394  11.903  1.00  0.00     0.141 C 
HETATM   19  O   UNL     1     -41.359 -44.191  14.364  1.00  0.00    -0.227 OA
HETATM   20  O   UNL     1     -43.147 -43.007  13.025  1.00  0.00    -0.227 OA
HETATM   21  C   UNL     1     -40.627 -44.557  10.935  1.00  0.00     0.022 C 
HETATM   22  C   UNL     1     -41.807 -46.760  10.424  1.00  0.00     0.130 C 
ENDBRANCH   4  13
BRANCH   2  23
HETATM   23  C   UNL     1     -40.724 -53.400  12.596  1.00  0.00     0.165 C 
BRANCH  23  24
HETATM   24  C   UNL     1     -39.818 -53.608  13.823  1.00  0.00     0.165 C 
BRANCH  24  25
HETATM   25  C   UNL     1     -40.584 -54.055  15.079  1.00  0.00     0.151 C 
HETATM   26  O   UNL     1     -39.889 -55.068  15.813  1.00  0.00    -0.383 OA
HETATM   27  C   UNL     1     -40.850 -55.931  16.437  1.00  0.00     0.168 C 
HETATM   28  C   UNL     1     -42.222 -55.403  16.072  1.00  0.00     0.029 C 
HETATM   29  C   UNL     1     -41.957 -54.645  14.793  1.00  0.00     0.036 C 
ENDBRANCH  24  25
BRANCH  24  30
HETATM   30  O   UNL     1     -38.824 -54.594  13.494  1.00  0.00    -0.391 OA
HETATM   31  H   UNL     1     -37.980 -54.142  13.325  1.00  0.00     0.210 HD
ENDBRANCH  24  30
ENDBRANCH  23  24
ENDBRANCH   2  23
TORSDOF 5
ENDMDL
MODEL 7
REMARK VINA RESULT:      -6.9      3.002      4.911
REMARK  5 active torsions:
REMARK  status: ('A' for Active; 'I' for Inactive)
REMARK    1  A    between atoms: N_3  and  C_7 
REMARK    2  A    between atoms: N_4  and  C_18 
REMARK    3  A    between atoms: C_18  and  C_22 
REMARK    4  A    between atoms: C_22  and  C_25 
REMARK    5  A    between atoms: C_22  and  O_27 
ROOT
HETATM    1  C   UNL     1     -42.824 -51.237  12.969  1.00  0.00     0.122 A 
HETATM    2  N   UNL     1     -42.060 -49.345  12.183  1.00  0.00    -0.325 N 
HETATM    3  C   UNL     1     -41.836 -50.694  12.159  1.00  0.00     0.140 A 
HETATM    4  C   UNL     1     -42.858 -52.647  13.091  1.00  0.00     0.135 A 
HETATM    5  N   UNL     1     -43.604 -50.230  13.516  1.00  0.00    -0.346 N 
ATOM      6  HN  UNL     1     -44.384 -50.332  14.166  1.00  0.00     0.167 HD
HETATM    7  C   UNL     1     -43.122 -49.114  13.015  1.00  0.00     0.185 A 
HETATM    8  N   UNL     1     -40.881 -51.350  11.481  1.00  0.00    -0.336 N 
ATOM      9  HN  UNL     1     -40.163 -50.904  10.911  1.00  0.00     0.168 HD
HETATM   10  N   UNL     1     -41.911 -53.346  12.399  1.00  0.00    -0.337 N 
ATOM     11  HN  UNL     1     -41.890 -54.365  12.440  1.00  0.00     0.168 HD
HETATM   12  C   UNL     1     -41.003 -52.676  11.658  1.00  0.00     0.183 A 
ENDROOT
BRANCH   4  13
HETATM   13  N   UNL     1     -43.775 -53.341  13.846  1.00  0.00    -0.364 N 
HETATM   14  C   UNL     1     -43.592 -53.517  15.283  1.00  0.00     0.145 C 
HETATM   15  C   UNL     1     -44.886 -54.189  15.718  1.00  0.00     0.132 C 
HETATM   16  S   UNL     1     -45.470 -53.661  17.301  1.00  0.00     0.150 S 
HETATM   17  C   UNL     1     -45.924 -53.695  14.707  1.00  0.00     0.025 C 
HETATM   18  C   UNL     1     -46.632 -52.440  16.708  1.00  0.00     0.141 C 
HETATM   19  O   UNL     1     -44.409 -52.998  18.030  1.00  0.00    -0.227 OA
HETATM   20  O   UNL     1     -46.225 -54.751  17.888  1.00  0.00    -0.227 OA
HETATM   21  C   UNL     1     -46.408 -52.323  15.207  1.00  0.00     0.022 C 
HETATM   22  C   UNL     1     -45.136 -53.600  13.401  1.00  0.00     0.130 C 
ENDBRANCH   4  13
BRANCH   2  23
HETATM   23  C   UNL     1     -41.335 -48.339  11.447  1.00  0.00     0.165 C 
BRANCH  23  24
HETATM   24  C   UNL     1     -42.175 -47.446  10.515  1.00  0.00     0.165 C 
BRANCH  24  25
HETATM   25  C   UNL     1     -41.587 -46.038  10.326  1.00  0.00     0.151 C 
HETATM   26  O   UNL     1     -40.165 -46.012  10.491  1.00  0.00    -0.383 OA
HETATM   27  C   UNL     1     -39.785 -44.744  11.042  1.00  0.00     0.168 C 
HETATM   28  C   UNL     1     -41.056 -43.936  11.212  1.00  0.00     0.029 C 
HETATM   29  C   UNL     1     -42.118 -45.005  11.308  1.00  0.00     0.036 C 
ENDBRANCH  24  25
BRANCH  24  30
HETATM   30  O   UNL     1     -42.280 -48.095   9.235  1.00  0.00    -0.391 OA
HETATM   31  H   UNL     1     -43.016 -47.694   8.742  1.00  0.00     0.210 HD
ENDBRANCH  24  30
ENDBRANCH  23  24
ENDBRANCH   2  23
TORSDOF 5
ENDMDL
MODEL 8
REMARK VINA RESULT:      -6.9      3.315      7.000
REMARK  5 active torsions:
REMARK  status: ('A' for Active; 'I' for Inactive)
REMARK    1  A    between atoms: N_3  and  C_7 
REMARK    2  A    between atoms: N_4  and  C_18 
REMARK    3  A    between atoms: C_18  and  C_22 
REMARK    4  A    between atoms: C_22  and  C_25 
REMARK    5  A    between atoms: C_22  and  O_27 
ROOT
HETATM    1  C   UNL     1     -41.901 -50.670  13.424  1.00  0.00     0.122 A 
HETATM    2  N   UNL     1     -42.934 -51.958  14.856  1.00  0.00    -0.325 N 
HETATM    3  C   UNL     1     -42.300 -51.981  13.645  1.00  0.00     0.140 A 
HETATM    4  C   UNL     1     -41.167 -50.408  12.241  1.00  0.00     0.135 A 
HETATM    5  N   UNL     1     -42.331 -49.855  14.460  1.00  0.00    -0.346 N 
ATOM      6  HN  UNL     1     -42.204 -48.847  14.550  1.00  0.00     0.167 HD
HETATM    7  C   UNL     1     -42.937 -50.663  15.300  1.00  0.00     0.185 A 
HETATM    8  N   UNL     1     -42.089 -53.046  12.855  1.00  0.00    -0.336 N 
ATOM      9  HN  UNL     1     -42.419 -53.990  13.053  1.00  0.00     0.168 HD
HETATM   10  N   UNL     1     -40.919 -51.474  11.424  1.00  0.00    -0.337 N 
ATOM     11  HN  UNL     1     -40.389 -51.350  10.562  1.00  0.00     0.168 HD
HETATM   12  C   UNL     1     -41.384 -52.694  11.768  1.00  0.00     0.183 A 
ENDROOT
BRANCH   4  13
HETATM   13  N   UNL     1     -40.692 -49.168  11.878  1.00  0.00    -0.364 N 
HETATM   14  C   UNL     1     -41.426 -48.324  10.940  1.00  0.00     0.145 C 
HETATM   15  C   UNL     1     -40.635 -47.025  10.953  1.00  0.00     0.132 C 
HETATM   16  S   UNL     1     -41.640 -45.574  10.831  1.00  0.00     0.150 S 
HETATM   17  C   UNL     1     -40.009 -46.979  12.350  1.00  0.00     0.025 C 
HETATM   18  C   UNL     1     -41.718 -45.217  12.580  1.00  0.00     0.141 C 
HETATM   19  O   UNL     1     -42.962 -45.920  10.353  1.00  0.00    -0.227 OA
HETATM   20  O   UNL     1     -40.853 -44.535  10.196  1.00  0.00    -0.227 OA
HETATM   21  C   UNL     1     -41.077 -46.399  13.293  1.00  0.00     0.022 C 
HETATM   22  C   UNL     1     -39.694 -48.444  12.649  1.00  0.00     0.130 C 
ENDBRANCH   4  13
BRANCH   2  23
HETATM   23  C   UNL     1     -43.482 -53.089  15.563  1.00  0.00     0.165 C 
BRANCH  23  24
HETATM   24  C   UNL     1     -44.984 -53.017  15.895  1.00  0.00     0.165 C 
BRANCH  24  25
HETATM   25  C   UNL     1     -45.879 -52.914  14.650  1.00  0.00     0.151 C 
HETATM   26  O   UNL     1     -45.252 -53.447  13.478  1.00  0.00    -0.383 OA
HETATM   27  C   UNL     1     -45.704 -52.709  12.334  1.00  0.00     0.168 C 
HETATM   28  C   UNL     1     -46.683 -51.667  12.837  1.00  0.00     0.029 C 
HETATM   29  C   UNL     1     -46.270 -51.492  14.278  1.00  0.00     0.036 C 
ENDBRANCH  24  25
BRANCH  24  30
HETATM   30  O   UNL     1     -45.342 -54.191  16.645  1.00  0.00    -0.391 OA
HETATM   31  H   UNL     1     -44.725 -54.908  16.415  1.00  0.00     0.210 HD
ENDBRANCH  24  30
ENDBRANCH  23  24
ENDBRANCH   2  23
TORSDOF 5
ENDMDL
MODEL 9
REMARK VINA RESULT:      -6.7      2.735      4.119
REMARK  5 active torsions:
REMARK  status: ('A' for Active; 'I' for Inactive)
REMARK    1  A    between atoms: N_3  and  C_7 
REMARK    2  A    between atoms: N_4  and  C_18 
REMARK    3  A    between atoms: C_18  and  C_22 
REMARK    4  A    between atoms: C_22  and  C_25 
REMARK    5  A    between atoms: C_22  and  O_27 
ROOT
HETATM    1  C   UNL     1     -42.886 -50.906  13.075  1.00  0.00     0.122 A 
HETATM    2  N   UNL     1     -42.092 -48.956  12.485  1.00  0.00    -0.325 N 
HETATM    3  C   UNL     1     -41.926 -50.298  12.277  1.00  0.00     0.140 A 
HETATM    4  C   UNL     1     -42.971 -52.319  13.021  1.00  0.00     0.135 A 
HETATM    5  N   UNL     1     -43.589 -49.952  13.794  1.00  0.00    -0.346 N 
ATOM      6  HN  UNL     1     -44.332 -50.111  14.475  1.00  0.00     0.167 HD
HETATM    7  C   UNL     1     -43.092 -48.799  13.407  1.00  0.00     0.185 A 
HETATM    8  N   UNL     1     -41.042 -50.893  11.462  1.00  0.00    -0.336 N 
ATOM      9  HN  UNL     1     -40.342 -50.402  10.907  1.00  0.00     0.168 HD
HETATM   10  N   UNL     1     -42.098 -52.955  12.186  1.00  0.00    -0.337 N 
ATOM     11  HN  UNL     1     -42.117 -53.971  12.097  1.00  0.00     0.168 HD
HETATM   12  C   UNL     1     -41.209 -52.226  11.478  1.00  0.00     0.183 A 
ENDROOT
BRANCH   4  13
HETATM   13  N   UNL     1     -43.870 -53.073  13.740  1.00  0.00    -0.364 N 
HETATM   14  C   UNL     1     -43.639 -53.384  15.147  1.00  0.00     0.145 C 
HETATM   15  C   UNL     1     -44.925 -54.082  15.563  1.00  0.00     0.132 C 
HETATM   16  S   UNL     1     -45.446 -53.700  17.209  1.00  0.00     0.150 S 
HETATM   17  C   UNL     1     -45.992 -53.487  14.640  1.00  0.00     0.025 C 
HETATM   18  C   UNL     1     -46.614 -52.419  16.775  1.00  0.00     0.141 C 
HETATM   19  O   UNL     1     -44.353 -53.118  17.958  1.00  0.00    -0.227 OA
HETATM   20  O   UNL     1     -46.194 -54.834  17.718  1.00  0.00    -0.227 OA
HETATM   21  C   UNL     1     -46.441 -52.164  15.283  1.00  0.00     0.022 C 
HETATM   22  C   UNL     1     -45.249 -53.276  13.322  1.00  0.00     0.130 C 
ENDBRANCH   4  13
BRANCH   2  23
HETATM   23  C   UNL     1     -41.372 -47.889  11.837  1.00  0.00     0.165 C 
BRANCH  23  24
HETATM   24  C   UNL     1     -42.198 -46.981  10.908  1.00  0.00     0.165 C 
BRANCH  24  25
HETATM   25  C   UNL     1     -43.171 -47.756  10.005  1.00  0.00     0.151 C 
HETATM   26  O   UNL     1     -42.676 -47.910   8.670  1.00  0.00    -0.383 OA
HETATM   27  C   UNL     1     -43.785 -47.917   7.762  1.00  0.00     0.168 C 
HETATM   28  C   UNL     1     -45.042 -47.772   8.596  1.00  0.00     0.029 C 
HETATM   29  C   UNL     1     -44.534 -47.099   9.848  1.00  0.00     0.036 C 
ENDBRANCH  24  25
BRANCH  24  30
HETATM   30  O   UNL     1     -42.937 -46.051  11.720  1.00  0.00    -0.391 OA
HETATM   31  H   UNL     1     -42.796 -46.274  12.656  1.00  0.00     0.210 HD
ENDBRANCH  24  30
ENDBRANCH  23  24
ENDBRANCH   2  23
TORSDOF 5
ENDMDL
