MODEL 1
REMARK VINA RESULT:      -6.1      0.000      0.000
REMARK  4 active torsions:
REMARK  status: ('A' for Active; 'I' for Inactive)
REMARK    1  A    between atoms: C_2  and  C_3 
REMARK    2  A    between atoms: C_2  and  N_10 
REMARK    3  A    between atoms: C_3  and  N_4 
REMARK       I    between atoms: N_10  and  C_11 
REMARK       I    between atoms: C_11  and  N_13 
REMARK    4  A    between atoms: N_13  and  C_14 
ROOT
HETATM    1  N   UNL     1     -43.282 -48.523  11.048  1.00  0.00    -0.337 N 
HETATM    2  C   UNL     1     -43.306 -48.878  12.377  1.00  0.00     0.316 C 
HETATM    3  O   UNL     1     -43.113 -48.108  13.303  1.00  0.00    -0.247 OA
HETATM    4  N   UNL     1     -43.558 -50.226  12.489  1.00  0.00    -0.338 N 
HETATM    5  H   UNL     1     -43.003 -49.300  10.464  1.00  0.00     0.164 HD
HETATM    6  H   UNL     1     -44.147 -50.565  11.744  1.00  0.00     0.164 HD
ENDROOT
BRANCH   1   7
HETATM    7  C   UNL     1     -42.840 -47.199  10.567  1.00  0.00     0.102 C 
HETATM    8  C   UNL     1     -41.309 -47.173  10.652  1.00  0.00     0.034 C 
BRANCH   7   9
HETATM    9  C   UNL     1     -43.351 -46.867   9.149  1.00  0.00     0.172 C 
BRANCH   9  10
HETATM   10  N   UNL     1     -44.698 -47.339   8.867  1.00  0.00    -0.302 N 
HETATM   11  C   UNL     1     -45.851 -46.968   9.500  1.00  0.00     0.111 A 
HETATM   12  C   UNL     1     -46.852 -47.746   8.963  1.00  0.00     0.037 A 
HETATM   13  C   UNL     1     -46.204 -48.557   8.015  1.00  0.00     0.108 A 
HETATM   14  N   UNL     1     -44.890 -48.316   7.956  1.00  0.00    -0.310 N 
ATOM     15  HN  UNL     1     -44.194 -48.766   7.361  1.00  0.00     0.186 HD
ENDBRANCH   9  10
ENDBRANCH   7   9
ENDBRANCH   1   7
BRANCH   4  16
HETATM   16  C   UNL     1     -43.660 -50.945  13.765  1.00  0.00     0.089 C 
HETATM   17  C   UNL     1     -42.350 -51.661  14.141  1.00  0.00     0.026 C 
HETATM   18  C   UNL     1     -41.990 -52.770  13.151  1.00  0.00     0.002 C 
HETATM   19  C   UNL     1     -43.130 -53.767  12.951  1.00  0.00     0.001 C 
HETATM   20  C   UNL     1     -44.468 -53.088  12.665  1.00  0.00     0.006 C 
HETATM   21  C   UNL     1     -44.783 -52.017  13.721  1.00  0.00     0.004 C 
HETATM   22  C   UNL     1     -46.182 -51.432  13.523  1.00  0.00     0.012 C 
ENDBRANCH   4  16
TORSDOF 4
ENDMDL
MODEL 2
REMARK VINA RESULT:      -6.0      2.689      4.987
REMARK  4 active torsions:
REMARK  status: ('A' for Active; 'I' for Inactive)
REMARK    1  A    between atoms: C_2  and  C_3 
REMARK    2  A    between atoms: C_2  and  N_10 
REMARK    3  A    between atoms: C_3  and  N_4 
REMARK       I    between atoms: N_10  and  C_11 
REMARK       I    between atoms: C_11  and  N_13 
REMARK    4  A    between atoms: N_13  and  C_14 
ROOT
HETATM    1  N   UNL     1     -42.562 -49.099  11.776  1.00  0.00    -0.337 N 
HETATM    2  C   UNL     1     -42.537 -50.402  12.220  1.00  0.00     0.316 C 
HETATM    3  O   UNL     1     -41.621 -51.183  12.023  1.00  0.00    -0.247 OA
HETATM    4  N   UNL     1     -43.705 -50.681  12.891  1.00  0.00    -0.338 N 
HETATM    5  H   UNL     1     -43.509 -48.781  11.621  1.00  0.00     0.164 HD
HETATM    6  H   UNL     1     -44.075 -49.871  13.364  1.00  0.00     0.164 HD
ENDROOT
BRANCH   1   7
HETATM    7  C   UNL     1     -41.560 -48.536  10.850  1.00  0.00     0.102 C 
HETATM    8  C   UNL     1     -42.296 -47.560   9.923  1.00  0.00     0.034 C 
BRANCH   7   9
HETATM    9  C   UNL     1     -40.373 -47.868  11.575  1.00  0.00     0.172 C 
BRANCH   9  10
HETATM   10  N   UNL     1     -39.297 -48.779  11.938  1.00  0.00    -0.302 N 
HETATM   11  C   UNL     1     -38.506 -48.718  13.050  1.00  0.00     0.111 A 
HETATM   12  C   UNL     1     -37.572 -49.722  12.913  1.00  0.00     0.037 A 
HETATM   13  C   UNL     1     -37.883 -50.332  11.684  1.00  0.00     0.108 A 
HETATM   14  N   UNL     1     -38.931 -49.758  11.084  1.00  0.00    -0.310 N 
ATOM     15  HN  UNL     1     -39.354 -50.002  10.189  1.00  0.00     0.186 HD
ENDBRANCH   9  10
ENDBRANCH   7   9
ENDBRANCH   1   7
BRANCH   4  16
HETATM   16  C   UNL     1     -44.015 -51.978  13.505  1.00  0.00     0.089 C 
HETATM   17  C   UNL     1     -45.266 -52.634  12.893  1.00  0.00     0.026 C 
HETATM   18  C   UNL     1     -46.534 -51.819  13.153  1.00  0.00     0.002 C 
HETATM   19  C   UNL     1     -46.738 -51.513  14.636  1.00  0.00     0.001 C 
HETATM   20  C   UNL     1     -45.486 -50.945  15.302  1.00  0.00     0.006 C 
HETATM   21  C   UNL     1     -44.262 -51.835  15.033  1.00  0.00     0.004 C 
HETATM   22  C   UNL     1     -43.038 -51.351  15.810  1.00  0.00     0.012 C 
ENDBRANCH   4  16
TORSDOF 4
ENDMDL
MODEL 3
REMARK VINA RESULT:      -5.5      3.251      5.486
REMARK  4 active torsions:
REMARK  status: ('A' for Active; 'I' for Inactive)
REMARK    1  A    between atoms: C_2  and  C_3 
REMARK    2  A    between atoms: C_2  and  N_10 
REMARK    3  A    between atoms: C_3  and  N_4 
REMARK       I    between atoms: N_10  and  C_11 
REMARK       I    between atoms: C_11  and  N_13 
REMARK    4  A    between atoms: N_13  and  C_14 
ROOT
HETATM    1  N   UNL     1     -42.109 -50.403  12.616  1.00  0.00    -0.337 N 
HETATM    2  C   UNL     1     -42.037 -51.758  12.386  1.00  0.00     0.316 C 
HETATM    3  O   UNL     1     -41.347 -52.278  11.525  1.00  0.00    -0.247 OA
HETATM    4  N   UNL     1     -42.874 -52.418  13.256  1.00  0.00    -0.338 N 
HETATM    5  H   UNL     1     -43.008 -50.142  12.999  1.00  0.00     0.164 HD
HETATM    6  H   UNL     1     -42.954 -51.941  14.141  1.00  0.00     0.164 HD
ENDROOT
BRANCH   1   7
HETATM    7  C   UNL     1     -41.496 -49.394  11.731  1.00  0.00     0.102 C 
HETATM    8  C   UNL     1     -42.562 -48.325  11.456  1.00  0.00     0.034 C 
BRANCH   7   9
HETATM    9  C   UNL     1     -40.199 -48.788  12.309  1.00  0.00     0.172 C 
BRANCH   9  10
HETATM   10  N   UNL     1     -39.026 -49.638  12.177  1.00  0.00    -0.302 N 
HETATM   11  C   UNL     1     -38.413 -50.357  13.165  1.00  0.00     0.111 A 
HETATM   12  C   UNL     1     -37.295 -50.921  12.593  1.00  0.00     0.037 A 
HETATM   13  C   UNL     1     -37.318 -50.485  11.256  1.00  0.00     0.108 A 
HETATM   14  N   UNL     1     -38.370 -49.698  10.999  1.00  0.00    -0.310 N 
ATOM     15  HN  UNL     1     -38.617 -49.249  10.118  1.00  0.00     0.186 HD
ENDBRANCH   9  10
ENDBRANCH   7   9
ENDBRANCH   1   7
BRANCH   4  16
HETATM   16  C   UNL     1     -43.042 -53.875  13.295  1.00  0.00     0.089 C 
HETATM   17  C   UNL     1     -44.424 -54.321  12.781  1.00  0.00     0.026 C 
HETATM   18  C   UNL     1     -45.563 -53.821  13.670  1.00  0.00     0.002 C 
HETATM   19  C   UNL     1     -45.368 -54.199  15.137  1.00  0.00     0.001 C 
HETATM   20  C   UNL     1     -43.975 -53.854  15.660  1.00  0.00     0.006 C 
HETATM   21  C   UNL     1     -42.882 -54.424  14.740  1.00  0.00     0.004 C 
HETATM   22  C   UNL     1     -41.488 -54.205  15.328  1.00  0.00     0.012 C 
ENDBRANCH   4  16
TORSDOF 4
ENDMDL
MODEL 4
REMARK VINA RESULT:      -5.4      2.878      4.609
REMARK  4 active torsions:
REMARK  status: ('A' for Active; 'I' for Inactive)
REMARK    1  A    between atoms: C_2  and  C_3 
REMARK    2  A    between atoms: C_2  and  N_10 
REMARK    3  A    between atoms: C_3  and  N_4 
REMARK       I    between atoms: N_10  and  C_11 
REMARK       I    between atoms: C_11  and  N_13 
REMARK    4  A    between atoms: N_13  and  C_14 
ROOT
HETATM    1  N   UNL     1     -41.793 -51.265  13.740  1.00  0.00    -0.337 N 
HETATM    2  C   UNL     1     -42.665 -52.034  13.003  1.00  0.00     0.316 C 
HETATM    3  O   UNL     1     -42.372 -52.624  11.977  1.00  0.00    -0.247 OA
HETATM    4  N   UNL     1     -43.909 -52.010  13.592  1.00  0.00    -0.338 N 
HETATM    5  H   UNL     1     -42.278 -50.530  14.235  1.00  0.00     0.164 HD
HETATM    6  H   UNL     1     -43.852 -51.922  14.595  1.00  0.00     0.164 HD
ENDROOT
BRANCH   1   7
HETATM    7  C   UNL     1     -40.435 -50.911  13.282  1.00  0.00     0.102 C 
HETATM    8  C   UNL     1     -39.499 -52.044  13.722  1.00  0.00     0.034 C 
BRANCH   7   9
HETATM    9  C   UNL     1     -40.356 -50.648  11.763  1.00  0.00     0.172 C 
BRANCH   9  10
HETATM   10  N   UNL     1     -40.685 -49.287  11.369  1.00  0.00    -0.302 N 
HETATM   11  C   UNL     1     -39.993 -48.149  11.676  1.00  0.00     0.111 A 
HETATM   12  C   UNL     1     -40.733 -47.101  11.176  1.00  0.00     0.037 A 
HETATM   13  C   UNL     1     -41.856 -47.707  10.585  1.00  0.00     0.108 A 
HETATM   14  N   UNL     1     -41.834 -49.040  10.705  1.00  0.00    -0.310 N 
ATOM     15  HN  UNL     1     -42.525 -49.712  10.371  1.00  0.00     0.186 HD
ENDBRANCH   9  10
ENDBRANCH   7   9
ENDBRANCH   1   7
BRANCH   4  16
HETATM   16  C   UNL     1     -45.081 -52.728  13.077  1.00  0.00     0.089 C 
HETATM   17  C   UNL     1     -46.313 -51.815  12.935  1.00  0.00     0.026 C 
HETATM   18  C   UNL     1     -46.801 -51.286  14.284  1.00  0.00     0.002 C 
HETATM   19  C   UNL     1     -47.052 -52.404  15.294  1.00  0.00     0.001 C 
HETATM   20  C   UNL     1     -45.885 -53.385  15.396  1.00  0.00     0.006 C 
HETATM   21  C   UNL     1     -45.477 -53.907  14.009  1.00  0.00     0.004 C 
HETATM   22  C   UNL     1     -44.406 -54.992  14.114  1.00  0.00     0.012 C 
ENDBRANCH   4  16
TORSDOF 4
ENDMDL
MODEL 5
REMARK VINA RESULT:      -5.3      2.593      6.693
REMARK  4 active torsions:
REMARK  status: ('A' for Active; 'I' for Inactive)
REMARK    1  A    between atoms: C_2  and  C_3 
REMARK    2  A    between atoms: C_2  and  N_10 
REMARK    3  A    between atoms: C_3  and  N_4 
REMARK       I    between atoms: N_10  and  C_11 
REMARK       I    between atoms: C_11  and  N_13 
REMARK    4  A    between atoms: N_13  and  C_14 
ROOT
HETATM    1  N   UNL     1     -41.902 -50.511  11.873  1.00  0.00    -0.337 N 
HETATM    2  C   UNL     1     -42.729 -49.460  12.201  1.00  0.00     0.316 C 
HETATM    3  O   UNL     1     -43.153 -49.236  13.322  1.00  0.00    -0.247 OA
HETATM    4  N   UNL     1     -43.012 -48.729  11.070  1.00  0.00    -0.338 N 
HETATM    5  H   UNL     1     -42.034 -50.798  10.913  1.00  0.00     0.164 HD
HETATM    6  H   UNL     1     -42.249 -48.737  10.411  1.00  0.00     0.164 HD
ENDROOT
BRANCH   1   7
HETATM    7  C   UNL     1     -41.568 -51.604  12.807  1.00  0.00     0.102 C 
HETATM    8  C   UNL     1     -42.554 -52.749  12.535  1.00  0.00     0.034 C 
BRANCH   7   9
HETATM    9  C   UNL     1     -40.099 -52.064  12.702  1.00  0.00     0.172 C 
BRANCH   9  10
HETATM   10  N   UNL     1     -39.129 -50.980  12.668  1.00  0.00    -0.302 N 
HETATM   11  C   UNL     1     -38.832 -50.108  13.677  1.00  0.00     0.111 A 
HETATM   12  C   UNL     1     -37.935 -49.204  13.153  1.00  0.00     0.037 A 
HETATM   13  C   UNL     1     -37.754 -49.613  11.820  1.00  0.00     0.108 A 
HETATM   14  N   UNL     1     -38.483 -50.693  11.518  1.00  0.00    -0.310 N 
ATOM     15  HN  UNL     1     -38.539 -51.185  10.626  1.00  0.00     0.186 HD
ENDBRANCH   9  10
ENDBRANCH   7   9
ENDBRANCH   1   7
BRANCH   4  16
HETATM   16  C   UNL     1     -43.862 -47.532  11.052  1.00  0.00     0.089 C 
HETATM   17  C   UNL     1     -44.892 -47.560   9.908  1.00  0.00     0.026 C 
HETATM   18  C   UNL     1     -44.230 -47.532   8.530  1.00  0.00     0.002 C 
HETATM   19  C   UNL     1     -43.259 -46.364   8.373  1.00  0.00     0.001 C 
HETATM   20  C   UNL     1     -42.277 -46.247   9.536  1.00  0.00     0.006 C 
HETATM   21  C   UNL     1     -43.015 -46.240  10.885  1.00  0.00     0.004 C 
HETATM   22  C   UNL     1     -42.053 -45.983  12.046  1.00  0.00     0.012 C 
ENDBRANCH   4  16
TORSDOF 4
ENDMDL
MODEL 6
REMARK VINA RESULT:      -5.3      4.070      6.451
REMARK  4 active torsions:
REMARK  status: ('A' for Active; 'I' for Inactive)
REMARK    1  A    between atoms: C_2  and  C_3 
REMARK    2  A    between atoms: C_2  and  N_10 
REMARK    3  A    between atoms: C_3  and  N_4 
REMARK       I    between atoms: N_10  and  C_11 
REMARK       I    between atoms: C_11  and  N_13 
REMARK    4  A    between atoms: N_13  and  C_14 
ROOT
HETATM    1  N   UNL     1     -41.779 -52.393  13.890  1.00  0.00    -0.337 N 
HETATM    2  C   UNL     1     -40.806 -52.224  12.931  1.00  0.00     0.316 C 
HETATM    3  O   UNL     1     -40.474 -53.076  12.124  1.00  0.00    -0.247 OA
HETATM    4  N   UNL     1     -40.262 -50.965  13.045  1.00  0.00    -0.338 N 
HETATM    5  H   UNL     1     -41.599 -51.819  14.702  1.00  0.00     0.164 HD
HETATM    6  H   UNL     1     -40.934 -50.289  13.374  1.00  0.00     0.164 HD
ENDROOT
BRANCH   1   7
HETATM    7  C   UNL     1     -42.420 -53.691  14.178  1.00  0.00     0.102 C 
HETATM    8  C   UNL     1     -41.427 -54.512  15.011  1.00  0.00     0.034 C 
BRANCH   7   9
HETATM    9  C   UNL     1     -43.788 -53.549  14.878  1.00  0.00     0.172 C 
BRANCH   9  10
HETATM   10  N   UNL     1     -44.789 -52.829  14.105  1.00  0.00    -0.302 N 
HETATM   11  C   UNL     1     -45.581 -51.801  14.535  1.00  0.00     0.111 A 
HETATM   12  C   UNL     1     -46.433 -51.511  13.493  1.00  0.00     0.037 A 
HETATM   13  C   UNL     1     -46.079 -52.417  12.478  1.00  0.00     0.108 A 
HETATM   14  N   UNL     1     -45.080 -53.226  12.848  1.00  0.00    -0.310 N 
ATOM     15  HN  UNL     1     -44.640 -53.970  12.306  1.00  0.00     0.186 HD
ENDBRANCH   9  10
ENDBRANCH   7   9
ENDBRANCH   1   7
BRANCH   4  16
HETATM   16  C   UNL     1     -39.200 -50.443  12.176  1.00  0.00     0.089 C 
HETATM   17  C   UNL     1     -37.793 -50.801  12.689  1.00  0.00     0.026 C 
HETATM   18  C   UNL     1     -37.484 -50.150  14.038  1.00  0.00     0.002 C 
HETATM   19  C   UNL     1     -37.699 -48.638  14.020  1.00  0.00     0.001 C 
HETATM   20  C   UNL     1     -39.051 -48.238  13.432  1.00  0.00     0.006 C 
HETATM   21  C   UNL     1     -39.275 -48.895  12.060  1.00  0.00     0.004 C 
HETATM   22  C   UNL     1     -40.559 -48.391  11.403  1.00  0.00     0.012 C 
ENDBRANCH   4  16
TORSDOF 4
ENDMDL
MODEL 7
REMARK VINA RESULT:      -5.2      2.632      6.615
REMARK  4 active torsions:
REMARK  status: ('A' for Active; 'I' for Inactive)
REMARK    1  A    between atoms: C_2  and  C_3 
REMARK    2  A    between atoms: C_2  and  N_10 
REMARK    3  A    between atoms: C_3  and  N_4 
REMARK       I    between atoms: N_10  and  C_11 
REMARK       I    between atoms: C_11  and  N_13 
REMARK    4  A    between atoms: N_13  and  C_14 
ROOT
HETATM    1  N   UNL     1     -44.561 -51.114  12.846  1.00  0.00    -0.337 N 
HETATM    2  C   UNL     1     -43.456 -50.444  13.319  1.00  0.00     0.316 C 
HETATM    3  O   UNL     1     -42.866 -50.721  14.350  1.00  0.00    -0.247 OA
HETATM    4  N   UNL     1     -43.144 -49.411  12.465  1.00  0.00    -0.338 N 
HETATM    5  H   UNL     1     -45.152 -50.507  12.295  1.00  0.00     0.164 HD
HETATM    6  H   UNL     1     -43.377 -49.626  11.508  1.00  0.00     0.164 HD
ENDROOT
BRANCH   1   7
HETATM    7  C   UNL     1     -45.281 -52.144  13.620  1.00  0.00     0.102 C 
HETATM    8  C   UNL     1     -46.781 -51.866  13.460  1.00  0.00     0.034 C 
BRANCH   7   9
HETATM    9  C   UNL     1     -44.908 -53.584  13.207  1.00  0.00     0.172 C 
BRANCH   9  10
HETATM   10  N   UNL     1     -43.533 -53.958  13.500  1.00  0.00    -0.302 N 
HETATM   11  C   UNL     1     -43.014 -54.307  14.715  1.00  0.00     0.111 A 
HETATM   12  C   UNL     1     -41.661 -54.478  14.521  1.00  0.00     0.037 A 
HETATM   13  C   UNL     1     -41.460 -54.210  13.155  1.00  0.00     0.108 A 
HETATM   14  N   UNL     1     -42.597 -53.888  12.529  1.00  0.00    -0.310 N 
ATOM     15  HN  UNL     1     -42.728 -53.646  11.547  1.00  0.00     0.186 HD
ENDBRANCH   9  10
ENDBRANCH   7   9
ENDBRANCH   1   7
BRANCH   4  16
HETATM   16  C   UNL     1     -42.016 -48.491  12.658  1.00  0.00     0.089 C 
HETATM   17  C   UNL     1     -42.475 -47.037  12.870  1.00  0.00     0.026 C 
HETATM   18  C   UNL     1     -43.176 -46.465  11.637  1.00  0.00     0.002 C 
HETATM   19  C   UNL     1     -42.335 -46.603  10.369  1.00  0.00     0.001 C 
HETATM   20  C   UNL     1     -41.785 -48.014  10.173  1.00  0.00     0.006 C 
HETATM   21  C   UNL     1     -41.058 -48.506  11.435  1.00  0.00     0.004 C 
HETATM   22  C   UNL     1     -40.385 -49.858  11.200  1.00  0.00     0.012 C 
ENDBRANCH   4  16
TORSDOF 4
ENDMDL
MODEL 8
REMARK VINA RESULT:      -5.2      4.073      6.628
REMARK  4 active torsions:
REMARK  status: ('A' for Active; 'I' for Inactive)
REMARK    1  A    between atoms: C_2  and  C_3 
REMARK    2  A    between atoms: C_2  and  N_10 
REMARK    3  A    between atoms: C_3  and  N_4 
REMARK       I    between atoms: N_10  and  C_11 
REMARK       I    between atoms: C_11  and  N_13 
REMARK    4  A    between atoms: N_13  and  C_14 
ROOT
HETATM    1  N   UNL     1     -41.828 -51.246  13.649  1.00  0.00    -0.337 N 
HETATM    2  C   UNL     1     -42.687 -52.083  12.974  1.00  0.00     0.316 C 
HETATM    3  O   UNL     1     -42.376 -52.766  12.013  1.00  0.00    -0.247 OA
HETATM    4  N   UNL     1     -43.940 -52.008  13.539  1.00  0.00    -0.338 N 
HETATM    5  H   UNL     1     -42.323 -50.469  14.066  1.00  0.00     0.164 HD
HETATM    6  H   UNL     1     -43.900 -51.827  14.530  1.00  0.00     0.164 HD
ENDROOT
BRANCH   1   7
HETATM    7  C   UNL     1     -40.463 -50.932  13.182  1.00  0.00     0.102 C 
HETATM    8  C   UNL     1     -40.416 -49.425  12.901  1.00  0.00     0.034 C 
BRANCH   7   9
HETATM    9  C   UNL     1     -39.366 -51.374  14.173  1.00  0.00     0.172 C 
BRANCH   9  10
HETATM   10  N   UNL     1     -39.338 -52.804  14.443  1.00  0.00    -0.302 N 
HETATM   11  C   UNL     1     -39.036 -53.414  15.628  1.00  0.00     0.111 A 
HETATM   12  C   UNL     1     -39.041 -54.768  15.376  1.00  0.00     0.037 A 
HETATM   13  C   UNL     1     -39.356 -54.876  14.010  1.00  0.00     0.108 A 
HETATM   14  N   UNL     1     -39.534 -53.681  13.435  1.00  0.00    -0.310 N 
ATOM     15  HN  UNL     1     -39.763 -53.479  12.462  1.00  0.00     0.186 HD
ENDBRANCH   9  10
ENDBRANCH   7   9
ENDBRANCH   1   7
BRANCH   4  16
HETATM   16  C   UNL     1     -45.102 -52.775  13.074  1.00  0.00     0.089 C 
HETATM   17  C   UNL     1     -46.356 -51.897  12.908  1.00  0.00     0.026 C 
HETATM   18  C   UNL     1     -46.838 -51.318  14.239  1.00  0.00     0.002 C 
HETATM   19  C   UNL     1     -47.050 -52.393  15.302  1.00  0.00     0.001 C 
HETATM   20  C   UNL     1     -45.860 -53.342  15.433  1.00  0.00     0.006 C 
HETATM   21  C   UNL     1     -45.458 -53.918  14.064  1.00  0.00     0.004 C 
HETATM   22  C   UNL     1     -44.361 -54.973  14.204  1.00  0.00     0.012 C 
ENDBRANCH   4  16
TORSDOF 4
ENDMDL
MODEL 9
REMARK VINA RESULT:      -4.9      2.446      7.383
REMARK  4 active torsions:
REMARK  status: ('A' for Active; 'I' for Inactive)
REMARK    1  A    between atoms: C_2  and  C_3 
REMARK    2  A    between atoms: C_2  and  N_10 
REMARK    3  A    between atoms: C_3  and  N_4 
REMARK       I    between atoms: N_10  and  C_11 
REMARK       I    between atoms: C_11  and  N_13 
REMARK    4  A    between atoms: N_13  and  C_14 
ROOT
HETATM    1  N   UNL     1     -41.930 -50.560  11.881  1.00  0.00    -0.337 N 
HETATM    2  C   UNL     1     -42.781 -49.525  12.198  1.00  0.00     0.316 C 
HETATM    3  O   UNL     1     -43.277 -49.348  13.298  1.00  0.00    -0.247 OA
HETATM    4  N   UNL     1     -42.997 -48.749  11.082  1.00  0.00    -0.338 N 
HETATM    5  H   UNL     1     -41.999 -50.807  10.904  1.00  0.00     0.164 HD
HETATM    6  H   UNL     1     -42.193 -48.728  10.473  1.00  0.00     0.164 HD
ENDROOT
BRANCH   1   7
HETATM    7  C   UNL     1     -41.651 -51.690  12.789  1.00  0.00     0.102 C 
HETATM    8  C   UNL     1     -42.698 -52.773  12.500  1.00  0.00     0.034 C 
BRANCH   7   9
HETATM    9  C   UNL     1     -40.209 -52.225  12.665  1.00  0.00     0.172 C 
BRANCH   9  10
HETATM   10  N   UNL     1     -39.758 -53.013  13.802  1.00  0.00    -0.302 N 
HETATM   11  C   UNL     1     -39.630 -54.372  13.864  1.00  0.00     0.111 A 
HETATM   12  C   UNL     1     -39.272 -54.666  15.162  1.00  0.00     0.037 A 
HETATM   13  C   UNL     1     -39.209 -53.417  15.806  1.00  0.00     0.108 A 
HETATM   14  N   UNL     1     -39.509 -52.407  14.982  1.00  0.00    -0.310 N 
ATOM     15  HN  UNL     1     -39.542 -51.410  15.196  1.00  0.00     0.186 HD
ENDBRANCH   9  10
ENDBRANCH   7   9
ENDBRANCH   1   7
BRANCH   4  16
HETATM   16  C   UNL     1     -43.849 -47.555  11.059  1.00  0.00     0.089 C 
HETATM   17  C   UNL     1     -44.878 -47.590   9.914  1.00  0.00     0.026 C 
HETATM   18  C   UNL     1     -44.214 -47.564   8.536  1.00  0.00     0.002 C 
HETATM   19  C   UNL     1     -43.246 -46.393   8.377  1.00  0.00     0.001 C 
HETATM   20  C   UNL     1     -42.266 -46.270   9.542  1.00  0.00     0.006 C 
HETATM   21  C   UNL     1     -43.006 -46.261  10.890  1.00  0.00     0.004 C 
HETATM   22  C   UNL     1     -42.047 -45.998  12.051  1.00  0.00     0.012 C 
ENDBRANCH   4  16
TORSDOF 4
ENDMDL
