MODEL 1
REMARK VINA RESULT:      -7.1      0.000      0.000
REMARK  5 active torsions:
REMARK  status: ('A' for Active; 'I' for Inactive)
REMARK    1  A    between atoms: N_1  and  C_3 
REMARK    2  A    between atoms: N_4  and  C_11 
REMARK    3  A    between atoms: C_8  and  C_16 
REMARK    4  A    between atoms: C_10  and  C_11 
REMARK    5  A    between atoms: C_10  and  O_25 
REMARK       I    between atoms: C_16  and  N_26 
ROOT
HETATM    1  C   UNL     1     -42.780 -50.853  12.876  1.00  0.00     0.122 A 
HETATM    2  C   UNL     1     -42.841 -52.269  12.789  1.00  0.00     0.136 A 
HETATM    3  N   UNL     1     -41.844 -48.900  12.544  1.00  0.00    -0.324 N 
HETATM    4  C   UNL     1     -41.738 -50.223  12.209  1.00  0.00     0.140 A 
HETATM    5  N   UNL     1     -43.557 -49.908  13.540  1.00  0.00    -0.346 N 
ATOM      6  HN  UNL     1     -44.402 -50.073  14.085  1.00  0.00     0.167 HD
HETATM    7  C   UNL     1     -42.964 -48.754  13.312  1.00  0.00     0.185 A 
HETATM    8  N   UNL     1     -41.891 -52.869  12.012  1.00  0.00    -0.337 N 
ATOM      9  HN  UNL     1     -41.881 -53.884  11.909  1.00  0.00     0.168 HD
HETATM   10  N   UNL     1     -40.795 -50.783  11.434  1.00  0.00    -0.336 N 
ATOM     11  HN  UNL     1     -40.055 -50.270  10.955  1.00  0.00     0.168 HD
HETATM   12  C   UNL     1     -40.965 -52.117  11.380  1.00  0.00     0.183 A 
ENDROOT
BRANCH   2  13
HETATM   13  N   UNL     1     -43.775 -53.061  13.406  1.00  0.00    -0.349 N 
HETATM   14  C   UNL     1     -45.060 -53.481  12.844  1.00  0.00     0.180 C 
HETATM   15  C   UNL     1     -45.621 -54.495  13.861  1.00  0.00     0.073 C 
HETATM   16  C   UNL     1     -44.596 -54.569  14.981  1.00  0.00     0.190 C 
HETATM   17  C   UNL     1     -43.732 -53.321  14.835  1.00  0.00     0.162 C 
HETATM   18  F   UNL     1     -43.821 -55.676  14.775  1.00  0.00    -0.248 F 
BRANCH  14  19
HETATM   19  C   UNL     1     -46.053 -52.305  12.746  1.00  0.00     0.238 C 
HETATM   20  O   UNL     1     -46.252 -51.489  13.643  1.00  0.00    -0.271 OA
HETATM   21  N   UNL     1     -46.757 -52.230  11.575  1.00  0.00    -0.368 N 
HETATM   22  H   UNL     1     -47.305 -51.388  11.470  1.00  0.00     0.159 HD
HETATM   23  H   UNL     1     -46.242 -52.518  10.742  1.00  0.00     0.159 HD
ENDBRANCH  14  19
ENDBRANCH   2  13
BRANCH   3  24
HETATM   24  C   UNL     1     -40.839 -47.885  12.292  1.00  0.00     0.172 C 
BRANCH  24  25
HETATM   25  C   UNL     1     -41.176 -46.914  11.154  1.00  0.00     0.102 C 
HETATM   26  C   UNL     1     -41.890 -45.643  11.671  1.00  0.00     0.153 C 
HETATM   27  O   UNL     1     -42.736 -45.170  10.600  1.00  0.00    -0.383 OA
HETATM   28  C   UNL     1     -40.982 -44.504  12.105  1.00  0.00     0.042 C 
HETATM   29  C   UNL     1     -42.712 -46.147   9.550  1.00  0.00     0.171 C 
HETATM   30  C   UNL     1     -42.224 -47.434  10.184  1.00  0.00     0.068 C 
BRANCH  25  31
HETATM   31  O   UNL     1     -40.009 -46.583  10.392  1.00  0.00    -0.385 OA
HETATM   32  H   UNL     1     -39.226 -46.590  10.975  1.00  0.00     0.210 HD
ENDBRANCH  25  31
ENDBRANCH  24  25
ENDBRANCH   3  24
TORSDOF 5
ENDMDL
MODEL 2
REMARK VINA RESULT:      -6.9      3.897      7.065
REMARK  5 active torsions:
REMARK  status: ('A' for Active; 'I' for Inactive)
REMARK    1  A    between atoms: N_1  and  C_3 
REMARK    2  A    between atoms: N_4  and  C_11 
REMARK    3  A    between atoms: C_8  and  C_16 
REMARK    4  A    between atoms: C_10  and  C_11 
REMARK    5  A    between atoms: C_10  and  O_25 
REMARK       I    between atoms: C_16  and  N_26 
ROOT
HETATM    1  C   UNL     1     -40.999 -51.532  13.582  1.00  0.00     0.122 A 
HETATM    2  C   UNL     1     -39.654 -51.723  13.998  1.00  0.00     0.136 A 
HETATM    3  N   UNL     1     -42.994 -52.224  12.997  1.00  0.00    -0.324 N 
HETATM    4  C   UNL     1     -41.809 -52.659  13.527  1.00  0.00     0.140 A 
HETATM    5  N   UNL     1     -41.715 -50.414  13.168  1.00  0.00    -0.346 N 
ATOM      6  HN  UNL     1     -41.390 -49.448  13.132  1.00  0.00     0.167 HD
HETATM    7  C   UNL     1     -42.903 -50.871  12.831  1.00  0.00     0.185 A 
HETATM    8  N   UNL     1     -39.305 -52.996  14.352  1.00  0.00    -0.337 N 
ATOM      9  HN  UNL     1     -38.354 -53.198  14.659  1.00  0.00     0.168 HD
HETATM   10  N   UNL     1     -41.498 -53.918  13.874  1.00  0.00    -0.336 N 
ATOM     11  HN  UNL     1     -42.138 -54.711  13.825  1.00  0.00     0.168 HD
HETATM   12  C   UNL     1     -40.221 -53.986  14.294  1.00  0.00     0.183 A 
ENDROOT
BRANCH   2  13
HETATM   13  N   UNL     1     -38.703 -50.739  14.080  1.00  0.00    -0.349 N 
HETATM   14  C   UNL     1     -38.272 -49.860  12.993  1.00  0.00     0.180 C 
HETATM   15  C   UNL     1     -37.339 -48.833  13.664  1.00  0.00     0.073 C 
HETATM   16  C   UNL     1     -37.281 -49.223  15.132  1.00  0.00     0.190 C 
HETATM   17  C   UNL     1     -37.777 -50.664  15.198  1.00  0.00     0.162 C 
HETATM   18  F   UNL     1     -38.146 -48.420  15.819  1.00  0.00    -0.248 F 
BRANCH  14  19
HETATM   19  C   UNL     1     -37.456 -50.623  11.929  1.00  0.00     0.238 C 
HETATM   20  O   UNL     1     -36.790 -51.630  12.159  1.00  0.00    -0.271 OA
HETATM   21  N   UNL     1     -37.483 -50.084  10.673  1.00  0.00    -0.368 N 
HETATM   22  H   UNL     1     -37.055 -50.660   9.962  1.00  0.00     0.159 HD
HETATM   23  H   UNL     1     -38.369 -49.654  10.406  1.00  0.00     0.159 HD
ENDBRANCH  14  19
ENDBRANCH   2  13
BRANCH   3  24
HETATM   24  C   UNL     1     -44.066 -53.076  12.520  1.00  0.00     0.172 C 
BRANCH  24  25
HETATM   25  C   UNL     1     -45.390 -52.932  13.279  1.00  0.00     0.102 C 
HETATM   26  C   UNL     1     -46.151 -51.647  12.875  1.00  0.00     0.153 C 
HETATM   27  O   UNL     1     -46.933 -51.243  14.021  1.00  0.00    -0.383 OA
HETATM   28  C   UNL     1     -47.082 -51.776  11.680  1.00  0.00     0.042 C 
HETATM   29  C   UNL     1     -46.571 -52.085  15.125  1.00  0.00     0.171 C 
HETATM   30  C   UNL     1     -45.228 -52.689  14.770  1.00  0.00     0.068 C 
BRANCH  25  31
HETATM   31  O   UNL     1     -46.210 -54.096  13.117  1.00  0.00    -0.385 OA
HETATM   32  H   UNL     1     -45.656 -54.897  13.182  1.00  0.00     0.210 HD
ENDBRANCH  25  31
ENDBRANCH  24  25
ENDBRANCH   3  24
TORSDOF 5
ENDMDL
MODEL 3
REMARK VINA RESULT:      -6.7      3.540      7.480
REMARK  5 active torsions:
REMARK  status: ('A' for Active; 'I' for Inactive)
REMARK    1  A    between atoms: N_1  and  C_3 
REMARK    2  A    between atoms: N_4  and  C_11 
REMARK    3  A    between atoms: C_8  and  C_16 
REMARK    4  A    between atoms: C_10  and  C_11 
REMARK    5  A    between atoms: C_10  and  O_25 
REMARK       I    between atoms: C_16  and  N_26 
ROOT
HETATM    1  C   UNL     1     -41.071 -51.023  12.977  1.00  0.00     0.122 A 
HETATM    2  C   UNL     1     -40.613 -49.719  13.308  1.00  0.00     0.136 A 
HETATM    3  N   UNL     1     -42.610 -52.497  12.469  1.00  0.00    -0.324 N 
HETATM    4  C   UNL     1     -42.407 -51.152  12.621  1.00  0.00     0.140 A 
HETATM    5  N   UNL     1     -40.454 -52.270  12.958  1.00  0.00    -0.346 N 
ATOM      6  HN  UNL     1     -39.474 -52.479  13.145  1.00  0.00     0.167 HD
HETATM    7  C   UNL     1     -41.408 -53.121  12.646  1.00  0.00     0.185 A 
HETATM    8  N   UNL     1     -41.527 -48.710  13.192  1.00  0.00    -0.337 N 
ATOM      9  HN  UNL     1     -41.260 -47.751  13.415  1.00  0.00     0.168 HD
HETATM   10  N   UNL     1     -43.326 -50.181  12.493  1.00  0.00    -0.336 N 
ATOM     11  HN  UNL     1     -44.296 -50.330  12.216  1.00  0.00     0.168 HD
HETATM   12  C   UNL     1     -42.784 -48.983  12.784  1.00  0.00     0.183 A 
ENDROOT
BRANCH   2  13
HETATM   13  N   UNL     1     -39.341 -49.406  13.712  1.00  0.00    -0.349 N 
HETATM   14  C   UNL     1     -38.229 -49.017  12.844  1.00  0.00     0.180 C 
HETATM   15  C   UNL     1     -37.104 -48.599  13.811  1.00  0.00     0.073 C 
HETATM   16  C   UNL     1     -37.661 -48.807  15.210  1.00  0.00     0.190 C 
HETATM   17  C   UNL     1     -38.862 -49.732  15.044  1.00  0.00     0.162 C 
HETATM   18  F   UNL     1     -38.088 -47.598  15.680  1.00  0.00    -0.248 F 
BRANCH  14  19
HETATM   19  C   UNL     1     -37.718 -50.205  12.002  1.00  0.00     0.238 C 
HETATM   20  O   UNL     1     -37.439 -51.310  12.462  1.00  0.00    -0.271 OA
HETATM   21  N   UNL     1     -37.553 -49.948  10.669  1.00  0.00    -0.368 N 
HETATM   22  H   UNL     1     -37.344 -50.763  10.109  1.00  0.00     0.159 HD
HETATM   23  H   UNL     1     -38.237 -49.308  10.264  1.00  0.00     0.159 HD
ENDBRANCH  14  19
ENDBRANCH   2  13
BRANCH   3  24
HETATM   24  C   UNL     1     -43.902 -53.144  12.340  1.00  0.00     0.172 C 
BRANCH  24  25
HETATM   25  C   UNL     1     -44.670 -53.317  13.656  1.00  0.00     0.102 C 
HETATM   26  C   UNL     1     -44.671 -54.787  14.136  1.00  0.00     0.153 C 
HETATM   27  O   UNL     1     -45.885 -54.981  14.894  1.00  0.00    -0.383 OA
HETATM   28  C   UNL     1     -43.493 -55.202  15.002  1.00  0.00     0.042 C 
HETATM   29  C   UNL     1     -46.685 -53.797  14.763  1.00  0.00     0.171 C 
HETATM   30  C   UNL     1     -46.165 -53.071  13.539  1.00  0.00     0.068 C 
BRANCH  25  31
HETATM   31  O   UNL     1     -44.165 -52.438  14.669  1.00  0.00    -0.385 OA
HETATM   32  H   UNL     1     -43.223 -52.635  14.832  1.00  0.00     0.210 HD
ENDBRANCH  25  31
ENDBRANCH  24  25
ENDBRANCH   3  24
TORSDOF 5
ENDMDL
MODEL 4
REMARK VINA RESULT:      -6.5      2.901      6.954
REMARK  5 active torsions:
REMARK  status: ('A' for Active; 'I' for Inactive)
REMARK    1  A    between atoms: N_1  and  C_3 
REMARK    2  A    between atoms: N_4  and  C_11 
REMARK    3  A    between atoms: C_8  and  C_16 
REMARK    4  A    between atoms: C_10  and  C_11 
REMARK    5  A    between atoms: C_10  and  O_25 
REMARK       I    between atoms: C_16  and  N_26 
ROOT
HETATM    1  C   UNL     1     -42.360 -49.483  13.052  1.00  0.00     0.122 A 
HETATM    2  C   UNL     1     -41.730 -49.006  11.871  1.00  0.00     0.136 A 
HETATM    3  N   UNL     1     -42.976 -51.046  14.458  1.00  0.00    -0.324 N 
HETATM    4  C   UNL     1     -42.187 -50.826  13.361  1.00  0.00     0.140 A 
HETATM    5  N   UNL     1     -43.179 -48.880  14.002  1.00  0.00    -0.346 N 
ATOM      6  HN  UNL     1     -43.454 -47.900  14.050  1.00  0.00     0.167 HD
HETATM    7  C   UNL     1     -43.521 -49.848  14.825  1.00  0.00     0.185 A 
HETATM    8  N   UNL     1     -40.972 -49.910  11.182  1.00  0.00    -0.337 N 
ATOM      9  HN  UNL     1     -40.494 -49.628  10.326  1.00  0.00     0.168 HD
HETATM   10  N   UNL     1     -41.446 -51.735  12.709  1.00  0.00    -0.336 N 
ATOM     11  HN  UNL     1     -41.344 -52.712  12.987  1.00  0.00     0.168 HD
HETATM   12  C   UNL     1     -40.857 -51.176  11.635  1.00  0.00     0.183 A 
ENDROOT
BRANCH   2  13
HETATM   13  N   UNL     1     -41.816 -47.724  11.391  1.00  0.00    -0.349 N 
HETATM   14  C   UNL     1     -43.043 -47.021  11.018  1.00  0.00     0.180 C 
HETATM   15  C   UNL     1     -42.595 -45.575  10.729  1.00  0.00     0.073 C 
HETATM   16  C   UNL     1     -41.090 -45.557  10.941  1.00  0.00     0.190 C 
HETATM   17  C   UNL     1     -40.648 -47.016  10.894  1.00  0.00     0.162 C 
HETATM   18  F   UNL     1     -40.842 -45.054  12.187  1.00  0.00    -0.248 F 
BRANCH  14  19
HETATM   19  C   UNL     1     -43.663 -47.595   9.728  1.00  0.00     0.238 C 
HETATM   20  O   UNL     1     -43.052 -47.740   8.671  1.00  0.00    -0.271 OA
HETATM   21  N   UNL     1     -44.990 -47.919   9.809  1.00  0.00    -0.368 N 
HETATM   22  H   UNL     1     -45.349 -48.412   9.005  1.00  0.00     0.159 HD
HETATM   23  H   UNL     1     -45.290 -48.287  10.713  1.00  0.00     0.159 HD
ENDBRANCH  14  19
ENDBRANCH   2  13
BRANCH   3  24
HETATM   24  C   UNL     1     -43.319 -52.347  15.000  1.00  0.00     0.172 C 
BRANCH  24  25
HETATM   25  C   UNL     1     -44.418 -53.094  14.235  1.00  0.00     0.102 C 
HETATM   26  C   UNL     1     -45.801 -52.940  14.911  1.00  0.00     0.153 C 
HETATM   27  O   UNL     1     -46.558 -54.128  14.594  1.00  0.00    -0.383 OA
HETATM   28  C   UNL     1     -46.612 -51.726  14.490  1.00  0.00     0.042 C 
HETATM   29  C   UNL     1     -45.684 -55.049  13.927  1.00  0.00     0.171 C 
HETATM   30  C   UNL     1     -44.273 -54.607  14.262  1.00  0.00     0.068 C 
BRANCH  25  31
HETATM   31  O   UNL     1     -44.461 -52.688  12.862  1.00  0.00    -0.385 OA
HETATM   32  H   UNL     1     -43.652 -52.186  12.645  1.00  0.00     0.210 HD
ENDBRANCH  25  31
ENDBRANCH  24  25
ENDBRANCH   3  24
TORSDOF 5
ENDMDL
MODEL 5
REMARK VINA RESULT:      -6.5      1.884      2.527
REMARK  5 active torsions:
REMARK  status: ('A' for Active; 'I' for Inactive)
REMARK    1  A    between atoms: N_1  and  C_3 
REMARK    2  A    between atoms: N_4  and  C_11 
REMARK    3  A    between atoms: C_8  and  C_16 
REMARK    4  A    between atoms: C_10  and  C_11 
REMARK    5  A    between atoms: C_10  and  O_25 
REMARK       I    between atoms: C_16  and  N_26 
ROOT
HETATM    1  C   UNL     1     -43.253 -51.213  13.332  1.00  0.00     0.122 A 
HETATM    2  C   UNL     1     -43.305 -52.633  13.316  1.00  0.00     0.136 A 
HETATM    3  N   UNL     1     -42.383 -49.270  12.814  1.00  0.00    -0.324 N 
HETATM    4  C   UNL     1     -42.297 -50.607  12.529  1.00  0.00     0.140 A 
HETATM    5  N   UNL     1     -43.965 -50.245  14.034  1.00  0.00    -0.346 N 
ATOM      6  HN  UNL     1     -44.745 -50.392  14.674  1.00  0.00     0.167 HD
HETATM    7  C   UNL     1     -43.416 -49.099  13.692  1.00  0.00     0.185 A 
HETATM    8  N   UNL     1     -42.437 -53.260  12.467  1.00  0.00    -0.337 N 
ATOM      9  HN  UNL     1     -42.425 -54.278  12.409  1.00  0.00     0.168 HD
HETATM   10  N   UNL     1     -41.437 -51.194  11.682  1.00  0.00    -0.336 N 
ATOM     11  HN  UNL     1     -40.759 -50.697  11.103  1.00  0.00     0.168 HD
HETATM   12  C   UNL     1     -41.594 -52.530  11.706  1.00  0.00     0.183 A 
ENDROOT
BRANCH   2  13
HETATM   13  N   UNL     1     -44.157 -53.403  14.065  1.00  0.00    -0.349 N 
HETATM   14  C   UNL     1     -44.025 -53.699  15.492  1.00  0.00     0.180 C 
HETATM   15  C   UNL     1     -45.327 -54.435  15.863  1.00  0.00     0.073 C 
HETATM   16  C   UNL     1     -46.129 -54.532  14.575  1.00  0.00     0.190 C 
HETATM   17  C   UNL     1     -45.133 -54.284  13.447  1.00  0.00     0.162 C 
HETATM   18  F   UNL     1     -47.060 -53.533  14.578  1.00  0.00    -0.248 F 
BRANCH  14  19
HETATM   19  C   UNL     1     -42.843 -54.650  15.773  1.00  0.00     0.238 C 
HETATM   20  O   UNL     1     -42.911 -55.876  15.709  1.00  0.00    -0.271 OA
HETATM   21  N   UNL     1     -41.676 -54.040  16.144  1.00  0.00    -0.368 N 
HETATM   22  H   UNL     1     -40.880 -54.659  16.198  1.00  0.00     0.159 HD
HETATM   23  H   UNL     1     -41.497 -53.142  15.694  1.00  0.00     0.159 HD
ENDBRANCH  14  19
ENDBRANCH   2  13
BRANCH   3  24
HETATM   24  C   UNL     1     -41.424 -48.260  12.409  1.00  0.00     0.172 C 
BRANCH  24  25
HETATM   25  C   UNL     1     -41.677 -47.651  11.025  1.00  0.00     0.102 C 
HETATM   26  C   UNL     1     -41.205 -46.180  10.945  1.00  0.00     0.153 C 
HETATM   27  O   UNL     1     -42.042 -45.522   9.970  1.00  0.00    -0.383 OA
HETATM   28  C   UNL     1     -39.752 -45.972  10.550  1.00  0.00     0.042 C 
HETATM   29  C   UNL     1     -43.080 -46.434   9.586  1.00  0.00     0.171 C 
HETATM   30  C   UNL     1     -43.147 -47.479  10.682  1.00  0.00     0.068 C 
BRANCH  25  31
HETATM   31  O   UNL     1     -41.082 -48.446   9.992  1.00  0.00    -0.385 OA
HETATM   32  H   UNL     1     -40.127 -48.547  10.167  1.00  0.00     0.210 HD
ENDBRANCH  25  31
ENDBRANCH  24  25
ENDBRANCH   3  24
TORSDOF 5
ENDMDL
MODEL 6
REMARK VINA RESULT:      -6.4      2.451      3.233
REMARK  5 active torsions:
REMARK  status: ('A' for Active; 'I' for Inactive)
REMARK    1  A    between atoms: N_1  and  C_3 
REMARK    2  A    between atoms: N_4  and  C_11 
REMARK    3  A    between atoms: C_8  and  C_16 
REMARK    4  A    between atoms: C_10  and  C_11 
REMARK    5  A    between atoms: C_10  and  O_25 
REMARK       I    between atoms: C_16  and  N_26 
ROOT
HETATM    1  C   UNL     1     -40.496 -49.688  13.076  1.00  0.00     0.122 A 
HETATM    2  C   UNL     1     -39.865 -50.906  12.708  1.00  0.00     0.136 A 
HETATM    3  N   UNL     1     -40.718 -47.509  13.072  1.00  0.00    -0.324 N 
HETATM    4  C   UNL     1     -40.035 -48.529  12.467  1.00  0.00     0.140 A 
HETATM    5  N   UNL     1     -41.508 -49.378  13.979  1.00  0.00    -0.346 N 
ATOM      6  HN  UNL     1     -42.052 -50.026  14.548  1.00  0.00     0.167 HD
HETATM    7  C   UNL     1     -41.611 -48.066  13.943  1.00  0.00     0.185 A 
HETATM    8  N   UNL     1     -38.895 -50.820  11.749  1.00  0.00    -0.337 N 
ATOM      9  HN  UNL     1     -38.405 -51.660  11.442  1.00  0.00     0.168 HD
HETATM   10  N   UNL     1     -39.091 -48.413  11.519  1.00  0.00    -0.336 N 
ATOM     11  HN  UNL     1     -38.796 -47.533  11.095  1.00  0.00     0.168 HD
HETATM   12  C   UNL     1     -38.587 -49.622  11.209  1.00  0.00     0.183 A 
ENDROOT
BRANCH   2  13
HETATM   13  N   UNL     1     -40.163 -52.141  13.226  1.00  0.00    -0.349 N 
HETATM   14  C   UNL     1     -41.125 -53.098  12.680  1.00  0.00     0.180 C 
HETATM   15  C   UNL     1     -40.934 -54.373  13.524  1.00  0.00     0.073 C 
HETATM   16  C   UNL     1     -39.856 -54.038  14.542  1.00  0.00     0.190 C 
HETATM   17  C   UNL     1     -39.778 -52.515  14.576  1.00  0.00     0.162 C 
HETATM   18  F   UNL     1     -38.669 -54.537  14.085  1.00  0.00    -0.248 F 
BRANCH  14  19
HETATM   19  C   UNL     1     -42.580 -52.617  12.866  1.00  0.00     0.238 C 
HETATM   20  O   UNL     1     -42.974 -51.960  13.826  1.00  0.00    -0.271 OA
HETATM   21  N   UNL     1     -43.453 -53.003  11.886  1.00  0.00    -0.368 N 
HETATM   22  H   UNL     1     -44.366 -52.576  11.949  1.00  0.00     0.159 HD
HETATM   23  H   UNL     1     -43.058 -53.042  10.946  1.00  0.00     0.159 HD
ENDBRANCH  14  19
ENDBRANCH   2  13
BRANCH   3  24
HETATM   24  C   UNL     1     -40.407 -46.097  12.949  1.00  0.00     0.172 C 
BRANCH  24  25
HETATM   25  C   UNL     1     -41.163 -45.366  11.834  1.00  0.00     0.102 C 
HETATM   26  C   UNL     1     -40.290 -44.284  11.155  1.00  0.00     0.153 C 
HETATM   27  O   UNL     1     -41.187 -43.258  10.677  1.00  0.00    -0.383 OA
HETATM   28  C   UNL     1     -39.436 -44.757   9.991  1.00  0.00     0.042 C 
HETATM   29  C   UNL     1     -42.504 -43.558  11.161  1.00  0.00     0.171 C 
HETATM   30  C   UNL     1     -42.317 -44.509  12.326  1.00  0.00     0.068 C 
BRANCH  25  31
HETATM   31  O   UNL     1     -41.689 -46.289  10.873  1.00  0.00    -0.385 OA
HETATM   32  H   UNL     1     -42.654 -46.377  10.998  1.00  0.00     0.210 HD
ENDBRANCH  25  31
ENDBRANCH  24  25
ENDBRANCH   3  24
TORSDOF 5
ENDMDL
MODEL 7
REMARK VINA RESULT:      -6.3      3.136      3.944
REMARK  5 active torsions:
REMARK  status: ('A' for Active; 'I' for Inactive)
REMARK    1  A    between atoms: N_1  and  C_3 
REMARK    2  A    between atoms: N_4  and  C_11 
REMARK    3  A    between atoms: C_8  and  C_16 
REMARK    4  A    between atoms: C_10  and  C_11 
REMARK    5  A    between atoms: C_10  and  O_25 
REMARK       I    between atoms: C_16  and  N_26 
ROOT
HETATM    1  C   UNL     1     -40.273 -50.663  12.705  1.00  0.00     0.122 A 
HETATM    2  C   UNL     1     -39.200 -51.385  13.293  1.00  0.00     0.136 A 
HETATM    3  N   UNL     1     -41.127 -49.104  11.424  1.00  0.00    -0.324 N 
HETATM    4  C   UNL     1     -39.947 -49.725  11.735  1.00  0.00     0.140 A 
HETATM    5  N   UNL     1     -41.649 -50.667  12.916  1.00  0.00    -0.346 N 
ATOM      6  HN  UNL     1     -42.178 -51.269  13.546  1.00  0.00     0.167 HD
HETATM    7  C   UNL     1     -42.121 -49.724  12.128  1.00  0.00     0.185 A 
HETATM    8  N   UNL     1     -37.952 -51.116  12.806  1.00  0.00    -0.337 N 
ATOM      9  HN  UNL     1     -37.140 -51.602  13.187  1.00  0.00     0.168 HD
HETATM   10  N   UNL     1     -38.734 -49.444  11.232  1.00  0.00    -0.336 N 
ATOM     11  HN  UNL     1     -38.551 -48.749  10.508  1.00  0.00     0.168 HD
HETATM   12  C   UNL     1     -37.795 -50.208  11.820  1.00  0.00     0.183 A 
ENDROOT
BRANCH   2  13
HETATM   13  N   UNL     1     -39.327 -52.323  14.285  1.00  0.00    -0.349 N 
HETATM   14  C   UNL     1     -39.438 -53.769  14.098  1.00  0.00     0.180 C 
HETATM   15  C   UNL     1     -39.366 -54.357  15.521  1.00  0.00     0.073 C 
HETATM   16  C   UNL     1     -39.237 -53.165  16.455  1.00  0.00     0.190 C 
HETATM   17  C   UNL     1     -39.685 -51.953  15.644  1.00  0.00     0.162 C 
HETATM   18  F   UNL     1     -37.919 -53.022  16.784  1.00  0.00    -0.248 F 
BRANCH  14  19
HETATM   19  C   UNL     1     -40.798 -54.165  13.487  1.00  0.00     0.238 C 
HETATM   20  O   UNL     1     -41.838 -54.283  14.131  1.00  0.00    -0.271 OA
HETATM   21  N   UNL     1     -40.783 -54.422  12.144  1.00  0.00    -0.368 N 
HETATM   22  H   UNL     1     -41.698 -54.551  11.733  1.00  0.00     0.159 HD
HETATM   23  H   UNL     1     -40.143 -53.842  11.600  1.00  0.00     0.159 HD
ENDBRANCH  14  19
ENDBRANCH   2  13
BRANCH   3  24
HETATM   24  C   UNL     1     -41.259 -47.890  10.642  1.00  0.00     0.172 C 
BRANCH  24  25
HETATM   25  C   UNL     1     -40.939 -46.597  11.403  1.00  0.00     0.102 C 
HETATM   26  C   UNL     1     -42.220 -45.819  11.785  1.00  0.00     0.153 C 
HETATM   27  O   UNL     1     -41.863 -44.421  11.839  1.00  0.00    -0.383 OA
HETATM   28  C   UNL     1     -42.859 -46.204  13.109  1.00  0.00     0.042 C 
HETATM   29  C   UNL     1     -40.518 -44.286  11.359  1.00  0.00     0.171 C 
HETATM   30  C   UNL     1     -40.226 -45.546  10.569  1.00  0.00     0.068 C 
BRANCH  25  31
HETATM   31  O   UNL     1     -40.127 -46.860  12.553  1.00  0.00    -0.385 OA
HETATM   32  H   UNL     1     -39.751 -47.759  12.489  1.00  0.00     0.210 HD
ENDBRANCH  25  31
ENDBRANCH  24  25
ENDBRANCH   3  24
TORSDOF 5
ENDMDL
MODEL 8
REMARK VINA RESULT:      -6.2      3.062      7.481
REMARK  5 active torsions:
REMARK  status: ('A' for Active; 'I' for Inactive)
REMARK    1  A    between atoms: N_1  and  C_3 
REMARK    2  A    between atoms: N_4  and  C_11 
REMARK    3  A    between atoms: C_8  and  C_16 
REMARK    4  A    between atoms: C_10  and  C_11 
REMARK    5  A    between atoms: C_10  and  O_25 
REMARK       I    between atoms: C_16  and  N_26 
ROOT
HETATM    1  C   UNL     1     -41.664 -49.656  12.702  1.00  0.00     0.122 A 
HETATM    2  C   UNL     1     -41.561 -48.268  12.987  1.00  0.00     0.136 A 
HETATM    3  N   UNL     1     -41.852 -51.768  13.253  1.00  0.00    -0.324 N 
HETATM    4  C   UNL     1     -41.917 -50.503  13.772  1.00  0.00     0.140 A 
HETATM    5  N   UNL     1     -41.531 -50.398  11.532  1.00  0.00    -0.346 N 
ATOM      6  HN  UNL     1     -41.373 -50.045  10.589  1.00  0.00     0.167 HD
HETATM    7  C   UNL     1     -41.655 -51.654  11.906  1.00  0.00     0.185 A 
HETATM    8  N   UNL     1     -41.773 -47.900  14.285  1.00  0.00    -0.337 N 
ATOM      9  HN  UNL     1     -41.714 -46.917  14.554  1.00  0.00     0.168 HD
HETATM   10  N   UNL     1     -42.135 -50.172  15.055  1.00  0.00    -0.336 N 
ATOM     11  HN  UNL     1     -42.328 -50.837  15.804  1.00  0.00     0.168 HD
HETATM   12  C   UNL     1     -42.061 -48.837  15.213  1.00  0.00     0.183 A 
ENDROOT
BRANCH   2  13
HETATM   13  N   UNL     1     -41.285 -47.289  12.067  1.00  0.00    -0.349 N 
HETATM   14  C   UNL     1     -42.266 -46.472  11.353  1.00  0.00     0.180 C 
HETATM   15  C   UNL     1     -41.428 -45.421  10.599  1.00  0.00     0.073 C 
HETATM   16  C   UNL     1     -39.977 -45.735  10.927  1.00  0.00     0.190 C 
HETATM   17  C   UNL     1     -39.972 -47.165  11.455  1.00  0.00     0.162 C 
HETATM   18  F   UNL     1     -39.573 -44.889  11.921  1.00  0.00    -0.248 F 
BRANCH  14  19
HETATM   19  C   UNL     1     -43.047 -47.296  10.309  1.00  0.00     0.238 C 
HETATM   20  O   UNL     1     -42.526 -48.054   9.494  1.00  0.00    -0.271 OA
HETATM   21  N   UNL     1     -44.402 -47.111  10.312  1.00  0.00    -0.368 N 
HETATM   22  H   UNL     1     -44.913 -47.748   9.718  1.00  0.00     0.159 HD
HETATM   23  H   UNL     1     -44.815 -46.953  11.233  1.00  0.00     0.159 HD
ENDBRANCH  14  19
ENDBRANCH   2  13
BRANCH   3  24
HETATM   24  C   UNL     1     -41.805 -52.994  14.026  1.00  0.00     0.172 C 
BRANCH  24  25
HETATM   25  C   UNL     1     -43.175 -53.573  14.399  1.00  0.00     0.102 C 
HETATM   26  C   UNL     1     -43.059 -54.994  14.998  1.00  0.00     0.153 C 
HETATM   27  O   UNL     1     -44.286 -55.687  14.680  1.00  0.00    -0.383 OA
HETATM   28  C   UNL     1     -42.844 -55.064  16.501  1.00  0.00     0.042 C 
HETATM   29  C   UNL     1     -45.052 -54.852  13.800  1.00  0.00     0.171 C 
HETATM   30  C   UNL     1     -44.075 -53.857  13.208  1.00  0.00     0.068 C 
BRANCH  25  31
HETATM   31  O   UNL     1     -43.887 -52.693  15.278  1.00  0.00    -0.385 OA
HETATM   32  H   UNL     1     -43.788 -51.773  14.969  1.00  0.00     0.210 HD
ENDBRANCH  25  31
ENDBRANCH  24  25
ENDBRANCH   3  24
TORSDOF 5
ENDMDL
MODEL 9
REMARK VINA RESULT:      -6.0      1.763      2.572
REMARK  5 active torsions:
REMARK  status: ('A' for Active; 'I' for Inactive)
REMARK    1  A    between atoms: N_1  and  C_3 
REMARK    2  A    between atoms: N_4  and  C_11 
REMARK    3  A    between atoms: C_8  and  C_16 
REMARK    4  A    between atoms: C_10  and  C_11 
REMARK    5  A    between atoms: C_10  and  O_25 
REMARK       I    between atoms: C_16  and  N_26 
ROOT
HETATM    1  C   UNL     1     -42.814 -50.829  12.962  1.00  0.00     0.122 A 
HETATM    2  C   UNL     1     -42.868 -52.241  12.818  1.00  0.00     0.136 A 
HETATM    3  N   UNL     1     -41.880 -48.862  12.723  1.00  0.00    -0.324 N 
HETATM    4  C   UNL     1     -41.763 -50.170  12.338  1.00  0.00     0.140 A 
HETATM    5  N   UNL     1     -43.606 -49.913  13.648  1.00  0.00    -0.346 N 
ATOM      6  HN  UNL     1     -44.460 -50.102  14.172  1.00  0.00     0.167 HD
HETATM    7  C   UNL     1     -43.014 -48.750  13.476  1.00  0.00     0.185 A 
HETATM    8  N   UNL     1     -41.902 -52.807  12.035  1.00  0.00    -0.337 N 
ATOM      9  HN  UNL     1     -41.887 -53.817  11.893  1.00  0.00     0.168 HD
HETATM   10  N   UNL     1     -40.805 -50.697  11.558  1.00  0.00    -0.336 N 
ATOM     11  HN  UNL     1     -40.058 -50.163  11.112  1.00  0.00     0.168 HD
HETATM   12  C   UNL     1     -40.969 -52.028  11.449  1.00  0.00     0.183 A 
ENDROOT
BRANCH   2  13
HETATM   13  N   UNL     1     -43.810 -53.060  13.388  1.00  0.00    -0.349 N 
HETATM   14  C   UNL     1     -45.077 -53.471  12.783  1.00  0.00     0.180 C 
HETATM   15  C   UNL     1     -45.653 -54.522  13.752  1.00  0.00     0.073 C 
HETATM   16  C   UNL     1     -44.653 -54.625  14.893  1.00  0.00     0.190 C 
HETATM   17  C   UNL     1     -43.797 -53.365  14.808  1.00  0.00     0.162 C 
HETATM   18  F   UNL     1     -43.865 -55.717  14.670  1.00  0.00    -0.248 F 
BRANCH  14  19
HETATM   19  C   UNL     1     -46.078 -52.300  12.698  1.00  0.00     0.238 C 
HETATM   20  O   UNL     1     -46.287 -51.502  13.609  1.00  0.00    -0.271 OA
HETATM   21  N   UNL     1     -46.775 -52.210  11.525  1.00  0.00    -0.368 N 
HETATM   22  H   UNL     1     -47.328 -51.370  11.432  1.00  0.00     0.159 HD
HETATM   23  H   UNL     1     -46.253 -52.480  10.690  1.00  0.00     0.159 HD
ENDBRANCH  14  19
ENDBRANCH   2  13
BRANCH   3  24
HETATM   24  C   UNL     1     -40.875 -47.834  12.527  1.00  0.00     0.172 C 
BRANCH  24  25
HETATM   25  C   UNL     1     -40.091 -47.453  13.788  1.00  0.00     0.102 C 
HETATM   26  C   UNL     1     -38.851 -46.588  13.459  1.00  0.00     0.153 C 
HETATM   27  O   UNL     1     -37.869 -46.852  14.485  1.00  0.00    -0.383 OA
HETATM   28  C   UNL     1     -39.088 -45.088  13.395  1.00  0.00     0.042 C 
HETATM   29  C   UNL     1     -38.357 -47.925  15.302  1.00  0.00     0.171 C 
HETATM   30  C   UNL     1     -39.421 -48.627  14.482  1.00  0.00     0.068 C 
BRANCH  25  31
HETATM   31  O   UNL     1     -40.936 -46.808  14.749  1.00  0.00    -0.385 OA
HETATM   32  H   UNL     1     -41.527 -46.178  14.293  1.00  0.00     0.210 HD
ENDBRANCH  25  31
ENDBRANCH  24  25
ENDBRANCH   3  24
TORSDOF 5
ENDMDL
