MODEL 1
REMARK VINA RESULT:      -5.2      0.000      0.000
REMARK  5 active torsions:
REMARK  status: ('A' for Active; 'I' for Inactive)
REMARK    1  A    between atoms: C_2  and  C_3 
REMARK       I    between atoms: C_2  and  N_13 
REMARK    2  A    between atoms: C_3  and  N_4 
REMARK    3  A    between atoms: N_4  and  C_5 
REMARK    4  A    between atoms: C_5  and  C_6 
REMARK    5  A    between atoms: C_6  and  N_7 
ROOT
HETATM    1  N   UNL     1     -42.151 -51.850  11.810  1.00  0.00     0.093 N 
HETATM    2  H   UNL     1     -43.011 -51.590  11.317  1.00  0.00     0.316 HD
ENDROOT
BRANCH   1   3
HETATM    3  C   UNL     1     -42.536 -52.792  12.877  1.00  0.00     0.372 C 
BRANCH   3   4
HETATM    4  C   UNL     1     -44.038 -53.074  12.844  1.00  0.00     0.247 C 
HETATM    5  O   UNL     1     -44.482 -54.061  12.255  1.00  0.00    -0.271 OA
HETATM    6  N   UNL     1     -44.854 -52.143  13.457  1.00  0.00    -0.351 N 
HETATM    7  C   UNL     1     -46.293 -52.173  13.278  1.00  0.00     0.126 C 
HETATM    8  C   UNL     1     -44.485 -51.343  14.614  1.00  0.00     0.126 C 
HETATM    9  C   UNL     1     -46.863 -51.374  14.444  1.00  0.00     0.021 C 
HETATM   10  C   UNL     1     -45.740 -51.375  15.473  1.00  0.00     0.021 C 
ENDBRANCH   3   4
ENDBRANCH   1   3
BRANCH   1  11
HETATM   11  C   UNL     1     -41.548 -50.636  12.391  1.00  0.00     0.291 C 
BRANCH  11  12
HETATM   12  C   UNL     1     -40.939 -49.708  11.332  1.00  0.00     0.178 C 
BRANCH  12  13
HETATM   13  N   UNL     1     -41.888 -48.712  10.879  1.00  0.00    -0.302 N 
HETATM   14  C   UNL     1     -42.814 -48.059  11.632  1.00  0.00     0.111 A 
HETATM   15  C   UNL     1     -43.530 -47.272  10.761  1.00  0.00     0.037 A 
HETATM   16  C   UNL     1     -42.963 -47.531   9.500  1.00  0.00     0.108 A 
HETATM   17  N   UNL     1     -41.958 -48.406   9.568  1.00  0.00    -0.310 N 
ATOM     18  HN  UNL     1     -41.378 -48.760   8.807  1.00  0.00     0.186 HD
ENDBRANCH  12  13
ENDBRANCH  11  12
ENDBRANCH   1  11
TORSDOF 5
ENDMDL
MODEL 2
REMARK VINA RESULT:      -5.2      2.352      3.117
REMARK  5 active torsions:
REMARK  status: ('A' for Active; 'I' for Inactive)
REMARK    1  A    between atoms: C_2  and  C_3 
REMARK       I    between atoms: C_2  and  N_13 
REMARK    2  A    between atoms: C_3  and  N_4 
REMARK    3  A    between atoms: N_4  and  C_5 
REMARK    4  A    between atoms: C_5  and  C_6 
REMARK    5  A    between atoms: C_6  and  N_7 
ROOT
HETATM    1  N   UNL     1     -42.838 -52.669  11.733  1.00  0.00     0.093 N 
HETATM    2  H   UNL     1     -43.344 -51.799  11.542  1.00  0.00     0.316 HD
ENDROOT
BRANCH   1   3
HETATM    3  C   UNL     1     -43.602 -53.393  12.766  1.00  0.00     0.372 C 
BRANCH   3   4
HETATM    4  C   UNL     1     -45.035 -52.869  12.856  1.00  0.00     0.247 C 
HETATM    5  O   UNL     1     -45.811 -52.985  11.905  1.00  0.00    -0.271 OA
HETATM    6  N   UNL     1     -45.383 -52.222  14.026  1.00  0.00    -0.351 N 
HETATM    7  C   UNL     1     -46.621 -51.473  14.130  1.00  0.00     0.126 C 
HETATM    8  C   UNL     1     -44.840 -52.525  15.340  1.00  0.00     0.126 C 
HETATM    9  C   UNL     1     -46.894 -51.349  15.624  1.00  0.00     0.021 C 
HETATM   10  C   UNL     1     -46.063 -52.464  16.243  1.00  0.00     0.021 C 
ENDBRANCH   3   4
ENDBRANCH   1   3
BRANCH   1  11
HETATM   11  C   UNL     1     -41.489 -52.338  12.230  1.00  0.00     0.291 C 
BRANCH  11  12
HETATM   12  C   UNL     1     -41.100 -50.878  11.969  1.00  0.00     0.178 C 
BRANCH  12  13
HETATM   13  N   UNL     1     -39.665 -50.689  12.001  1.00  0.00    -0.302 N 
HETATM   14  C   UNL     1     -38.806 -51.087  12.980  1.00  0.00     0.111 A 
HETATM   15  C   UNL     1     -37.565 -50.625  12.611  1.00  0.00     0.037 A 
HETATM   16  C   UNL     1     -37.783 -49.950  11.396  1.00  0.00     0.108 A 
HETATM   17  N   UNL     1     -39.062 -49.990  11.018  1.00  0.00    -0.310 N 
ATOM     18  HN  UNL     1     -39.485 -49.588  10.182  1.00  0.00     0.186 HD
ENDBRANCH  12  13
ENDBRANCH  11  12
ENDBRANCH   1  11
TORSDOF 5
ENDMDL
MODEL 3
REMARK VINA RESULT:      -5.0      4.640      6.072
REMARK  5 active torsions:
REMARK  status: ('A' for Active; 'I' for Inactive)
REMARK    1  A    between atoms: C_2  and  C_3 
REMARK       I    between atoms: C_2  and  N_13 
REMARK    2  A    between atoms: C_3  and  N_4 
REMARK    3  A    between atoms: N_4  and  C_5 
REMARK    4  A    between atoms: C_5  and  C_6 
REMARK    5  A    between atoms: C_6  and  N_7 
ROOT
HETATM    1  N   UNL     1     -41.430 -46.525  10.054  1.00  0.00     0.093 N 
HETATM    2  H   UNL     1     -41.186 -46.737   9.082  1.00  0.00     0.316 HD
ENDROOT
BRANCH   1   3
HETATM    3  C   UNL     1     -41.371 -47.796  10.800  1.00  0.00     0.372 C 
BRANCH   3   4
HETATM    4  C   UNL     1     -40.101 -47.877  11.647  1.00  0.00     0.247 C 
HETATM    5  O   UNL     1     -39.634 -46.870  12.182  1.00  0.00    -0.271 OA
HETATM    6  N   UNL     1     -39.493 -49.114  11.729  1.00  0.00    -0.351 N 
HETATM    7  C   UNL     1     -38.164 -49.261  12.291  1.00  0.00     0.126 C 
HETATM    8  C   UNL     1     -40.187 -50.391  11.682  1.00  0.00     0.126 C 
HETATM    9  C   UNL     1     -38.045 -50.732  12.670  1.00  0.00     0.021 C 
HETATM   10  C   UNL     1     -39.490 -51.206  12.760  1.00  0.00     0.021 C 
ENDBRANCH   3   4
ENDBRANCH   1   3
BRANCH   1  11
HETATM   11  C   UNL     1     -42.797 -45.971  10.093  1.00  0.00     0.291 C 
BRANCH  11  12
HETATM   12  C   UNL     1     -43.497 -46.016   8.728  1.00  0.00     0.178 C 
BRANCH  12  13
HETATM   13  N   UNL     1     -44.727 -46.777   8.778  1.00  0.00    -0.302 N 
HETATM   14  C   UNL     1     -44.936 -48.034   8.298  1.00  0.00     0.111 A 
HETATM   15  C   UNL     1     -46.268 -48.306   8.503  1.00  0.00     0.037 A 
HETATM   16  C   UNL     1     -46.780 -47.143   9.107  1.00  0.00     0.108 A 
HETATM   17  N   UNL     1     -45.843 -46.209   9.280  1.00  0.00    -0.310 N 
ATOM     18  HN  UNL     1     -45.946 -45.282   9.694  1.00  0.00     0.186 HD
ENDBRANCH  12  13
ENDBRANCH  11  12
ENDBRANCH   1  11
TORSDOF 5
ENDMDL
MODEL 4
REMARK VINA RESULT:      -4.9      2.036      2.455
REMARK  5 active torsions:
REMARK  status: ('A' for Active; 'I' for Inactive)
REMARK    1  A    between atoms: C_2  and  C_3 
REMARK       I    between atoms: C_2  and  N_13 
REMARK    2  A    between atoms: C_3  and  N_4 
REMARK    3  A    between atoms: N_4  and  C_5 
REMARK    4  A    between atoms: C_5  and  C_6 
REMARK    5  A    between atoms: C_6  and  N_7 
ROOT
HETATM    1  N   UNL     1     -41.871 -50.931  11.803  1.00  0.00     0.093 N 
HETATM    2  H   UNL     1     -42.313 -50.694  12.697  1.00  0.00     0.316 HD
ENDROOT
BRANCH   1   3
HETATM    3  C   UNL     1     -41.421 -52.332  11.905  1.00  0.00     0.372 C 
BRANCH   3   4
HETATM    4  C   UNL     1     -41.763 -52.920  13.274  1.00  0.00     0.247 C 
HETATM    5  O   UNL     1     -41.078 -52.655  14.263  1.00  0.00    -0.271 OA
HETATM    6  N   UNL     1     -42.834 -53.791  13.321  1.00  0.00    -0.351 N 
HETATM    7  C   UNL     1     -43.097 -54.594  14.499  1.00  0.00     0.126 C 
HETATM    8  C   UNL     1     -44.004 -53.722  12.460  1.00  0.00     0.126 C 
HETATM    9  C   UNL     1     -44.558 -55.012  14.388  1.00  0.00     0.021 C 
HETATM   10  C   UNL     1     -45.155 -54.002  13.415  1.00  0.00     0.021 C 
ENDBRANCH   3   4
ENDBRANCH   1   3
BRANCH   1  11
HETATM   11  C   UNL     1     -40.718 -50.037  11.589  1.00  0.00     0.291 C 
BRANCH  11  12
HETATM   12  C   UNL     1     -41.053 -48.561  11.838  1.00  0.00     0.178 C 
BRANCH  12  13
HETATM   13  N   UNL     1     -42.102 -48.090  10.957  1.00  0.00    -0.302 N 
HETATM   14  C   UNL     1     -43.334 -47.637  11.318  1.00  0.00     0.111 A 
HETATM   15  C   UNL     1     -44.004 -47.375  10.146  1.00  0.00     0.037 A 
HETATM   16  C   UNL     1     -43.090 -47.713   9.131  1.00  0.00     0.108 A 
HETATM   17  N   UNL     1     -41.927 -48.146   9.622  1.00  0.00    -0.310 N 
ATOM     18  HN  UNL     1     -41.099 -48.448   9.107  1.00  0.00     0.186 HD
ENDBRANCH  12  13
ENDBRANCH  11  12
ENDBRANCH   1  11
TORSDOF 5
ENDMDL
MODEL 5
REMARK VINA RESULT:      -4.8      3.032      5.968
REMARK  5 active torsions:
REMARK  status: ('A' for Active; 'I' for Inactive)
REMARK    1  A    between atoms: C_2  and  C_3 
REMARK       I    between atoms: C_2  and  N_13 
REMARK    2  A    between atoms: C_3  and  N_4 
REMARK    3  A    between atoms: N_4  and  C_5 
REMARK    4  A    between atoms: C_5  and  C_6 
REMARK    5  A    between atoms: C_6  and  N_7 
ROOT
HETATM    1  N   UNL     1     -42.051 -53.899  12.485  1.00  0.00     0.093 N 
HETATM    2  H   UNL     1     -41.267 -54.536  12.658  1.00  0.00     0.316 HD
ENDROOT
BRANCH   1   3
HETATM    3  C   UNL     1     -41.473 -52.571  12.211  1.00  0.00     0.372 C 
BRANCH   3   4
HETATM    4  C   UNL     1     -40.106 -52.419  12.880  1.00  0.00     0.247 C 
HETATM    5  O   UNL     1     -39.560 -53.380  13.425  1.00  0.00    -0.271 OA
HETATM    6  N   UNL     1     -39.559 -51.150  12.882  1.00  0.00    -0.351 N 
HETATM    7  C   UNL     1     -38.398 -50.836  13.693  1.00  0.00     0.126 C 
HETATM    8  C   UNL     1     -39.761 -50.152  11.844  1.00  0.00     0.126 C 
HETATM    9  C   UNL     1     -37.804 -49.574  13.078  1.00  0.00     0.021 C 
HETATM   10  C   UNL     1     -38.375 -49.551  11.665  1.00  0.00     0.021 C 
ENDBRANCH   3   4
ENDBRANCH   1   3
BRANCH   1  11
HETATM   11  C   UNL     1     -42.900 -53.850  13.690  1.00  0.00     0.291 C 
BRANCH  11  12
HETATM   12  C   UNL     1     -44.357 -54.241  13.410  1.00  0.00     0.178 C 
BRANCH  12  13
HETATM   13  N   UNL     1     -45.233 -53.089  13.411  1.00  0.00    -0.302 N 
HETATM   14  C   UNL     1     -45.834 -52.515  14.490  1.00  0.00     0.111 A 
HETATM   15  C   UNL     1     -46.625 -51.505  13.996  1.00  0.00     0.037 A 
HETATM   16  C   UNL     1     -46.439 -51.557  12.602  1.00  0.00     0.108 A 
HETATM   17  N   UNL     1     -45.588 -52.519  12.241  1.00  0.00    -0.310 N 
ATOM     18  HN  UNL     1     -45.278 -52.766  11.301  1.00  0.00     0.186 HD
ENDBRANCH  12  13
ENDBRANCH  11  12
ENDBRANCH   1  11
TORSDOF 5
ENDMDL
MODEL 6
REMARK VINA RESULT:      -4.7      2.905      3.556
REMARK  5 active torsions:
REMARK  status: ('A' for Active; 'I' for Inactive)
REMARK    1  A    between atoms: C_2  and  C_3 
REMARK       I    between atoms: C_2  and  N_13 
REMARK    2  A    between atoms: C_3  and  N_4 
REMARK    3  A    between atoms: N_4  and  C_5 
REMARK    4  A    between atoms: C_5  and  C_6 
REMARK    5  A    between atoms: C_6  and  N_7 
ROOT
HETATM    1  N   UNL     1     -38.325 -51.920  13.652  1.00  0.00     0.093 N 
HETATM    2  H   UNL     1     -38.367 -52.473  12.790  1.00  0.00     0.316 HD
ENDROOT
BRANCH   1   3
HETATM    3  C   UNL     1     -39.683 -51.918  14.227  1.00  0.00     0.372 C 
BRANCH   3   4
HETATM    4  C   UNL     1     -40.661 -52.671  13.326  1.00  0.00     0.247 C 
HETATM    5  O   UNL     1     -40.457 -52.768  12.115  1.00  0.00    -0.271 OA
HETATM    6  N   UNL     1     -41.793 -53.179  13.935  1.00  0.00    -0.351 N 
HETATM    7  C   UNL     1     -42.901 -53.690  13.150  1.00  0.00     0.126 C 
HETATM    8  C   UNL     1     -41.864 -53.646  15.310  1.00  0.00     0.126 C 
HETATM    9  C   UNL     1     -43.690 -54.585  14.098  1.00  0.00     0.021 C 
HETATM   10  C   UNL     1     -42.695 -54.915  15.204  1.00  0.00     0.021 C 
ENDBRANCH   3   4
ENDBRANCH   1   3
BRANCH   1  11
HETATM   11  C   UNL     1     -37.909 -50.545  13.317  1.00  0.00     0.291 C 
BRANCH  11  12
HETATM   12  C   UNL     1     -38.062 -50.223  11.825  1.00  0.00     0.178 C 
BRANCH  12  13
HETATM   13  N   UNL     1     -39.240 -49.423  11.563  1.00  0.00    -0.302 N 
HETATM   14  C   UNL     1     -39.531 -48.197  12.080  1.00  0.00     0.111 A 
HETATM   15  C   UNL     1     -40.780 -47.869  11.608  1.00  0.00     0.037 A 
HETATM   16  C   UNL     1     -41.163 -48.971  10.821  1.00  0.00     0.108 A 
HETATM   17  N   UNL     1     -40.224 -49.919  10.787  1.00  0.00    -0.310 N 
ATOM     18  HN  UNL     1     -40.246 -50.810  10.291  1.00  0.00     0.186 HD
ENDBRANCH  12  13
ENDBRANCH  11  12
ENDBRANCH   1  11
TORSDOF 5
ENDMDL
MODEL 7
REMARK VINA RESULT:      -4.6      3.605      4.969
REMARK  5 active torsions:
REMARK  status: ('A' for Active; 'I' for Inactive)
REMARK    1  A    between atoms: C_2  and  C_3 
REMARK       I    between atoms: C_2  and  N_13 
REMARK    2  A    between atoms: C_3  and  N_4 
REMARK    3  A    between atoms: N_4  and  C_5 
REMARK    4  A    between atoms: C_5  and  C_6 
REMARK    5  A    between atoms: C_6  and  N_7 
ROOT
HETATM    1  N   UNL     1     -42.564 -54.052  12.732  1.00  0.00     0.093 N 
HETATM    2  H   UNL     1     -42.156 -54.551  11.936  1.00  0.00     0.316 HD
ENDROOT
BRANCH   1   3
HETATM    3  C   UNL     1     -44.012 -53.944  12.474  1.00  0.00     0.372 C 
BRANCH   3   4
HETATM    4  C   UNL     1     -44.817 -54.189  13.751  1.00  0.00     0.247 C 
HETATM    5  O   UNL     1     -44.663 -55.221  14.405  1.00  0.00    -0.271 OA
HETATM    6  N   UNL     1     -45.747 -53.224  14.087  1.00  0.00    -0.351 N 
HETATM    7  C   UNL     1     -46.732 -53.462  15.126  1.00  0.00     0.126 C 
HETATM    8  C   UNL     1     -45.620 -51.805  13.798  1.00  0.00     0.126 C 
HETATM    9  C   UNL     1     -47.213 -52.080  15.551  1.00  0.00     0.021 C 
HETATM   10  C   UNL     1     -46.107 -51.145  15.079  1.00  0.00     0.021 C 
ENDBRANCH   3   4
ENDBRANCH   1   3
BRANCH   1  11
HETATM   11  C   UNL     1     -41.958 -52.710  12.816  1.00  0.00     0.291 C 
BRANCH  11  12
HETATM   12  C   UNL     1     -40.426 -52.752  12.899  1.00  0.00     0.178 C 
BRANCH  12  13
HETATM   13  N   UNL     1     -39.968 -53.591  13.986  1.00  0.00    -0.302 N 
HETATM   14  C   UNL     1     -40.234 -53.434  15.311  1.00  0.00     0.111 A 
HETATM   15  C   UNL     1     -39.528 -54.418  15.963  1.00  0.00     0.037 A 
HETATM   16  C   UNL     1     -38.858 -55.112  14.938  1.00  0.00     0.108 A 
HETATM   17  N   UNL     1     -39.127 -54.614  13.730  1.00  0.00    -0.310 N 
ATOM     18  HN  UNL     1     -38.778 -54.931  12.826  1.00  0.00     0.186 HD
ENDBRANCH  12  13
ENDBRANCH  11  12
ENDBRANCH   1  11
TORSDOF 5
ENDMDL
MODEL 8
REMARK VINA RESULT:      -4.5      1.485      2.076
REMARK  5 active torsions:
REMARK  status: ('A' for Active; 'I' for Inactive)
REMARK    1  A    between atoms: C_2  and  C_3 
REMARK       I    between atoms: C_2  and  N_13 
REMARK    2  A    between atoms: C_3  and  N_4 
REMARK    3  A    between atoms: N_4  and  C_5 
REMARK    4  A    between atoms: C_5  and  C_6 
REMARK    5  A    between atoms: C_6  and  N_7 
ROOT
HETATM    1  N   UNL     1     -41.862 -49.787  11.504  1.00  0.00     0.093 N 
HETATM    2  H   UNL     1     -42.782 -49.978  11.096  1.00  0.00     0.316 HD
ENDROOT
BRANCH   1   3
HETATM    3  C   UNL     1     -41.783 -50.554  12.761  1.00  0.00     0.372 C 
BRANCH   3   4
HETATM    4  C   UNL     1     -42.790 -51.703  12.768  1.00  0.00     0.247 C 
HETATM    5  O   UNL     1     -42.491 -52.807  12.310  1.00  0.00    -0.271 OA
HETATM    6  N   UNL     1     -44.049 -51.417  13.260  1.00  0.00    -0.351 N 
HETATM    7  C   UNL     1     -45.150 -52.345  13.090  1.00  0.00     0.126 C 
HETATM    8  C   UNL     1     -44.336 -50.447  14.305  1.00  0.00     0.126 C 
HETATM    9  C   UNL     1     -46.177 -51.955  14.146  1.00  0.00     0.021 C 
HETATM   10  C   UNL     1     -45.370 -51.159  15.164  1.00  0.00     0.021 C 
ENDBRANCH   3   4
ENDBRANCH   1   3
BRANCH   1  11
HETATM   11  C   UNL     1     -41.752 -48.342  11.777  1.00  0.00     0.291 C 
BRANCH  11  12
HETATM   12  C   UNL     1     -41.797 -47.489  10.502  1.00  0.00     0.178 C 
BRANCH  12  13
HETATM   13  N   UNL     1     -43.090 -47.556   9.854  1.00  0.00    -0.302 N 
HETATM   14  C   UNL     1     -43.333 -47.687   8.521  1.00  0.00     0.111 A 
HETATM   15  C   UNL     1     -44.699 -47.628   8.374  1.00  0.00     0.037 A 
HETATM   16  C   UNL     1     -45.190 -47.451   9.681  1.00  0.00     0.108 A 
HETATM   17  N   UNL     1     -44.212 -47.411  10.587  1.00  0.00    -0.310 N 
ATOM     18  HN  UNL     1     -44.293 -47.297  11.598  1.00  0.00     0.186 HD
ENDBRANCH  12  13
ENDBRANCH  11  12
ENDBRANCH   1  11
TORSDOF 5
ENDMDL
MODEL 9
REMARK VINA RESULT:      -4.4      3.540      6.762
REMARK  5 active torsions:
REMARK  status: ('A' for Active; 'I' for Inactive)
REMARK    1  A    between atoms: C_2  and  C_3 
REMARK       I    between atoms: C_2  and  N_13 
REMARK    2  A    between atoms: C_3  and  N_4 
REMARK    3  A    between atoms: N_4  and  C_5 
REMARK    4  A    between atoms: C_5  and  C_6 
REMARK    5  A    between atoms: C_6  and  N_7 
ROOT
HETATM    1  N   UNL     1     -41.933 -49.740  11.468  1.00  0.00     0.093 N 
HETATM    2  H   UNL     1     -42.453 -50.111  10.667  1.00  0.00     0.316 HD
ENDROOT
BRANCH   1   3
HETATM    3  C   UNL     1     -40.538 -49.557  11.027  1.00  0.00     0.372 C 
BRANCH   3   4
HETATM    4  C   UNL     1     -39.765 -48.672  12.005  1.00  0.00     0.247 C 
HETATM    5  O   UNL     1     -38.935 -49.158  12.776  1.00  0.00    -0.271 OA
HETATM    6  N   UNL     1     -40.088 -47.329  12.008  1.00  0.00    -0.351 N 
HETATM    7  C   UNL     1     -39.606 -46.443  13.051  1.00  0.00     0.126 C 
HETATM    8  C   UNL     1     -40.542 -46.577  10.849  1.00  0.00     0.126 C 
HETATM    9  C   UNL     1     -39.721 -45.038  12.474  1.00  0.00     0.021 C 
HETATM   10  C   UNL     1     -39.785 -45.263  10.969  1.00  0.00     0.021 C 
ENDBRANCH   3   4
ENDBRANCH   1   3
BRANCH   1  11
HETATM   11  C   UNL     1     -41.998 -50.715  12.572  1.00  0.00     0.291 C 
BRANCH  11  12
HETATM   12  C   UNL     1     -41.760 -52.158  12.108  1.00  0.00     0.178 C 
BRANCH  12  13
HETATM   13  N   UNL     1     -40.729 -52.811  12.886  1.00  0.00    -0.302 N 
HETATM   14  C   UNL     1     -40.617 -54.142  13.147  1.00  0.00     0.111 A 
HETATM   15  C   UNL     1     -39.532 -54.279  13.981  1.00  0.00     0.037 A 
HETATM   16  C   UNL     1     -39.062 -52.967  14.171  1.00  0.00     0.108 A 
HETATM   17  N   UNL     1     -39.786 -52.068  13.501  1.00  0.00    -0.310 N 
ATOM     18  HN  UNL     1     -39.658 -51.057  13.464  1.00  0.00     0.186 HD
ENDBRANCH  12  13
ENDBRANCH  11  12
ENDBRANCH   1  11
TORSDOF 5
ENDMDL
