MODEL 1
REMARK VINA RESULT:      -5.9      0.000      0.000
REMARK  6 active torsions:
REMARK  status: ('A' for Active; 'I' for Inactive)
REMARK    1  A    between atoms: O_2  and  C_3 
REMARK    2  A    between atoms: C_3  and  C_4 
REMARK    3  A    between atoms: C_4  and  N_5 
REMARK    4  A    between atoms: C_6  and  S_7 
REMARK    5  A    between atoms: S_7  and  C_8 
REMARK    6  A    between atoms: C_8  and  C_10 
REMARK       I    between atoms: C_10  and  N_12 
ROOT
HETATM    1  N   UNL     1     -40.335 -51.842  13.140  1.00  0.00    -0.324 N 
HETATM    2  C   UNL     1     -40.736 -50.980  12.147  1.00  0.00     0.148 A 
HETATM    3  N   UNL     1     -41.966 -51.222  11.759  1.00  0.00    -0.335 N 
ATOM      4  HN  UNL     1     -42.509 -50.706  11.067  1.00  0.00     0.168 HD
HETATM    5  C   UNL     1     -42.366 -52.318  12.481  1.00  0.00     0.061 A 
HETATM    6  C   UNL     1     -43.595 -52.998  12.467  1.00  0.00     0.032 A 
HETATM    7  C   UNL     1     -43.761 -54.119  13.291  1.00  0.00     0.002 A 
HETATM    8  C   UNL     1     -42.720 -54.563  14.105  1.00  0.00     0.002 A 
HETATM    9  C   UNL     1     -41.491 -53.892  14.145  1.00  0.00     0.032 A 
HETATM   10  C   UNL     1     -41.351 -52.759  13.329  1.00  0.00     0.063 A 
ENDROOT
BRANCH   2  11
HETATM   11  S   UNL     1     -39.729 -49.710  11.517  1.00  0.00    -0.080 SA
BRANCH  11  12
HETATM   12  C   UNL     1     -40.487 -48.220  12.295  1.00  0.00     0.144 C 
HETATM   13  C   UNL     1     -39.515 -47.558  13.266  1.00  0.00     0.031 C 
BRANCH  12  14
HETATM   14  C   UNL     1     -40.866 -47.210  11.192  1.00  0.00     0.241 C 
HETATM   15  O   UNL     1     -40.066 -46.380  10.755  1.00  0.00    -0.272 OA
HETATM   16  N   UNL     1     -42.176 -47.229  10.716  1.00  0.00    -0.268 N 
HETATM   17  C   UNL     1     -42.578 -46.397   9.595  1.00  0.00     0.156 C 
HETATM   18  C   UNL     1     -43.275 -47.983  11.156  1.00  0.00     0.325 C 
HETATM   19  C   UNL     1     -43.967 -46.887   9.214  1.00  0.00     0.145 C 
HETATM   20  N   UNL     1     -44.308 -47.809  10.254  1.00  0.00    -0.341 N 
HETATM   21  H   UNL     1     -45.192 -48.289  10.379  1.00  0.00     0.164 HD
HETATM   22  O   UNL     1     -43.379 -48.658  12.165  1.00  0.00    -0.247 OA
ENDBRANCH  12  14
ENDBRANCH  11  12
ENDBRANCH   2  11
BRANCH   1  23
HETATM   23  C   UNL     1     -39.117 -51.782  13.923  1.00  0.00     0.157 C 
BRANCH  23  24
HETATM   24  C   UNL     1     -39.295 -51.028  15.239  1.00  0.00     0.187 C 
BRANCH  24  25
HETATM   25  O   UNL     1     -38.208 -50.113  15.399  1.00  0.00    -0.394 OA
HETATM   26  C   UNL     1     -37.236 -50.283  14.375  1.00  0.00     0.201 C 
ENDBRANCH  24  25
ENDBRANCH  23  24
ENDBRANCH   1  23
TORSDOF 6
ENDMDL
MODEL 2
REMARK VINA RESULT:      -5.9      1.276      1.563
REMARK  6 active torsions:
REMARK  status: ('A' for Active; 'I' for Inactive)
REMARK    1  A    between atoms: O_2  and  C_3 
REMARK    2  A    between atoms: C_3  and  C_4 
REMARK    3  A    between atoms: C_4  and  N_5 
REMARK    4  A    between atoms: C_6  and  S_7 
REMARK    5  A    between atoms: S_7  and  C_8 
REMARK    6  A    between atoms: C_8  and  C_10 
REMARK       I    between atoms: C_10  and  N_12 
ROOT
HETATM    1  N   UNL     1     -40.995 -52.185  13.587  1.00  0.00    -0.324 N 
HETATM    2  C   UNL     1     -41.131 -51.451  12.432  1.00  0.00     0.148 A 
HETATM    3  N   UNL     1     -42.274 -51.693  11.833  1.00  0.00    -0.335 N 
ATOM      4  HN  UNL     1     -42.633 -51.254  10.986  1.00  0.00     0.168 HD
HETATM    5  C   UNL     1     -42.883 -52.663  12.590  1.00  0.00     0.061 A 
HETATM    6  C   UNL     1     -44.127 -53.287  12.409  1.00  0.00     0.032 A 
HETATM    7  C   UNL     1     -44.529 -54.277  13.316  1.00  0.00     0.002 A 
HETATM    8  C   UNL     1     -43.702 -54.648  14.375  1.00  0.00     0.002 A 
HETATM    9  C   UNL     1     -42.463 -54.029  14.581  1.00  0.00     0.032 A 
HETATM   10  C   UNL     1     -42.088 -53.025  13.676  1.00  0.00     0.063 A 
ENDROOT
BRANCH   2  11
HETATM   11  S   UNL     1     -39.936 -50.321  11.868  1.00  0.00    -0.080 SA
BRANCH  11  12
HETATM   12  C   UNL     1     -40.481 -48.766  12.695  1.00  0.00     0.144 C 
HETATM   13  C   UNL     1     -39.431 -48.281  13.690  1.00  0.00     0.031 C 
BRANCH  12  14
HETATM   14  C   UNL     1     -40.706 -47.676  11.626  1.00  0.00     0.241 C 
HETATM   15  O   UNL     1     -39.810 -46.909  11.268  1.00  0.00    -0.272 OA
HETATM   16  N   UNL     1     -41.987 -47.547  11.091  1.00  0.00    -0.268 N 
HETATM   17  C   UNL     1     -42.251 -46.631   9.995  1.00  0.00     0.156 C 
HETATM   18  C   UNL     1     -43.173 -48.209  11.443  1.00  0.00     0.325 C 
HETATM   19  C   UNL     1     -43.659 -46.966   9.528  1.00  0.00     0.145 C 
HETATM   20  N   UNL     1     -44.138 -47.895  10.505  1.00  0.00    -0.341 N 
HETATM   21  H   UNL     1     -45.069 -48.292  10.565  1.00  0.00     0.164 HD
HETATM   22  O   UNL     1     -43.391 -48.915  12.412  1.00  0.00    -0.247 OA
ENDBRANCH  12  14
ENDBRANCH  11  12
ENDBRANCH   2  11
BRANCH   1  23
HETATM   23  C   UNL     1     -39.955 -52.069  14.589  1.00  0.00     0.157 C 
BRANCH  23  24
HETATM   24  C   UNL     1     -38.643 -52.719  14.159  1.00  0.00     0.187 C 
BRANCH  24  25
HETATM   25  O   UNL     1     -38.889 -54.090  13.836  1.00  0.00    -0.394 OA
HETATM   26  C   UNL     1     -38.891 -54.903  15.004  1.00  0.00     0.201 C 
ENDBRANCH  24  25
ENDBRANCH  23  24
ENDBRANCH   1  23
TORSDOF 6
ENDMDL
MODEL 3
REMARK VINA RESULT:      -5.6      2.544      5.984
REMARK  6 active torsions:
REMARK  status: ('A' for Active; 'I' for Inactive)
REMARK    1  A    between atoms: O_2  and  C_3 
REMARK    2  A    between atoms: C_3  and  C_4 
REMARK    3  A    between atoms: C_4  and  N_5 
REMARK    4  A    between atoms: C_6  and  S_7 
REMARK    5  A    between atoms: S_7  and  C_8 
REMARK    6  A    between atoms: C_8  and  C_10 
REMARK       I    between atoms: C_10  and  N_12 
ROOT
HETATM    1  N   UNL     1     -39.969 -49.015  11.837  1.00  0.00    -0.324 N 
HETATM    2  C   UNL     1     -40.990 -49.929  11.725  1.00  0.00     0.148 A 
HETATM    3  N   UNL     1     -42.040 -49.416  11.127  1.00  0.00    -0.335 N 
ATOM      4  HN  UNL     1     -42.910 -49.893  10.889  1.00  0.00     0.168 HD
HETATM    5  C   UNL     1     -41.718 -48.103  10.890  1.00  0.00     0.061 A 
HETATM    6  C   UNL     1     -42.475 -47.096  10.271  1.00  0.00     0.032 A 
HETATM    7  C   UNL     1     -41.933 -45.808  10.163  1.00  0.00     0.002 A 
HETATM    8  C   UNL     1     -40.666 -45.525  10.672  1.00  0.00     0.002 A 
HETATM    9  C   UNL     1     -39.890 -46.519  11.282  1.00  0.00     0.032 A 
HETATM   10  C   UNL     1     -40.441 -47.807  11.362  1.00  0.00     0.063 A 
ENDROOT
BRANCH   2  11
HETATM   11  S   UNL     1     -40.872 -51.571  12.287  1.00  0.00    -0.080 SA
BRANCH  11  12
HETATM   12  C   UNL     1     -41.825 -51.490  13.863  1.00  0.00     0.144 C 
HETATM   13  C   UNL     1     -41.631 -50.141  14.549  1.00  0.00     0.031 C 
BRANCH  12  14
HETATM   14  C   UNL     1     -43.324 -51.692  13.560  1.00  0.00     0.241 C 
HETATM   15  O   UNL     1     -44.032 -50.791  13.107  1.00  0.00    -0.272 OA
HETATM   16  N   UNL     1     -43.884 -52.934  13.854  1.00  0.00    -0.268 N 
HETATM   17  C   UNL     1     -45.255 -53.243  13.485  1.00  0.00     0.156 C 
HETATM   18  C   UNL     1     -43.310 -54.045  14.491  1.00  0.00     0.325 C 
HETATM   19  C   UNL     1     -45.403 -54.738  13.725  1.00  0.00     0.145 C 
HETATM   20  N   UNL     1     -44.186 -55.108  14.381  1.00  0.00    -0.341 N 
HETATM   21  H   UNL     1     -43.949 -56.018  14.759  1.00  0.00     0.164 HD
HETATM   22  O   UNL     1     -42.251 -54.115  15.089  1.00  0.00    -0.247 OA
ENDBRANCH  12  14
ENDBRANCH  11  12
ENDBRANCH   2  11
BRANCH   1  23
HETATM   23  C   UNL     1     -38.613 -49.256  12.287  1.00  0.00     0.157 C 
BRANCH  23  24
HETATM   24  C   UNL     1     -37.740 -49.906  11.217  1.00  0.00     0.187 C 
BRANCH  24  25
HETATM   25  O   UNL     1     -37.171 -51.106  11.748  1.00  0.00    -0.394 OA
HETATM   26  C   UNL     1     -37.339 -51.176  13.159  1.00  0.00     0.201 C 
ENDBRANCH  24  25
ENDBRANCH  23  24
ENDBRANCH   1  23
TORSDOF 6
ENDMDL
MODEL 4
REMARK VINA RESULT:      -5.5      2.852      4.628
REMARK  6 active torsions:
REMARK  status: ('A' for Active; 'I' for Inactive)
REMARK    1  A    between atoms: O_2  and  C_3 
REMARK    2  A    between atoms: C_3  and  C_4 
REMARK    3  A    between atoms: C_4  and  N_5 
REMARK    4  A    between atoms: C_6  and  S_7 
REMARK    5  A    between atoms: S_7  and  C_8 
REMARK    6  A    between atoms: C_8  and  C_10 
REMARK       I    between atoms: C_10  and  N_12 
ROOT
HETATM    1  N   UNL     1     -43.284 -53.704  13.916  1.00  0.00    -0.324 N 
HETATM    2  C   UNL     1     -42.608 -52.891  13.036  1.00  0.00     0.148 A 
HETATM    3  N   UNL     1     -43.330 -51.855  12.677  1.00  0.00    -0.335 N 
ATOM      4  HN  UNL     1     -43.049 -51.087  12.068  1.00  0.00     0.168 HD
HETATM    5  C   UNL     1     -44.542 -52.024  13.297  1.00  0.00     0.061 A 
HETATM    6  C   UNL     1     -45.684 -51.208  13.264  1.00  0.00     0.032 A 
HETATM    7  C   UNL     1     -46.826 -51.607  13.972  1.00  0.00     0.002 A 
HETATM    8  C   UNL     1     -46.835 -52.802  14.690  1.00  0.00     0.002 A 
HETATM    9  C   UNL     1     -45.702 -53.624  14.747  1.00  0.00     0.032 A 
HETATM   10  C   UNL     1     -44.562 -53.197  14.050  1.00  0.00     0.063 A 
ENDROOT
BRANCH   2  11
HETATM   11  S   UNL     1     -40.983 -53.201  12.501  1.00  0.00    -0.080 SA
BRANCH  11  12
HETATM   12  C   UNL     1     -40.001 -52.248  13.736  1.00  0.00     0.144 C 
HETATM   13  C   UNL     1     -39.158 -53.181  14.600  1.00  0.00     0.031 C 
BRANCH  12  14
HETATM   14  C   UNL     1     -39.069 -51.266  12.994  1.00  0.00     0.241 C 
HETATM   15  O   UNL     1     -37.937 -51.583  12.626  1.00  0.00    -0.272 OA
HETATM   16  N   UNL     1     -39.532 -49.969  12.781  1.00  0.00    -0.268 N 
HETATM   17  C   UNL     1     -38.769 -49.024  11.984  1.00  0.00     0.156 C 
HETATM   18  C   UNL     1     -40.715 -49.357  13.226  1.00  0.00     0.325 C 
HETATM   19  C   UNL     1     -39.704 -47.844  11.763  1.00  0.00     0.145 C 
HETATM   20  N   UNL     1     -40.829 -48.130  12.600  1.00  0.00    -0.341 N 
HETATM   21  H   UNL     1     -41.631 -47.534  12.769  1.00  0.00     0.164 HD
HETATM   22  O   UNL     1     -41.518 -49.763  14.047  1.00  0.00    -0.247 OA
ENDBRANCH  12  14
ENDBRANCH  11  12
ENDBRANCH   2  11
BRANCH   1  23
HETATM   23  C   UNL     1     -42.762 -54.840  14.648  1.00  0.00     0.157 C 
BRANCH  23  24
HETATM   24  C   UNL     1     -42.467 -54.517  16.110  1.00  0.00     0.187 C 
BRANCH  24  25
HETATM   25  O   UNL     1     -43.296 -55.332  16.942  1.00  0.00    -0.394 OA
HETATM   26  C   UNL     1     -43.614 -54.670  18.161  1.00  0.00     0.201 C 
ENDBRANCH  24  25
ENDBRANCH  23  24
ENDBRANCH   1  23
TORSDOF 6
ENDMDL
MODEL 5
REMARK VINA RESULT:      -5.5      2.052      2.867
REMARK  6 active torsions:
REMARK  status: ('A' for Active; 'I' for Inactive)
REMARK    1  A    between atoms: O_2  and  C_3 
REMARK    2  A    between atoms: C_3  and  C_4 
REMARK    3  A    between atoms: C_4  and  N_5 
REMARK    4  A    between atoms: C_6  and  S_7 
REMARK    5  A    between atoms: S_7  and  C_8 
REMARK    6  A    between atoms: C_8  and  C_10 
REMARK       I    between atoms: C_10  and  N_12 
ROOT
HETATM    1  N   UNL     1     -42.924 -53.113  13.345  1.00  0.00    -0.324 N 
HETATM    2  C   UNL     1     -42.679 -51.891  12.763  1.00  0.00     0.148 A 
HETATM    3  N   UNL     1     -43.727 -51.103  12.827  1.00  0.00    -0.335 N 
ATOM      4  HN  UNL     1     -43.795 -50.138  12.506  1.00  0.00     0.168 HD
HETATM    5  C   UNL     1     -44.711 -51.854  13.420  1.00  0.00     0.061 A 
HETATM    6  C   UNL     1     -46.033 -51.504  13.737  1.00  0.00     0.032 A 
HETATM    7  C   UNL     1     -46.867 -52.463  14.327  1.00  0.00     0.002 A 
HETATM    8  C   UNL     1     -46.398 -53.750  14.587  1.00  0.00     0.002 A 
HETATM    9  C   UNL     1     -45.079 -54.115  14.291  1.00  0.00     0.032 A 
HETATM   10  C   UNL     1     -44.253 -53.136  13.720  1.00  0.00     0.063 A 
ENDROOT
BRANCH   2  11
HETATM   11  S   UNL     1     -41.150 -51.453  12.061  1.00  0.00    -0.080 SA
BRANCH  11  12
HETATM   12  C   UNL     1     -40.691 -49.979  13.069  1.00  0.00     0.144 C 
HETATM   13  C   UNL     1     -39.510 -50.290  13.983  1.00  0.00     0.031 C 
BRANCH  12  14
HETATM   14  C   UNL     1     -40.310 -48.819  12.126  1.00  0.00     0.241 C 
HETATM   15  O   UNL     1     -39.183 -48.708  11.640  1.00  0.00    -0.272 OA
HETATM   16  N   UNL     1     -41.279 -47.853  11.862  1.00  0.00    -0.268 N 
HETATM   17  C   UNL     1     -41.041 -46.799  10.890  1.00  0.00     0.156 C 
HETATM   18  C   UNL     1     -42.565 -47.705  12.405  1.00  0.00     0.325 C 
HETATM   19  C   UNL     1     -42.391 -46.128  10.692  1.00  0.00     0.145 C 
HETATM   20  N   UNL     1     -43.225 -46.720  11.693  1.00  0.00    -0.341 N 
HETATM   21  H   UNL     1     -44.182 -46.474  11.914  1.00  0.00     0.164 HD
HETATM   22  O   UNL     1     -43.059 -48.280  13.358  1.00  0.00    -0.247 OA
ENDBRANCH  12  14
ENDBRANCH  11  12
ENDBRANCH   2  11
BRANCH   1  23
HETATM   23  C   UNL     1     -41.970 -54.172  13.608  1.00  0.00     0.157 C 
BRANCH  23  24
HETATM   24  C   UNL     1     -41.409 -54.126  15.026  1.00  0.00     0.187 C 
BRANCH  24  25
HETATM   25  O   UNL     1     -40.045 -53.700  14.973  1.00  0.00    -0.394 OA
HETATM   26  C   UNL     1     -39.340 -54.360  13.928  1.00  0.00     0.201 C 
ENDBRANCH  24  25
ENDBRANCH  23  24
ENDBRANCH   1  23
TORSDOF 6
ENDMDL
MODEL 6
REMARK VINA RESULT:      -5.4      2.647      6.146
REMARK  6 active torsions:
REMARK  status: ('A' for Active; 'I' for Inactive)
REMARK    1  A    between atoms: O_2  and  C_3 
REMARK    2  A    between atoms: C_3  and  C_4 
REMARK    3  A    between atoms: C_4  and  N_5 
REMARK    4  A    between atoms: C_6  and  S_7 
REMARK    5  A    between atoms: S_7  and  C_8 
REMARK    6  A    between atoms: C_8  and  C_10 
REMARK       I    between atoms: C_10  and  N_12 
ROOT
HETATM    1  N   UNL     1     -41.225 -48.889  12.439  1.00  0.00    -0.324 N 
HETATM    2  C   UNL     1     -42.285 -49.705  12.756  1.00  0.00     0.148 A 
HETATM    3  N   UNL     1     -43.375 -49.360  12.113  1.00  0.00    -0.335 N 
ATOM      4  HN  UNL     1     -44.283 -49.823  12.141  1.00  0.00     0.168 HD
HETATM    5  C   UNL     1     -43.034 -48.242  11.392  1.00  0.00     0.061 A 
HETATM    6  C   UNL     1     -43.817 -47.465  10.525  1.00  0.00     0.032 A 
HETATM    7  C   UNL     1     -43.243 -46.342   9.913  1.00  0.00     0.002 A 
HETATM    8  C   UNL     1     -41.918 -45.993  10.169  1.00  0.00     0.002 A 
HETATM    9  C   UNL     1     -41.115 -46.763  11.021  1.00  0.00     0.032 A 
HETATM   10  C   UNL     1     -41.701 -47.894  11.607  1.00  0.00     0.063 A 
ENDROOT
BRANCH   2  11
HETATM   11  S   UNL     1     -42.166 -51.047  13.856  1.00  0.00    -0.080 SA
BRANCH  11  12
HETATM   12  C   UNL     1     -42.318 -52.480  12.706  1.00  0.00     0.144 C 
HETATM   13  C   UNL     1     -40.970 -52.819  12.077  1.00  0.00     0.031 C 
BRANCH  12  14
HETATM   14  C   UNL     1     -42.833 -53.706  13.489  1.00  0.00     0.241 C 
HETATM   15  O   UNL     1     -42.074 -54.562  13.948  1.00  0.00    -0.272 OA
HETATM   16  N   UNL     1     -44.212 -53.849  13.635  1.00  0.00    -0.268 N 
HETATM   17  C   UNL     1     -44.771 -54.905  14.461  1.00  0.00     0.156 C 
HETATM   18  C   UNL     1     -45.253 -53.083  13.088  1.00  0.00     0.325 C 
HETATM   19  C   UNL     1     -46.251 -54.574  14.583  1.00  0.00     0.145 C 
HETATM   20  N   UNL     1     -46.439 -53.485  13.673  1.00  0.00    -0.341 N 
HETATM   21  H   UNL     1     -47.315 -53.038  13.430  1.00  0.00     0.164 HD
HETATM   22  O   UNL     1     -45.195 -52.230  12.221  1.00  0.00    -0.247 OA
ENDBRANCH  12  14
ENDBRANCH  11  12
ENDBRANCH   2  11
BRANCH   1  23
HETATM   23  C   UNL     1     -39.837 -49.056  12.821  1.00  0.00     0.157 C 
BRANCH  23  24
HETATM   24  C   UNL     1     -38.985 -49.661  11.708  1.00  0.00     0.187 C 
BRANCH  24  25
HETATM   25  O   UNL     1     -37.632 -49.758  12.160  1.00  0.00    -0.394 OA
HETATM   26  C   UNL     1     -37.396 -50.997  12.818  1.00  0.00     0.201 C 
ENDBRANCH  24  25
ENDBRANCH  23  24
ENDBRANCH   1  23
TORSDOF 6
ENDMDL
MODEL 7
REMARK VINA RESULT:      -5.3      2.246      6.406
REMARK  6 active torsions:
REMARK  status: ('A' for Active; 'I' for Inactive)
REMARK    1  A    between atoms: O_2  and  C_3 
REMARK    2  A    between atoms: C_3  and  C_4 
REMARK    3  A    between atoms: C_4  and  N_5 
REMARK    4  A    between atoms: C_6  and  S_7 
REMARK    5  A    between atoms: S_7  and  C_8 
REMARK    6  A    between atoms: C_8  and  C_10 
REMARK       I    between atoms: C_10  and  N_12 
ROOT
HETATM    1  N   UNL     1     -40.570 -46.392  11.556  1.00  0.00    -0.324 N 
HETATM    2  C   UNL     1     -40.247 -47.726  11.628  1.00  0.00     0.148 A 
HETATM    3  N   UNL     1     -41.008 -48.455  10.846  1.00  0.00    -0.335 N 
ATOM      4  HN  UNL     1     -40.949 -49.461  10.688  1.00  0.00     0.168 HD
HETATM    5  C   UNL     1     -41.900 -47.576  10.285  1.00  0.00     0.061 A 
HETATM    6  C   UNL     1     -42.935 -47.817   9.367  1.00  0.00     0.032 A 
HETATM    7  C   UNL     1     -43.737 -46.746   8.951  1.00  0.00     0.002 A 
HETATM    8  C   UNL     1     -43.521 -45.461   9.447  1.00  0.00     0.002 A 
HETATM    9  C   UNL     1     -42.486 -45.197  10.352  1.00  0.00     0.032 A 
HETATM   10  C   UNL     1     -41.680 -46.278  10.741  1.00  0.00     0.063 A 
ENDROOT
BRANCH   2  11
HETATM   11  S   UNL     1     -38.960 -48.348  12.619  1.00  0.00    -0.080 SA
BRANCH  11  12
HETATM   12  C   UNL     1     -38.604 -49.957  11.793  1.00  0.00     0.144 C 
HETATM   13  C   UNL     1     -37.357 -49.857  10.920  1.00  0.00     0.031 C 
BRANCH  12  14
HETATM   14  C   UNL     1     -38.382 -51.041  12.869  1.00  0.00     0.241 C 
HETATM   15  O   UNL     1     -37.270 -51.285  13.340  1.00  0.00    -0.272 OA
HETATM   16  N   UNL     1     -39.488 -51.785  13.277  1.00  0.00    -0.268 N 
HETATM   17  C   UNL     1     -39.387 -52.736  14.371  1.00  0.00     0.156 C 
HETATM   18  C   UNL     1     -40.803 -51.774  12.788  1.00  0.00     0.325 C 
HETATM   19  C   UNL     1     -40.822 -53.134  14.685  1.00  0.00     0.145 C 
HETATM   20  N   UNL     1     -41.587 -52.534  13.635  1.00  0.00    -0.341 N 
HETATM   21  H   UNL     1     -42.581 -52.637  13.470  1.00  0.00     0.164 HD
HETATM   22  O   UNL     1     -41.235 -51.243  11.780  1.00  0.00    -0.247 OA
ENDBRANCH  12  14
ENDBRANCH  11  12
ENDBRANCH   2  11
BRANCH   1  23
HETATM   23  C   UNL     1     -39.855 -45.277  12.143  1.00  0.00     0.157 C 
BRANCH  23  24
HETATM   24  C   UNL     1     -40.381 -44.898  13.525  1.00  0.00     0.187 C 
BRANCH  24  25
HETATM   25  O   UNL     1     -39.652 -43.765  14.005  1.00  0.00    -0.394 OA
HETATM   26  C   UNL     1     -39.863 -42.628  13.176  1.00  0.00     0.201 C 
ENDBRANCH  24  25
ENDBRANCH  23  24
ENDBRANCH   1  23
TORSDOF 6
ENDMDL
MODEL 8
REMARK VINA RESULT:      -5.3      2.495      4.491
REMARK  6 active torsions:
REMARK  status: ('A' for Active; 'I' for Inactive)
REMARK    1  A    between atoms: O_2  and  C_3 
REMARK    2  A    between atoms: C_3  and  C_4 
REMARK    3  A    between atoms: C_4  and  N_5 
REMARK    4  A    between atoms: C_6  and  S_7 
REMARK    5  A    between atoms: S_7  and  C_8 
REMARK    6  A    between atoms: C_8  and  C_10 
REMARK       I    between atoms: C_10  and  N_12 
ROOT
HETATM    1  N   UNL     1     -41.327 -49.731  12.826  1.00  0.00    -0.324 N 
HETATM    2  C   UNL     1     -41.441 -48.898  11.737  1.00  0.00     0.148 A 
HETATM    3  N   UNL     1     -40.336 -48.866  11.030  1.00  0.00    -0.335 N 
ATOM      4  HN  UNL     1     -40.173 -48.360  10.160  1.00  0.00     0.168 HD
HETATM    5  C   UNL     1     -39.446 -49.660  11.710  1.00  0.00     0.061 A 
HETATM    6  C   UNL     1     -38.116 -49.981  11.397  1.00  0.00     0.032 A 
HETATM    7  C   UNL     1     -37.393 -50.806  12.269  1.00  0.00     0.002 A 
HETATM    8  C   UNL     1     -37.978 -51.292  13.437  1.00  0.00     0.002 A 
HETATM    9  C   UNL     1     -39.308 -50.994  13.761  1.00  0.00     0.032 A 
HETATM   10  C   UNL     1     -40.022 -50.185  12.865  1.00  0.00     0.063 A 
ENDROOT
BRANCH   2  11
HETATM   11  S   UNL     1     -42.894 -48.027  11.346  1.00  0.00    -0.080 SA
BRANCH  11  12
HETATM   12  C   UNL     1     -42.363 -47.073   9.861  1.00  0.00     0.144 C 
HETATM   13  C   UNL     1     -43.102 -47.548   8.614  1.00  0.00     0.031 C 
BRANCH  12  14
HETATM   14  C   UNL     1     -42.663 -45.576  10.087  1.00  0.00     0.241 C 
HETATM   15  O   UNL     1     -43.721 -45.054   9.729  1.00  0.00    -0.272 OA
HETATM   16  N   UNL     1     -41.671 -44.798  10.682  1.00  0.00    -0.268 N 
HETATM   17  C   UNL     1     -41.921 -43.413  11.041  1.00  0.00     0.156 C 
HETATM   18  C   UNL     1     -40.359 -45.144  11.040  1.00  0.00     0.325 C 
HETATM   19  C   UNL     1     -40.725 -42.999  11.886  1.00  0.00     0.145 C 
HETATM   20  N   UNL     1     -39.822 -44.104  11.776  1.00  0.00    -0.341 N 
HETATM   21  H   UNL     1     -38.883 -44.165  12.152  1.00  0.00     0.164 HD
HETATM   22  O   UNL     1     -39.731 -46.148  10.752  1.00  0.00    -0.247 OA
ENDBRANCH  12  14
ENDBRANCH  11  12
ENDBRANCH   2  11
BRANCH   1  23
HETATM   23  C   UNL     1     -42.375 -50.143  13.736  1.00  0.00     0.157 C 
BRANCH  23  24
HETATM   24  C   UNL     1     -43.103 -51.402  13.271  1.00  0.00     0.187 C 
BRANCH  24  25
HETATM   25  O   UNL     1     -42.564 -52.532  13.962  1.00  0.00    -0.394 OA
HETATM   26  C   UNL     1     -42.048 -53.495  13.051  1.00  0.00     0.201 C 
ENDBRANCH  24  25
ENDBRANCH  23  24
ENDBRANCH   1  23
TORSDOF 6
ENDMDL
MODEL 9
REMARK VINA RESULT:      -5.2      1.907      2.436
REMARK  6 active torsions:
REMARK  status: ('A' for Active; 'I' for Inactive)
REMARK    1  A    between atoms: O_2  and  C_3 
REMARK    2  A    between atoms: C_3  and  C_4 
REMARK    3  A    between atoms: C_4  and  N_5 
REMARK    4  A    between atoms: C_6  and  S_7 
REMARK    5  A    between atoms: S_7  and  C_8 
REMARK    6  A    between atoms: C_8  and  C_10 
REMARK       I    between atoms: C_10  and  N_12 
ROOT
HETATM    1  N   UNL     1     -41.900 -52.363  13.841  1.00  0.00    -0.324 N 
HETATM    2  C   UNL     1     -42.291 -51.529  12.820  1.00  0.00     0.148 A 
HETATM    3  N   UNL     1     -43.464 -51.866  12.338  1.00  0.00    -0.335 N 
ATOM      4  HN  UNL     1     -43.992 -51.389  11.607  1.00  0.00     0.168 HD
HETATM    5  C   UNL     1     -43.830 -52.995  13.027  1.00  0.00     0.061 A 
HETATM    6  C   UNL     1     -44.995 -53.770  12.917  1.00  0.00     0.032 A 
HETATM    7  C   UNL     1     -45.134 -54.906  13.726  1.00  0.00     0.002 A 
HETATM    8  C   UNL     1     -44.126 -55.272  14.617  1.00  0.00     0.002 A 
HETATM    9  C   UNL     1     -42.962 -54.505  14.752  1.00  0.00     0.032 A 
HETATM   10  C   UNL     1     -42.851 -53.359  13.950  1.00  0.00     0.063 A 
ENDROOT
BRANCH   2  11
HETATM   11  S   UNL     1     -41.344 -50.178  12.270  1.00  0.00    -0.080 SA
BRANCH  11  12
HETATM   12  C   UNL     1     -42.336 -48.755  12.894  1.00  0.00     0.144 C 
HETATM   13  C   UNL     1     -42.957 -49.076  14.249  1.00  0.00     0.031 C 
BRANCH  12  14
HETATM   14  C   UNL     1     -41.419 -47.522  13.037  1.00  0.00     0.241 C 
HETATM   15  O   UNL     1     -40.890 -47.215  14.107  1.00  0.00    -0.272 OA
HETATM   16  N   UNL     1     -41.229 -46.721  11.913  1.00  0.00    -0.268 N 
HETATM   17  C   UNL     1     -40.286 -45.616  11.932  1.00  0.00     0.156 C 
HETATM   18  C   UNL     1     -41.831 -46.800  10.647  1.00  0.00     0.325 C 
HETATM   19  C   UNL     1     -40.169 -45.169  10.482  1.00  0.00     0.145 C 
HETATM   20  N   UNL     1     -41.182 -45.917   9.804  1.00  0.00    -0.341 N 
HETATM   21  H   UNL     1     -41.452 -45.836   8.831  1.00  0.00     0.164 HD
HETATM   22  O   UNL     1     -42.783 -47.475  10.299  1.00  0.00    -0.247 OA
ENDBRANCH  12  14
ENDBRANCH  11  12
ENDBRANCH   2  11
BRANCH   1  23
HETATM   23  C   UNL     1     -40.755 -52.211  14.715  1.00  0.00     0.157 C 
BRANCH  23  24
HETATM   24  C   UNL     1     -39.591 -53.122  14.331  1.00  0.00     0.187 C 
BRANCH  24  25
HETATM   25  O   UNL     1     -38.835 -52.495  13.292  1.00  0.00    -0.394 OA
HETATM   26  C   UNL     1     -38.133 -51.358  13.779  1.00  0.00     0.201 C 
ENDBRANCH  24  25
ENDBRANCH  23  24
ENDBRANCH   1  23
TORSDOF 6
ENDMDL
