MODEL 1
REMARK VINA RESULT:      -5.7      0.000      0.000
REMARK  2 active torsions:
REMARK  status: ('A' for Active; 'I' for Inactive)
REMARK    1  A    between atoms: C_5  and  C_7 
REMARK       I    between atoms: C_7  and  N_9 
REMARK    2  A    between atoms: N_9  and  C_10 
ROOT
HETATM    1  C   UNL     1     -42.930 -46.997   9.833  1.00  0.00     0.251 C 
HETATM    2  O   UNL     1     -42.295 -48.043   9.943  1.00  0.00    -0.270 OA
HETATM    3  N   UNL     1     -43.014 -46.010  10.801  1.00  0.00    -0.323 N 
HETATM    4  H   UNL     1     -43.711 -45.285  10.647  1.00  0.00     0.169 HD
ENDROOT
BRANCH   3   5
HETATM    5  C   UNL     1     -42.305 -45.977  12.028  1.00  0.00     0.059 A 
HETATM    6  C   UNL     1     -42.881 -46.416  13.220  1.00  0.00     0.048 A 
HETATM    7  C   UNL     1     -42.152 -46.327  14.389  1.00  0.00     0.090 A 
HETATM    8  N   UNL     1     -40.904 -45.822  14.456  1.00  0.00    -0.368 N 
HETATM    9  C   UNL     1     -40.334 -45.403  13.298  1.00  0.00     0.029 A 
ATOM     10  HN  UNL     1     -40.407 -45.757  15.345  1.00  0.00     0.165 HD
HETATM   11  C   UNL     1     -38.975 -44.782  13.446  1.00  0.00     0.070 C 
HETATM   12  C   UNL     1     -40.984 -45.494  12.060  1.00  0.00     0.083 A 
HETATM   13 CL   UNL     1     -40.205 -44.989  10.599  1.00  0.00    -0.080 Cl
ENDBRANCH   3   5
BRANCH   1  14
HETATM   14  C   UNL     1     -43.797 -46.707   8.592  1.00  0.00     0.214 C 
HETATM   15  C   UNL     1     -44.953 -45.770   8.908  1.00  0.00     0.044 C 
HETATM   16  C   UNL     1     -46.160 -46.677   9.047  1.00  0.00     0.034 C 
HETATM   17  C   UNL     1     -45.627 -48.075   8.777  1.00  0.00     0.118 C 
HETATM   18  C   UNL     1     -46.576 -48.938   7.969  1.00  0.00     0.039 C 
HETATM   19  O   UNL     1     -44.392 -47.901   8.068  1.00  0.00    -0.372 OA
ENDBRANCH   1  14
TORSDOF 2
ENDMDL
MODEL 2
REMARK VINA RESULT:      -5.7      2.496      2.586
REMARK  2 active torsions:
REMARK  status: ('A' for Active; 'I' for Inactive)
REMARK    1  A    between atoms: C_5  and  C_7 
REMARK       I    between atoms: C_7  and  N_9 
REMARK    2  A    between atoms: N_9  and  C_10 
ROOT
HETATM    1  C   UNL     1     -42.899 -47.420  10.107  1.00  0.00     0.251 C 
HETATM    2  O   UNL     1     -43.362 -47.042  11.180  1.00  0.00    -0.270 OA
HETATM    3  N   UNL     1     -41.740 -48.163   9.954  1.00  0.00    -0.323 N 
HETATM    4  H   UNL     1     -41.384 -48.255   9.006  1.00  0.00     0.169 HD
ENDROOT
BRANCH   3   5
HETATM    5  C   UNL     1     -40.951 -48.708  10.999  1.00  0.00     0.059 A 
HETATM    6  C   UNL     1     -41.035 -50.053  11.356  1.00  0.00     0.048 A 
HETATM    7  C   UNL     1     -40.266 -50.517  12.405  1.00  0.00     0.090 A 
HETATM    8  N   UNL     1     -39.437 -49.738  13.127  1.00  0.00    -0.368 N 
HETATM    9  C   UNL     1     -39.343 -48.430  12.777  1.00  0.00     0.029 A 
ATOM     10  HN  UNL     1     -38.900 -50.117  13.907  1.00  0.00     0.165 HD
HETATM   11  C   UNL     1     -38.462 -47.596  13.663  1.00  0.00     0.070 C 
HETATM   12  C   UNL     1     -40.054 -47.883  11.700  1.00  0.00     0.083 A 
HETATM   13 CL   UNL     1     -39.872 -46.219  11.260  1.00  0.00    -0.080 Cl
ENDBRANCH   3   5
BRANCH   1  14
HETATM   14  C   UNL     1     -43.544 -47.019   8.765  1.00  0.00     0.214 C 
HETATM   15  C   UNL     1     -44.590 -45.926   8.938  1.00  0.00     0.044 C 
HETATM   16  C   UNL     1     -45.919 -46.655   8.905  1.00  0.00     0.034 C 
HETATM   17  C   UNL     1     -45.557 -48.115   8.690  1.00  0.00     0.118 C 
HETATM   18  C   UNL     1     -46.502 -48.841   7.753  1.00  0.00     0.039 C 
HETATM   19  O   UNL     1     -44.226 -48.121   8.153  1.00  0.00    -0.372 OA
ENDBRANCH   1  14
TORSDOF 2
ENDMDL
MODEL 3
REMARK VINA RESULT:      -5.7      6.367      8.219
REMARK  2 active torsions:
REMARK  status: ('A' for Active; 'I' for Inactive)
REMARK    1  A    between atoms: C_5  and  C_7 
REMARK       I    between atoms: C_7  and  N_9 
REMARK    2  A    between atoms: N_9  and  C_10 
ROOT
HETATM    1  C   UNL     1     -40.693 -52.616  13.148  1.00  0.00     0.251 C 
HETATM    2  O   UNL     1     -40.720 -53.212  12.074  1.00  0.00    -0.270 OA
HETATM    3  N   UNL     1     -41.793 -52.374  13.954  1.00  0.00    -0.323 N 
HETATM    4  H   UNL     1     -41.655 -51.722  14.723  1.00  0.00     0.169 HD
ENDROOT
BRANCH   3   5
HETATM    5  C   UNL     1     -43.110 -52.859  13.742  1.00  0.00     0.059 A 
HETATM    6  C   UNL     1     -43.430 -54.205  13.911  1.00  0.00     0.048 A 
HETATM    7  C   UNL     1     -44.721 -54.623  13.657  1.00  0.00     0.090 A 
HETATM    8  N   UNL     1     -45.704 -53.803  13.235  1.00  0.00    -0.368 N 
HETATM    9  C   UNL     1     -45.400 -52.489  13.079  1.00  0.00     0.029 A 
ATOM     10  HN  UNL     1     -46.641 -54.156  13.041  1.00  0.00     0.165 HD
HETATM   11  C   UNL     1     -46.513 -51.639  12.537  1.00  0.00     0.070 C 
HETATM   12  C   UNL     1     -44.128 -51.970  13.355  1.00  0.00     0.083 A 
HETATM   13 CL   UNL     1     -43.793 -50.280  13.185  1.00  0.00    -0.080 Cl
ENDBRANCH   3   5
BRANCH   1  14
HETATM   14  C   UNL     1     -39.395 -51.983  13.686  1.00  0.00     0.214 C 
HETATM   15  C   UNL     1     -39.652 -50.651  14.377  1.00  0.00     0.044 C 
HETATM   16  C   UNL     1     -39.269 -49.603  13.351  1.00  0.00     0.034 C 
HETATM   17  C   UNL     1     -38.792 -50.395  12.145  1.00  0.00     0.118 C 
HETATM   18  C   UNL     1     -37.592 -49.779  11.453  1.00  0.00     0.039 C 
HETATM   19  O   UNL     1     -38.463 -51.704  12.633  1.00  0.00    -0.372 OA
ENDBRANCH   1  14
TORSDOF 2
ENDMDL
MODEL 4
REMARK VINA RESULT:      -5.7      7.219      9.111
REMARK  2 active torsions:
REMARK  status: ('A' for Active; 'I' for Inactive)
REMARK    1  A    between atoms: C_5  and  C_7 
REMARK       I    between atoms: C_7  and  N_9 
REMARK    2  A    between atoms: N_9  and  C_10 
ROOT
HETATM    1  C   UNL     1     -41.014 -53.846  13.798  1.00  0.00     0.251 C 
HETATM    2  O   UNL     1     -41.083 -54.248  12.639  1.00  0.00    -0.270 OA
HETATM    3  N   UNL     1     -42.096 -53.500  14.589  1.00  0.00    -0.323 N 
HETATM    4  H   UNL     1     -41.884 -53.020  15.461  1.00  0.00     0.169 HD
ENDROOT
BRANCH   3   5
HETATM    5  C   UNL     1     -43.465 -53.649  14.248  1.00  0.00     0.059 A 
HETATM    6  C   UNL     1     -44.117 -54.877  14.355  1.00  0.00     0.048 A 
HETATM    7  C   UNL     1     -45.441 -54.968  13.975  1.00  0.00     0.090 A 
HETATM    8  N   UNL     1     -46.152 -53.933  13.487  1.00  0.00    -0.368 N 
HETATM    9  C   UNL     1     -45.526 -52.732  13.390  1.00  0.00     0.029 A 
ATOM     10  HN  UNL     1     -47.124 -54.047  13.200  1.00  0.00     0.165 HD
HETATM   11  C   UNL     1     -46.344 -51.636  12.770  1.00  0.00     0.070 C 
HETATM   12  C   UNL     1     -44.197 -52.539  13.792  1.00  0.00     0.083 A 
HETATM   13 CL   UNL     1     -43.449 -50.981  13.694  1.00  0.00    -0.080 Cl
ENDBRANCH   3   5
BRANCH   1  14
HETATM   14  C   UNL     1     -39.656 -53.600  14.485  1.00  0.00     0.214 C 
HETATM   15  C   UNL     1     -39.752 -52.548  15.580  1.00  0.00     0.044 C 
HETATM   16  C   UNL     1     -39.212 -51.280  14.947  1.00  0.00     0.034 C 
HETATM   17  C   UNL     1     -38.816 -51.689  13.537  1.00  0.00     0.118 C 
HETATM   18  C   UNL     1     -37.531 -51.043  13.058  1.00  0.00     0.039 C 
HETATM   19  O   UNL     1     -38.673 -53.116  13.561  1.00  0.00    -0.372 OA
ENDBRANCH   1  14
TORSDOF 2
ENDMDL
MODEL 5
REMARK VINA RESULT:      -5.4      5.407      6.065
REMARK  2 active torsions:
REMARK  status: ('A' for Active; 'I' for Inactive)
REMARK    1  A    between atoms: C_5  and  C_7 
REMARK       I    between atoms: C_7  and  N_9 
REMARK    2  A    between atoms: N_9  and  C_10 
ROOT
HETATM    1  C   UNL     1     -43.168 -51.296  13.803  1.00  0.00     0.251 C 
HETATM    2  O   UNL     1     -42.725 -50.723  14.795  1.00  0.00    -0.270 OA
HETATM    3  N   UNL     1     -42.825 -51.005  12.493  1.00  0.00    -0.323 N 
HETATM    4  H   UNL     1     -43.396 -51.436  11.770  1.00  0.00     0.169 HD
ENDROOT
BRANCH   3   5
HETATM    5  C   UNL     1     -41.833 -50.082  12.072  1.00  0.00     0.059 A 
HETATM    6  C   UNL     1     -42.166 -48.811  11.606  1.00  0.00     0.048 A 
HETATM    7  C   UNL     1     -41.158 -47.970  11.178  1.00  0.00     0.090 A 
HETATM    8  N   UNL     1     -39.854 -48.308  11.169  1.00  0.00    -0.368 N 
HETATM    9  C   UNL     1     -39.523 -49.541  11.632  1.00  0.00     0.029 A 
ATOM     10  HN  UNL     1     -39.142 -47.663  10.827  1.00  0.00     0.165 HD
HETATM   11  C   UNL     1     -38.066 -49.889  11.528  1.00  0.00     0.070 C 
HETATM   12  C   UNL     1     -40.476 -50.444  12.124  1.00  0.00     0.083 A 
HETATM   13 CL   UNL     1     -40.006 -51.989  12.747  1.00  0.00    -0.080 Cl
ENDBRANCH   3   5
BRANCH   1  14
HETATM   14  C   UNL     1     -44.254 -52.384  13.919  1.00  0.00     0.214 C 
HETATM   15  C   UNL     1     -45.243 -52.330  12.763  1.00  0.00     0.044 C 
HETATM   16  C   UNL     1     -46.458 -51.618  13.328  1.00  0.00     0.034 C 
HETATM   17  C   UNL     1     -46.101 -51.331  14.777  1.00  0.00     0.118 C 
HETATM   18  C   UNL     1     -47.262 -51.518  15.734  1.00  0.00     0.039 C 
HETATM   19  O   UNL     1     -45.034 -52.231  15.111  1.00  0.00    -0.372 OA
ENDBRANCH   1  14
TORSDOF 2
ENDMDL
MODEL 6
REMARK VINA RESULT:      -5.3      5.269      5.983
REMARK  2 active torsions:
REMARK  status: ('A' for Active; 'I' for Inactive)
REMARK    1  A    between atoms: C_5  and  C_7 
REMARK       I    between atoms: C_7  and  N_9 
REMARK    2  A    between atoms: N_9  and  C_10 
ROOT
HETATM    1  C   UNL     1     -43.078 -51.669  13.769  1.00  0.00     0.251 C 
HETATM    2  O   UNL     1     -42.497 -51.289  14.782  1.00  0.00    -0.270 OA
HETATM    3  N   UNL     1     -42.773 -51.272  12.477  1.00  0.00    -0.323 N 
HETATM    4  H   UNL     1     -43.444 -51.527  11.756  1.00  0.00     0.169 HD
ENDROOT
BRANCH   3   5
HETATM    5  C   UNL     1     -41.682 -50.454  12.088  1.00  0.00     0.059 A 
HETATM    6  C   UNL     1     -40.376 -50.942  12.056  1.00  0.00     0.048 A 
HETATM    7  C   UNL     1     -39.350 -50.088  11.701  1.00  0.00     0.090 A 
HETATM    8  N   UNL     1     -39.531 -48.789  11.393  1.00  0.00    -0.368 N 
HETATM    9  C   UNL     1     -40.802 -48.311  11.412  1.00  0.00     0.029 A 
ATOM     10  HN  UNL     1     -38.743 -48.187  11.154  1.00  0.00     0.165 HD
HETATM   11  C   UNL     1     -40.933 -46.841  11.134  1.00  0.00     0.070 C 
HETATM   12  C   UNL     1     -41.907 -49.116  11.720  1.00  0.00     0.083 A 
HETATM   13 CL   UNL     1     -43.516 -48.478  11.690  1.00  0.00    -0.080 Cl
ENDBRANCH   3   5
BRANCH   1  14
HETATM   14  C   UNL     1     -44.305 -52.598  13.845  1.00  0.00     0.214 C 
HETATM   15  C   UNL     1     -45.282 -52.351  12.704  1.00  0.00     0.044 C 
HETATM   16  C   UNL     1     -46.382 -51.504  13.313  1.00  0.00     0.034 C 
HETATM   17  C   UNL     1     -45.983 -51.339  14.770  1.00  0.00     0.118 C 
HETATM   18  C   UNL     1     -47.156 -51.407  15.729  1.00  0.00     0.039 C 
HETATM   19  O   UNL     1     -45.053 -52.394  15.051  1.00  0.00    -0.372 OA
ENDBRANCH   1  14
TORSDOF 2
ENDMDL
MODEL 7
REMARK VINA RESULT:      -5.3      6.629      7.271
REMARK  2 active torsions:
REMARK  status: ('A' for Active; 'I' for Inactive)
REMARK    1  A    between atoms: C_5  and  C_7 
REMARK       I    between atoms: C_7  and  N_9 
REMARK    2  A    between atoms: N_9  and  C_10 
ROOT
HETATM    1  C   UNL     1     -42.282 -53.140  13.737  1.00  0.00     0.251 C 
HETATM    2  O   UNL     1     -41.932 -53.921  12.856  1.00  0.00    -0.270 OA
HETATM    3  N   UNL     1     -41.827 -51.840  13.878  1.00  0.00    -0.323 N 
HETATM    4  H   UNL     1     -42.067 -51.369  14.748  1.00  0.00     0.169 HD
ENDROOT
BRANCH   3   5
HETATM    5  C   UNL     1     -40.972 -51.149  12.981  1.00  0.00     0.059 A 
HETATM    6  C   UNL     1     -41.477 -50.348  11.958  1.00  0.00     0.048 A 
HETATM    7  C   UNL     1     -40.595 -49.729  11.095  1.00  0.00     0.090 A 
HETATM    8  N   UNL     1     -39.256 -49.862  11.171  1.00  0.00    -0.368 N 
HETATM    9  C   UNL     1     -38.758 -50.633  12.171  1.00  0.00     0.029 A 
ATOM     10  HN  UNL     1     -38.640 -49.402  10.501  1.00  0.00     0.165 HD
HETATM   11  C   UNL     1     -37.267 -50.804  12.160  1.00  0.00     0.070 C 
HETATM   12  C   UNL     1     -39.578 -51.264  13.117  1.00  0.00     0.083 A 
HETATM   13 CL   UNL     1     -38.900 -52.202  14.405  1.00  0.00    -0.080 Cl
ENDBRANCH   3   5
BRANCH   1  14
HETATM   14  C   UNL     1     -43.239 -53.575  14.865  1.00  0.00     0.214 C 
HETATM   15  C   UNL     1     -43.820 -54.960  14.620  1.00  0.00     0.044 C 
HETATM   16  C   UNL     1     -45.212 -54.706  14.077  1.00  0.00     0.034 C 
HETATM   17  C   UNL     1     -45.355 -53.192  14.068  1.00  0.00     0.118 C 
HETATM   18  C   UNL     1     -46.732 -52.712  14.481  1.00  0.00     0.039 C 
HETATM   19  O   UNL     1     -44.364 -52.693  14.977  1.00  0.00    -0.372 OA
ENDBRANCH   1  14
TORSDOF 2
ENDMDL
MODEL 8
REMARK VINA RESULT:      -5.2      4.455      5.920
REMARK  2 active torsions:
REMARK  status: ('A' for Active; 'I' for Inactive)
REMARK    1  A    between atoms: C_5  and  C_7 
REMARK       I    between atoms: C_7  and  N_9 
REMARK    2  A    between atoms: N_9  and  C_10 
ROOT
HETATM    1  C   UNL     1     -41.785 -50.608  12.020  1.00  0.00     0.251 C 
HETATM    2  O   UNL     1     -42.509 -50.195  12.922  1.00  0.00    -0.270 OA
HETATM    3  N   UNL     1     -41.307 -49.846  10.966  1.00  0.00    -0.323 N 
HETATM    4  H   UNL     1     -40.866 -50.355  10.204  1.00  0.00     0.169 HD
ENDROOT
BRANCH   3   5
HETATM    5  C   UNL     1     -41.474 -48.447  10.801  1.00  0.00     0.059 A 
HETATM    6  C   UNL     1     -42.553 -47.917  10.094  1.00  0.00     0.048 A 
HETATM    7  C   UNL     1     -42.643 -46.548   9.938  1.00  0.00     0.090 A 
HETATM    8  N   UNL     1     -41.734 -45.678  10.420  1.00  0.00    -0.368 N 
HETATM    9  C   UNL     1     -40.687 -46.188  11.119  1.00  0.00     0.029 A 
ATOM     10  HN  UNL     1     -41.828 -44.674  10.267  1.00  0.00     0.165 HD
HETATM   11  C   UNL     1     -39.670 -45.179  11.566  1.00  0.00     0.070 C 
HETATM   12  C   UNL     1     -40.538 -47.561  11.362  1.00  0.00     0.083 A 
HETATM   13 CL   UNL     1     -39.212 -48.166  12.295  1.00  0.00    -0.080 Cl
ENDBRANCH   3   5
BRANCH   1  14
HETATM   14  C   UNL     1     -41.387 -52.095  11.923  1.00  0.00     0.214 C 
HETATM   15  C   UNL     1     -42.293 -52.984  12.763  1.00  0.00     0.044 C 
HETATM   16  C   UNL     1     -41.499 -53.264  14.024  1.00  0.00     0.034 C 
HETATM   17  C   UNL     1     -40.177 -52.539  13.820  1.00  0.00     0.118 C 
HETATM   18  C   UNL     1     -38.978 -53.312  14.334  1.00  0.00     0.039 C 
HETATM   19  O   UNL     1     -40.057 -52.321  12.407  1.00  0.00    -0.372 OA
ENDBRANCH   1  14
TORSDOF 2
ENDMDL
MODEL 9
REMARK VINA RESULT:      -5.0      5.056      5.635
REMARK  2 active torsions:
REMARK  status: ('A' for Active; 'I' for Inactive)
REMARK    1  A    between atoms: C_5  and  C_7 
REMARK       I    between atoms: C_7  and  N_9 
REMARK    2  A    between atoms: N_9  and  C_10 
ROOT
HETATM    1  C   UNL     1     -41.407 -49.149  11.850  1.00  0.00     0.251 C 
HETATM    2  O   UNL     1     -41.631 -48.843  13.018  1.00  0.00    -0.270 OA
HETATM    3  N   UNL     1     -41.166 -50.435  11.394  1.00  0.00    -0.323 N 
HETATM    4  H   UNL     1     -40.824 -50.519  10.439  1.00  0.00     0.169 HD
ENDROOT
BRANCH   3   5
HETATM    5  C   UNL     1     -41.243 -51.624  12.162  1.00  0.00     0.059 A 
HETATM    6  C   UNL     1     -42.406 -52.391  12.211  1.00  0.00     0.048 A 
HETATM    7  C   UNL     1     -42.432 -53.521  13.004  1.00  0.00     0.090 A 
HETATM    8  N   UNL     1     -41.392 -53.929  13.758  1.00  0.00    -0.368 N 
HETATM    9  C   UNL     1     -40.253 -53.192  13.707  1.00  0.00     0.029 A 
ATOM     10  HN  UNL     1     -41.458 -54.760  14.346  1.00  0.00     0.165 HD
HETATM   11  C   UNL     1     -39.156 -53.652  14.623  1.00  0.00     0.070 C 
HETATM   12  C   UNL     1     -40.124 -52.055  12.897  1.00  0.00     0.083 A 
HETATM   13 CL   UNL     1     -38.639 -51.169  12.827  1.00  0.00    -0.080 Cl
ENDBRANCH   3   5
BRANCH   1  14
HETATM   14  C   UNL     1     -41.285 -48.080  10.745  1.00  0.00     0.214 C 
HETATM   15  C   UNL     1     -41.342 -46.667  11.309  1.00  0.00     0.044 C 
HETATM   16  C   UNL     1     -42.762 -46.204  11.049  1.00  0.00     0.034 C 
HETATM   17  C   UNL     1     -43.425 -47.368  10.331  1.00  0.00     0.118 C 
HETATM   18  C   UNL     1     -44.360 -46.938   9.218  1.00  0.00     0.039 C 
HETATM   19  O   UNL     1     -42.359 -48.168   9.800  1.00  0.00    -0.372 OA
ENDBRANCH   1  14
TORSDOF 2
ENDMDL
