MODEL 1
REMARK VINA RESULT:      -6.4      0.000      0.000
REMARK  3 active torsions:
REMARK  status: ('A' for Active; 'I' for Inactive)
REMARK       I    between atoms: C_2  and  N_3 
REMARK       I    between atoms: C_2  and  N_12 
REMARK    1  A    between atoms: N_3  and  C_4 
REMARK    2  A    between atoms: C_4  and  C_5 
REMARK    3  A    between atoms: C_5  and  N_6 
ROOT
HETATM    1  O   UNL     1     -43.110 -48.042  12.649  1.00  0.00    -0.247 OA
HETATM    2  C   UNL     1     -42.546 -48.955  12.052  1.00  0.00     0.318 C 
HETATM    3  N   UNL     1     -42.093 -48.793  10.766  1.00  0.00    -0.341 N 
HETATM    4  N   UNL     1     -42.328 -50.204  12.598  1.00  0.00    -0.334 N 
HETATM    5  C   UNL     1     -41.425 -51.230  12.075  1.00  0.00     0.128 C 
HETATM    6  C   UNL     1     -42.127 -52.588  12.035  1.00  0.00     0.029 C 
HETATM    7  C   UNL     1     -42.708 -53.003  13.413  1.00  0.00    -0.037 C 
HETATM    8  C   UNL     1     -43.567 -54.280  13.234  1.00  0.00     0.010 C 
HETATM    9  C   UNL     1     -44.062 -54.867  14.556  1.00  0.00     0.001 C 
HETATM   10  C   UNL     1     -42.919 -55.123  15.533  1.00  0.00     0.000 C 
HETATM   11  C   UNL     1     -42.039 -53.894  15.728  1.00  0.00     0.001 C 
HETATM   12  C   UNL     1     -41.553 -53.331  14.394  1.00  0.00     0.010 C 
HETATM   13  C   UNL     1     -43.596 -51.834  13.924  1.00  0.00     0.029 C 
HETATM   14  C   UNL     1     -42.871 -50.488  13.923  1.00  0.00     0.128 C 
HETATM   15  H   UNL     1     -42.153 -49.625  10.202  1.00  0.00     0.164 HD
ENDROOT
BRANCH   3  16
HETATM   16  C   UNL     1     -42.333 -47.542  10.066  1.00  0.00     0.144 C 
BRANCH  16  17
HETATM   17  C   UNL     1     -43.091 -47.739   8.756  1.00  0.00     0.149 C 
BRANCH  17  18
HETATM   18  N   UNL     1     -44.447 -47.239   8.841  1.00  0.00    -0.350 N 
HETATM   19  C   UNL     1     -45.584 -47.989   8.946  1.00  0.00     0.108 A 
HETATM   20  C   UNL     1     -46.607 -47.072   9.002  1.00  0.00     0.106 A 
HETATM   21  N   UNL     1     -46.120 -45.791   8.931  1.00  0.00    -0.361 N 
HETATM   22  C   UNL     1     -44.813 -45.924   8.826  1.00  0.00     0.182 A 
ATOM     23  HN  UNL     1     -46.655 -44.923   8.955  1.00  0.00     0.166 HD
ENDBRANCH  17  18
ENDBRANCH  16  17
ENDBRANCH   3  16
TORSDOF 3
ENDMDL
MODEL 2
REMARK VINA RESULT:      -6.2      2.131      2.774
REMARK  3 active torsions:
REMARK  status: ('A' for Active; 'I' for Inactive)
REMARK       I    between atoms: C_2  and  N_3 
REMARK       I    between atoms: C_2  and  N_12 
REMARK    1  A    between atoms: N_3  and  C_4 
REMARK    2  A    between atoms: C_4  and  C_5 
REMARK    3  A    between atoms: C_5  and  N_6 
ROOT
HETATM    1  O   UNL     1     -41.668 -48.484  13.350  1.00  0.00    -0.247 OA
HETATM    2  C   UNL     1     -42.448 -49.243  12.780  1.00  0.00     0.318 C 
HETATM    3  N   UNL     1     -42.616 -49.202  11.419  1.00  0.00    -0.341 N 
HETATM    4  N   UNL     1     -43.219 -50.180  13.439  1.00  0.00    -0.334 N 
HETATM    5  C   UNL     1     -43.937 -51.295  12.822  1.00  0.00     0.128 C 
HETATM    6  C   UNL     1     -45.369 -51.367  13.354  1.00  0.00     0.029 C 
HETATM    7  C   UNL     1     -45.429 -51.450  14.903  1.00  0.00    -0.037 C 
HETATM    8  C   UNL     1     -46.905 -51.315  15.358  1.00  0.00     0.010 C 
HETATM    9  C   UNL     1     -47.098 -51.539  16.858  1.00  0.00     0.001 C 
HETATM   10  C   UNL     1     -46.515 -52.872  17.318  1.00  0.00     0.000 C 
HETATM   11  C   UNL     1     -45.068 -53.052  16.879  1.00  0.00     0.001 C 
HETATM   12  C   UNL     1     -44.902 -52.829  15.377  1.00  0.00     0.010 C 
HETATM   13  C   UNL     1     -44.589 -50.274  15.474  1.00  0.00     0.029 C 
HETATM   14  C   UNL     1     -43.174 -50.216  14.898  1.00  0.00     0.128 C 
HETATM   15  H   UNL     1     -43.553 -49.411  11.114  1.00  0.00     0.164 HD
ENDROOT
BRANCH   3  16
HETATM   16  C   UNL     1     -41.909 -48.205  10.632  1.00  0.00     0.144 C 
BRANCH  16  17
HETATM   17  C   UNL     1     -42.806 -47.041  10.218  1.00  0.00     0.149 C 
BRANCH  17  18
HETATM   18  N   UNL     1     -43.888 -47.478   9.361  1.00  0.00    -0.350 N 
HETATM   19  C   UNL     1     -45.204 -47.587   9.706  1.00  0.00     0.108 A 
HETATM   20  C   UNL     1     -45.833 -48.028   8.566  1.00  0.00     0.106 A 
HETATM   21  N   UNL     1     -44.933 -48.190   7.543  1.00  0.00    -0.361 N 
HETATM   22  C   UNL     1     -43.765 -47.858   8.055  1.00  0.00     0.182 A 
ATOM     23  HN  UNL     1     -45.126 -48.502   6.591  1.00  0.00     0.166 HD
ENDBRANCH  17  18
ENDBRANCH  16  17
ENDBRANCH   3  16
TORSDOF 3
ENDMDL
MODEL 3
REMARK VINA RESULT:      -5.9      7.188     10.784
REMARK  3 active torsions:
REMARK  status: ('A' for Active; 'I' for Inactive)
REMARK       I    between atoms: C_2  and  N_3 
REMARK       I    between atoms: C_2  and  N_12 
REMARK    1  A    between atoms: N_3  and  C_4 
REMARK    2  A    between atoms: C_4  and  C_5 
REMARK    3  A    between atoms: C_5  and  N_6 
ROOT
HETATM    1  O   UNL     1     -45.928 -55.736  18.883  1.00  0.00    -0.247 OA
HETATM    2  C   UNL     1     -46.452 -54.625  18.901  1.00  0.00     0.318 C 
HETATM    3  N   UNL     1     -47.419 -54.308  19.822  1.00  0.00    -0.341 N 
HETATM    4  N   UNL     1     -46.134 -53.616  18.013  1.00  0.00    -0.334 N 
HETATM    5  C   UNL     1     -46.490 -52.203  18.148  1.00  0.00     0.128 C 
HETATM    6  C   UNL     1     -47.063 -51.670  16.835  1.00  0.00     0.029 C 
HETATM    7  C   UNL     1     -46.112 -51.897  15.629  1.00  0.00    -0.037 C 
HETATM    8  C   UNL     1     -46.853 -51.514  14.323  1.00  0.00     0.010 C 
HETATM    9  C   UNL     1     -45.955 -51.551  13.085  1.00  0.00     0.001 C 
HETATM   10  C   UNL     1     -44.703 -50.697  13.261  1.00  0.00     0.000 C 
HETATM   11  C   UNL     1     -43.950 -51.032  14.542  1.00  0.00     0.001 C 
HETATM   12  C   UNL     1     -44.866 -50.983  15.764  1.00  0.00     0.010 C 
HETATM   13  C   UNL     1     -45.732 -53.404  15.601  1.00  0.00     0.029 C 
HETATM   14  C   UNL     1     -45.190 -53.908  16.939  1.00  0.00     0.128 C 
HETATM   15  H   UNL     1     -48.125 -53.678  19.477  1.00  0.00     0.164 HD
ENDROOT
BRANCH   3  16
HETATM   16  C   UNL     1     -47.883 -55.317  20.761  1.00  0.00     0.144 C 
BRANCH  16  17
HETATM   17  C   UNL     1     -49.403 -55.326  20.906  1.00  0.00     0.149 C 
BRANCH  17  18
HETATM   18  N   UNL     1     -49.978 -56.570  20.439  1.00  0.00    -0.350 N 
HETATM   19  C   UNL     1     -51.294 -56.929  20.497  1.00  0.00     0.108 A 
HETATM   20  C   UNL     1     -51.344 -58.181  19.932  1.00  0.00     0.106 A 
HETATM   21  N   UNL     1     -50.095 -58.589  19.536  1.00  0.00    -0.361 N 
HETATM   22  C   UNL     1     -49.289 -57.599  19.863  1.00  0.00     0.182 A 
ATOM     23  HN  UNL     1     -49.844 -59.470  19.086  1.00  0.00     0.166 HD
ENDBRANCH  17  18
ENDBRANCH  16  17
ENDBRANCH   3  16
TORSDOF 3
ENDMDL
MODEL 4
REMARK VINA RESULT:      -5.8      3.045      7.428
REMARK  3 active torsions:
REMARK  status: ('A' for Active; 'I' for Inactive)
REMARK       I    between atoms: C_2  and  N_3 
REMARK       I    between atoms: C_2  and  N_12 
REMARK    1  A    between atoms: N_3  and  C_4 
REMARK    2  A    between atoms: C_4  and  C_5 
REMARK    3  A    between atoms: C_5  and  N_6 
ROOT
HETATM    1  O   UNL     1     -40.455 -52.801  12.005  1.00  0.00    -0.247 OA
HETATM    2  C   UNL     1     -41.290 -52.164  12.641  1.00  0.00     0.318 C 
HETATM    3  N   UNL     1     -42.198 -52.793  13.456  1.00  0.00    -0.341 N 
HETATM    4  N   UNL     1     -41.401 -50.788  12.592  1.00  0.00    -0.334 N 
HETATM    5  C   UNL     1     -42.157 -49.949  13.522  1.00  0.00     0.128 C 
HETATM    6  C   UNL     1     -43.010 -48.938  12.756  1.00  0.00     0.029 C 
HETATM    7  C   UNL     1     -42.176 -48.075  11.772  1.00  0.00    -0.037 C 
HETATM    8  C   UNL     1     -43.141 -47.230  10.900  1.00  0.00     0.010 C 
HETATM    9  C   UNL     1     -42.421 -46.225  10.001  1.00  0.00     0.001 C 
HETATM   10  C   UNL     1     -41.481 -45.319  10.792  1.00  0.00     0.000 C 
HETATM   11  C   UNL     1     -40.523 -46.110  11.674  1.00  0.00     0.001 C 
HETATM   12  C   UNL     1     -41.266 -47.102  12.566  1.00  0.00     0.010 C 
HETATM   13  C   UNL     1     -41.356 -49.040  10.870  1.00  0.00     0.029 C 
HETATM   14  C   UNL     1     -40.539 -50.054  11.671  1.00  0.00     0.128 C 
HETATM   15  H   UNL     1     -43.098 -52.342  13.494  1.00  0.00     0.164 HD
ENDROOT
BRANCH   3  16
HETATM   16  C   UNL     1     -42.221 -54.245  13.528  1.00  0.00     0.144 C 
BRANCH  16  17
HETATM   17  C   UNL     1     -42.861 -54.757  14.815  1.00  0.00     0.149 C 
BRANCH  17  18
HETATM   18  N   UNL     1     -44.299 -54.582  14.804  1.00  0.00    -0.350 N 
HETATM   19  C   UNL     1     -45.047 -53.945  15.752  1.00  0.00     0.108 A 
HETATM   20  C   UNL     1     -46.341 -54.032  15.299  1.00  0.00     0.106 A 
HETATM   21  N   UNL     1     -46.396 -54.705  14.104  1.00  0.00    -0.361 N 
HETATM   22  C   UNL     1     -45.148 -55.032  13.835  1.00  0.00     0.182 A 
ATOM     23  HN  UNL     1     -47.225 -54.910  13.546  1.00  0.00     0.166 HD
ENDBRANCH  17  18
ENDBRANCH  16  17
ENDBRANCH   3  16
TORSDOF 3
ENDMDL
MODEL 5
REMARK VINA RESULT:      -5.8      1.931      2.548
REMARK  3 active torsions:
REMARK  status: ('A' for Active; 'I' for Inactive)
REMARK       I    between atoms: C_2  and  N_3 
REMARK       I    between atoms: C_2  and  N_12 
REMARK    1  A    between atoms: N_3  and  C_4 
REMARK    2  A    between atoms: C_4  and  C_5 
REMARK    3  A    between atoms: C_5  and  N_6 
ROOT
HETATM    1  O   UNL     1     -41.106 -48.426  14.515  1.00  0.00    -0.247 OA
HETATM    2  C   UNL     1     -40.844 -49.238  13.631  1.00  0.00     0.318 C 
HETATM    3  N   UNL     1     -40.047 -48.899  12.566  1.00  0.00    -0.341 N 
HETATM    4  N   UNL     1     -41.321 -50.534  13.618  1.00  0.00    -0.334 N 
HETATM    5  C   UNL     1     -40.830 -51.626  12.779  1.00  0.00     0.128 C 
HETATM    6  C   UNL     1     -42.000 -52.364  12.125  1.00  0.00     0.029 C 
HETATM    7  C   UNL     1     -43.038 -52.875  13.160  1.00  0.00    -0.037 C 
HETATM    8  C   UNL     1     -44.275 -53.423  12.404  1.00  0.00     0.010 C 
HETATM    9  C   UNL     1     -45.296 -54.096  13.322  1.00  0.00     0.001 C 
HETATM   10  C   UNL     1     -44.664 -55.188  14.179  1.00  0.00     0.000 C 
HETATM   11  C   UNL     1     -43.434 -54.694  14.931  1.00  0.00     0.001 C 
HETATM   12  C   UNL     1     -42.428 -54.032  13.992  1.00  0.00     0.010 C 
HETATM   13  C   UNL     1     -43.453 -51.670  14.050  1.00  0.00     0.029 C 
HETATM   14  C   UNL     1     -42.258 -50.940  14.662  1.00  0.00     0.128 C 
HETATM   15  H   UNL     1     -40.302 -49.351  11.703  1.00  0.00     0.164 HD
ENDROOT
BRANCH   3  16
HETATM   16  C   UNL     1     -39.548 -47.539  12.439  1.00  0.00     0.144 C 
BRANCH  16  17
HETATM   17  C   UNL     1     -40.032 -46.855  11.163  1.00  0.00     0.149 C 
BRANCH  17  18
HETATM   18  N   UNL     1     -41.472 -46.932  11.028  1.00  0.00    -0.350 N 
HETATM   19  C   UNL     1     -42.163 -47.656  10.099  1.00  0.00     0.108 A 
HETATM   20  C   UNL     1     -43.487 -47.416  10.378  1.00  0.00     0.106 A 
HETATM   21  N   UNL     1     -43.615 -46.565  11.447  1.00  0.00    -0.361 N 
HETATM   22  C   UNL     1     -42.381 -46.284  11.813  1.00  0.00     0.182 A 
ATOM     23  HN  UNL     1     -44.480 -46.224  11.867  1.00  0.00     0.166 HD
ENDBRANCH  17  18
ENDBRANCH  16  17
ENDBRANCH   3  16
TORSDOF 3
ENDMDL
MODEL 6
REMARK VINA RESULT:      -5.7      4.379      5.332
REMARK  3 active torsions:
REMARK  status: ('A' for Active; 'I' for Inactive)
REMARK       I    between atoms: C_2  and  N_3 
REMARK       I    between atoms: C_2  and  N_12 
REMARK    1  A    between atoms: N_3  and  C_4 
REMARK    2  A    between atoms: C_4  and  C_5 
REMARK    3  A    between atoms: C_5  and  N_6 
ROOT
HETATM    1  O   UNL     1     -39.012 -53.001  13.715  1.00  0.00    -0.247 OA
HETATM    2  C   UNL     1     -39.884 -52.381  13.112  1.00  0.00     0.318 C 
HETATM    3  N   UNL     1     -39.584 -51.263  12.376  1.00  0.00    -0.341 N 
HETATM    4  N   UNL     1     -41.219 -52.735  13.125  1.00  0.00    -0.334 N 
HETATM    5  C   UNL     1     -42.253 -52.235  12.218  1.00  0.00     0.128 C 
HETATM    6  C   UNL     1     -43.496 -51.818  13.005  1.00  0.00     0.029 C 
HETATM    7  C   UNL     1     -44.043 -52.956  13.908  1.00  0.00    -0.037 C 
HETATM    8  C   UNL     1     -45.167 -52.387  14.811  1.00  0.00     0.010 C 
HETATM    9  C   UNL     1     -45.885 -53.459  15.632  1.00  0.00     0.001 C 
HETATM   10  C   UNL     1     -46.421 -54.588  14.756  1.00  0.00     0.000 C 
HETATM   11  C   UNL     1     -45.350 -55.168  13.841  1.00  0.00     0.001 C 
HETATM   12  C   UNL     1     -44.652 -54.079  13.028  1.00  0.00     0.010 C 
HETATM   13  C   UNL     1     -42.869 -53.472  14.786  1.00  0.00     0.029 C 
HETATM   14  C   UNL     1     -41.634 -53.852  13.968  1.00  0.00     0.128 C 
HETATM   15  H   UNL     1     -40.307 -50.562  12.380  1.00  0.00     0.164 HD
ENDROOT
BRANCH   3  16
HETATM   16  C   UNL     1     -38.221 -50.758  12.351  1.00  0.00     0.144 C 
BRANCH  16  17
HETATM   17  C   UNL     1     -38.148 -49.289  11.941  1.00  0.00     0.149 C 
BRANCH  17  18
HETATM   18  N   UNL     1     -38.551 -48.412  13.020  1.00  0.00    -0.350 N 
HETATM   19  C   UNL     1     -39.638 -47.586  13.033  1.00  0.00     0.108 A 
HETATM   20  C   UNL     1     -39.601 -46.971  14.262  1.00  0.00     0.106 A 
HETATM   21  N   UNL     1     -38.520 -47.401  14.990  1.00  0.00    -0.361 N 
HETATM   22  C   UNL     1     -37.900 -48.264  14.211  1.00  0.00     0.182 A 
ATOM     23  HN  UNL     1     -38.253 -47.113  15.932  1.00  0.00     0.166 HD
ENDBRANCH  17  18
ENDBRANCH  16  17
ENDBRANCH   3  16
TORSDOF 3
ENDMDL
MODEL 7
REMARK VINA RESULT:      -5.5      2.977      7.376
REMARK  3 active torsions:
REMARK  status: ('A' for Active; 'I' for Inactive)
REMARK       I    between atoms: C_2  and  N_3 
REMARK       I    between atoms: C_2  and  N_12 
REMARK    1  A    between atoms: N_3  and  C_4 
REMARK    2  A    between atoms: C_4  and  C_5 
REMARK    3  A    between atoms: C_5  and  N_6 
ROOT
HETATM    1  O   UNL     1     -43.941 -50.167  13.510  1.00  0.00    -0.247 OA
HETATM    2  C   UNL     1     -42.890 -50.211  12.875  1.00  0.00     0.318 C 
HETATM    3  N   UNL     1     -42.245 -51.400  12.646  1.00  0.00    -0.341 N 
HETATM    4  N   UNL     1     -42.266 -49.095  12.353  1.00  0.00    -0.334 N 
HETATM    5  C   UNL     1     -41.195 -49.091  11.357  1.00  0.00     0.128 C 
HETATM    6  C   UNL     1     -40.066 -48.155  11.791  1.00  0.00     0.029 C 
HETATM    7  C   UNL     1     -40.564 -46.714  12.084  1.00  0.00    -0.037 C 
HETATM    8  C   UNL     1     -39.403 -45.896  12.707  1.00  0.00     0.010 C 
HETATM    9  C   UNL     1     -39.737 -44.416  12.892  1.00  0.00     0.001 C 
HETATM   10  C   UNL     1     -40.213 -43.769  11.594  1.00  0.00     0.000 C 
HETATM   11  C   UNL     1     -41.346 -44.549  10.941  1.00  0.00     0.001 C 
HETATM   12  C   UNL     1     -40.986 -46.023  10.762  1.00  0.00     0.010 C 
HETATM   13  C   UNL     1     -41.741 -46.815  13.094  1.00  0.00     0.029 C 
HETATM   14  C   UNL     1     -42.835 -47.782  12.641  1.00  0.00     0.128 C 
HETATM   15  H   UNL     1     -41.240 -51.326  12.629  1.00  0.00     0.164 HD
ENDROOT
BRANCH   3  16
HETATM   16  C   UNL     1     -42.773 -52.631  13.212  1.00  0.00     0.144 C 
BRANCH  16  17
HETATM   17  C   UNL     1     -43.894 -53.230  12.366  1.00  0.00     0.149 C 
BRANCH  17  18
HETATM   18  N   UNL     1     -45.015 -53.648  13.182  1.00  0.00    -0.350 N 
HETATM   19  C   UNL     1     -45.131 -54.829  13.858  1.00  0.00     0.108 A 
HETATM   20  C   UNL     1     -46.354 -54.759  14.483  1.00  0.00     0.106 A 
HETATM   21  N   UNL     1     -46.979 -53.570  14.202  1.00  0.00    -0.361 N 
HETATM   22  C   UNL     1     -46.150 -52.924  13.407  1.00  0.00     0.182 A 
ATOM     23  HN  UNL     1     -47.890 -53.255  14.536  1.00  0.00     0.166 HD
ENDBRANCH  17  18
ENDBRANCH  16  17
ENDBRANCH   3  16
TORSDOF 3
ENDMDL
MODEL 8
REMARK VINA RESULT:      -5.4      3.039      7.309
REMARK  3 active torsions:
REMARK  status: ('A' for Active; 'I' for Inactive)
REMARK       I    between atoms: C_2  and  N_3 
REMARK       I    between atoms: C_2  and  N_12 
REMARK    1  A    between atoms: N_3  and  C_4 
REMARK    2  A    between atoms: C_4  and  C_5 
REMARK    3  A    between atoms: C_5  and  N_6 
ROOT
HETATM    1  O   UNL     1     -43.211 -51.266  15.369  1.00  0.00    -0.247 OA
HETATM    2  C   UNL     1     -42.491 -51.530  14.409  1.00  0.00     0.318 C 
HETATM    3  N   UNL     1     -41.892 -52.759  14.285  1.00  0.00    -0.341 N 
HETATM    4  N   UNL     1     -42.212 -50.636  13.395  1.00  0.00    -0.334 N 
HETATM    5  C   UNL     1     -41.617 -50.960  12.098  1.00  0.00     0.128 C 
HETATM    6  C   UNL     1     -40.489 -49.981  11.770  1.00  0.00     0.029 C 
HETATM    7  C   UNL     1     -40.948 -48.499  11.822  1.00  0.00    -0.037 C 
HETATM    8  C   UNL     1     -39.707 -47.581  11.680  1.00  0.00     0.010 C 
HETATM    9  C   UNL     1     -40.060 -46.099  11.561  1.00  0.00     0.001 C 
HETATM   10  C   UNL     1     -41.054 -45.835  10.434  1.00  0.00     0.000 C 
HETATM   11  C   UNL     1     -42.286 -46.727  10.529  1.00  0.00     0.001 C 
HETATM   12  C   UNL     1     -41.906 -48.203  10.640  1.00  0.00     0.010 C 
HETATM   13  C   UNL     1     -41.626 -48.261  13.200  1.00  0.00     0.029 C 
HETATM   14  C   UNL     1     -42.728 -49.275  13.506  1.00  0.00     0.128 C 
HETATM   15  H   UNL     1     -40.983 -52.731  13.851  1.00  0.00     0.164 HD
ENDROOT
BRANCH   3  16
HETATM   16  C   UNL     1     -42.057 -53.754  15.332  1.00  0.00     0.144 C 
BRANCH  16  17
HETATM   17  C   UNL     1     -42.891 -54.949  14.878  1.00  0.00     0.149 C 
BRANCH  17  18
HETATM   18  N   UNL     1     -44.290 -54.604  14.742  1.00  0.00    -0.350 N 
HETATM   19  C   UNL     1     -45.107 -54.121  15.724  1.00  0.00     0.108 A 
HETATM   20  C   UNL     1     -46.326 -53.943  15.114  1.00  0.00     0.106 A 
HETATM   21  N   UNL     1     -46.269 -54.307  13.792  1.00  0.00    -0.361 N 
HETATM   22  C   UNL     1     -45.029 -54.710  13.599  1.00  0.00     0.182 A 
ATOM     23  HN  UNL     1     -47.024 -54.274  13.107  1.00  0.00     0.166 HD
ENDBRANCH  17  18
ENDBRANCH  16  17
ENDBRANCH   3  16
TORSDOF 3
ENDMDL
MODEL 9
REMARK VINA RESULT:      -5.3      2.252      3.063
REMARK  3 active torsions:
REMARK  status: ('A' for Active; 'I' for Inactive)
REMARK       I    between atoms: C_2  and  N_3 
REMARK       I    between atoms: C_2  and  N_12 
REMARK    1  A    between atoms: N_3  and  C_4 
REMARK    2  A    between atoms: C_4  and  C_5 
REMARK    3  A    between atoms: C_5  and  N_6 
ROOT
HETATM    1  O   UNL     1     -42.084 -48.744  13.800  1.00  0.00    -0.247 OA
HETATM    2  C   UNL     1     -42.139 -49.700  13.030  1.00  0.00     0.318 C 
HETATM    3  N   UNL     1     -42.587 -49.551  11.742  1.00  0.00    -0.341 N 
HETATM    4  N   UNL     1     -41.775 -50.984  13.382  1.00  0.00    -0.334 N 
HETATM    5  C   UNL     1     -41.538 -52.096  12.461  1.00  0.00     0.128 C 
HETATM    6  C   UNL     1     -42.261 -53.354  12.945  1.00  0.00     0.029 C 
HETATM    7  C   UNL     1     -41.882 -53.739  14.400  1.00  0.00    -0.037 C 
HETATM    8  C   UNL     1     -42.805 -54.892  14.873  1.00  0.00     0.010 C 
HETATM    9  C   UNL     1     -42.416 -55.457  16.239  1.00  0.00     0.001 C 
HETATM   10  C   UNL     1     -40.953 -55.888  16.285  1.00  0.00     0.000 C 
HETATM   11  C   UNL     1     -40.011 -54.788  15.815  1.00  0.00     0.001 C 
HETATM   12  C   UNL     1     -40.417 -54.244  14.446  1.00  0.00     0.010 C 
HETATM   13  C   UNL     1     -42.099 -52.487  15.295  1.00  0.00     0.029 C 
HETATM   14  C   UNL     1     -41.385 -51.244  14.764  1.00  0.00     0.128 C 
HETATM   15  H   UNL     1     -43.090 -50.349  11.387  1.00  0.00     0.164 HD
ENDROOT
BRANCH   3  16
HETATM   16  C   UNL     1     -43.065 -48.256  11.286  1.00  0.00     0.144 C 
BRANCH  16  17
HETATM   17  C   UNL     1     -42.211 -47.680  10.160  1.00  0.00     0.149 C 
BRANCH  17  18
HETATM   18  N   UNL     1     -41.426 -46.549  10.608  1.00  0.00    -0.350 N 
HETATM   19  C   UNL     1     -40.145 -46.585  11.079  1.00  0.00     0.108 A 
HETATM   20  C   UNL     1     -39.837 -45.276  11.366  1.00  0.00     0.106 A 
HETATM   21  N   UNL     1     -40.898 -44.452  11.083  1.00  0.00    -0.361 N 
HETATM   22  C   UNL     1     -41.845 -45.250  10.635  1.00  0.00     0.182 A 
ATOM     23  HN  UNL     1     -40.942 -43.439  11.197  1.00  0.00     0.166 HD
ENDBRANCH  17  18
ENDBRANCH  16  17
ENDBRANCH   3  16
TORSDOF 3
ENDMDL
