MODEL 1
REMARK VINA RESULT:      -5.2      0.000      0.000
REMARK  6 active torsions:
REMARK  status: ('A' for Active; 'I' for Inactive)
REMARK    1  A    between atoms: O_1  and  C_2 
REMARK    2  A    between atoms: C_8  and  N_9 
REMARK       I    between atoms: N_9  and  C_10 
REMARK    3  A    between atoms: C_10  and  C_12 
REMARK    4  A    between atoms: C_12  and  O_13 
REMARK    5  A    between atoms: O_13  and  C_14 
REMARK    6  A    between atoms: C_14  and  C_15 
ROOT
HETATM    1  N   UNL     1     -42.896 -45.447  11.517  1.00  0.00    -0.322 N 
HETATM    2  C   UNL     1     -42.163 -46.385  10.818  1.00  0.00     0.245 C 
HETATM    3  O   UNL     1     -40.993 -46.267  10.462  1.00  0.00    -0.271 OA
HETATM    4  H   UNL     1     -43.804 -45.714  11.882  1.00  0.00     0.169 HD
ENDROOT
BRANCH   1   5
HETATM    5  C   UNL     1     -42.484 -44.133  11.826  1.00  0.00     0.083 A 
HETATM    6  C   UNL     1     -42.977 -43.084  11.045  1.00  0.00     0.095 A 
HETATM    7  C   UNL     1     -42.618 -41.765  11.315  1.00  0.00     0.056 A 
HETATM    8  C   UNL     1     -41.727 -41.545  12.352  1.00  0.00     0.090 A 
HETATM    9  N   UNL     1     -41.193 -42.527  13.105  1.00  0.00    -0.373 N 
HETATM   10  C   UNL     1     -41.590 -43.798  12.830  1.00  0.00     0.119 A 
ATOM     11  HN  UNL     1     -40.523 -42.326  13.848  1.00  0.00     0.164 HD
BRANCH   6  12
HETATM   12  O   UNL     1     -43.829 -43.373  10.010  1.00  0.00    -0.358 OA
HETATM   13  H   UNL     1     -43.712 -42.700   9.318  1.00  0.00     0.217 HD
ENDBRANCH   6  12
ENDBRANCH   1   5
BRANCH   2  14
HETATM   14  C   UNL     1     -42.962 -47.646  10.488  1.00  0.00     0.270 C 
BRANCH  14  15
HETATM   15  O   UNL     1     -43.046 -47.902   9.090  1.00  0.00    -0.382 OA
BRANCH  15  16
HETATM   16  C   UNL     1     -44.193 -47.280   8.507  1.00  0.00     0.172 C 
BRANCH  16  17
HETATM   17  C   UNL     1     -45.379 -47.602   9.358  1.00  0.00     0.009 A 
HETATM   18  C   UNL     1     -46.523 -48.407   8.795  1.00  0.00     0.007 A 
HETATM   19  C   UNL     1     -46.712 -46.947   9.102  1.00  0.00     0.007 A 
ENDBRANCH  16  17
ENDBRANCH  15  16
ENDBRANCH  14  15
ENDBRANCH   2  14
TORSDOF 6
ENDMDL
MODEL 2
REMARK VINA RESULT:      -5.1      3.369      4.927
REMARK  6 active torsions:
REMARK  status: ('A' for Active; 'I' for Inactive)
REMARK    1  A    between atoms: O_1  and  C_2 
REMARK    2  A    between atoms: C_8  and  N_9 
REMARK       I    between atoms: N_9  and  C_10 
REMARK    3  A    between atoms: C_10  and  C_12 
REMARK    4  A    between atoms: C_12  and  O_13 
REMARK    5  A    between atoms: O_13  and  C_14 
REMARK    6  A    between atoms: C_14  and  C_15 
ROOT
HETATM    1  N   UNL     1     -41.242 -47.698  11.353  1.00  0.00    -0.322 N 
HETATM    2  C   UNL     1     -42.537 -47.891  11.793  1.00  0.00     0.245 C 
HETATM    3  O   UNL     1     -42.872 -48.509  12.800  1.00  0.00    -0.271 OA
HETATM    4  H   UNL     1     -41.081 -47.049  10.591  1.00  0.00     0.169 HD
ENDROOT
BRANCH   1   5
HETATM    5  C   UNL     1     -40.083 -48.290  11.899  1.00  0.00     0.083 A 
HETATM    6  C   UNL     1     -39.608 -49.470  11.322  1.00  0.00     0.095 A 
HETATM    7  C   UNL     1     -38.458 -50.089  11.809  1.00  0.00     0.056 A 
HETATM    8  C   UNL     1     -37.839 -49.513  12.905  1.00  0.00     0.090 A 
HETATM    9  N   UNL     1     -38.283 -48.399  13.521  1.00  0.00    -0.373 N 
HETATM   10  C   UNL     1     -39.390 -47.809  12.999  1.00  0.00     0.119 A 
ATOM     11  HN  UNL     1     -37.809 -48.017  14.339  1.00  0.00     0.164 HD
BRANCH   6  12
HETATM   12  O   UNL     1     -40.289 -50.009  10.261  1.00  0.00    -0.358 OA
HETATM   13  H   UNL     1     -41.159 -50.310  10.574  1.00  0.00     0.217 HD
ENDBRANCH   6  12
ENDBRANCH   1   5
BRANCH   2  14
HETATM   14  C   UNL     1     -43.582 -47.258  10.876  1.00  0.00     0.270 C 
BRANCH  14  15
HETATM   15  O   UNL     1     -43.164 -47.190   9.517  1.00  0.00    -0.382 OA
BRANCH  15  16
HETATM   16  C   UNL     1     -44.209 -47.581   8.622  1.00  0.00     0.172 C 
BRANCH  16  17
HETATM   17  C   UNL     1     -45.471 -47.714   9.412  1.00  0.00     0.009 A 
HETATM   18  C   UNL     1     -46.666 -48.418   8.822  1.00  0.00     0.007 A 
HETATM   19  C   UNL     1     -46.701 -46.929   9.036  1.00  0.00     0.007 A 
ENDBRANCH  16  17
ENDBRANCH  15  16
ENDBRANCH  14  15
ENDBRANCH   2  14
TORSDOF 6
ENDMDL
MODEL 3
REMARK VINA RESULT:      -5.1      6.555      8.393
REMARK  6 active torsions:
REMARK  status: ('A' for Active; 'I' for Inactive)
REMARK    1  A    between atoms: O_1  and  C_2 
REMARK    2  A    between atoms: C_8  and  N_9 
REMARK       I    between atoms: N_9  and  C_10 
REMARK    3  A    between atoms: C_10  and  C_12 
REMARK    4  A    between atoms: C_12  and  O_13 
REMARK    5  A    between atoms: O_13  and  C_14 
REMARK    6  A    between atoms: C_14  and  C_15 
ROOT
HETATM    1  N   UNL     1     -42.889 -53.171  13.434  1.00  0.00    -0.322 N 
HETATM    2  C   UNL     1     -44.071 -53.779  13.061  1.00  0.00     0.245 C 
HETATM    3  O   UNL     1     -44.782 -53.456  12.113  1.00  0.00    -0.271 OA
HETATM    4  H   UNL     1     -42.317 -53.616  14.143  1.00  0.00     0.169 HD
ENDROOT
BRANCH   1   5
HETATM    5  C   UNL     1     -42.355 -51.987  12.882  1.00  0.00     0.083 A 
HETATM    6  C   UNL     1     -41.244 -52.091  12.041  1.00  0.00     0.095 A 
HETATM    7  C   UNL     1     -40.685 -50.957  11.456  1.00  0.00     0.056 A 
HETATM    8  C   UNL     1     -41.245 -49.732  11.773  1.00  0.00     0.090 A 
HETATM    9  N   UNL     1     -42.290 -49.577  12.611  1.00  0.00    -0.373 N 
HETATM   10  C   UNL     1     -42.826 -50.709  13.140  1.00  0.00     0.119 A 
ATOM     11  HN  UNL     1     -42.662 -48.655  12.836  1.00  0.00     0.164 HD
BRANCH   6  12
HETATM   12  O   UNL     1     -40.714 -53.332  11.795  1.00  0.00    -0.358 OA
HETATM   13  H   UNL     1     -40.250 -53.633  12.596  1.00  0.00     0.217 HD
ENDBRANCH   6  12
ENDBRANCH   1   5
BRANCH   2  14
HETATM   14  C   UNL     1     -44.462 -54.940  13.975  1.00  0.00     0.270 C 
BRANCH  14  15
HETATM   15  O   UNL     1     -45.775 -54.813  14.508  1.00  0.00    -0.382 OA
BRANCH  15  16
HETATM   16  C   UNL     1     -45.857 -53.756  15.466  1.00  0.00     0.172 C 
BRANCH  16  17
HETATM   17  C   UNL     1     -46.947 -52.826  15.041  1.00  0.00     0.009 A 
HETATM   18  C   UNL     1     -46.613 -51.488  14.435  1.00  0.00     0.007 A 
HETATM   19  C   UNL     1     -47.222 -51.558  15.809  1.00  0.00     0.007 A 
ENDBRANCH  16  17
ENDBRANCH  15  16
ENDBRANCH  14  15
ENDBRANCH   2  14
TORSDOF 6
ENDMDL
MODEL 4
REMARK VINA RESULT:      -4.9      7.246      9.353
REMARK  6 active torsions:
REMARK  status: ('A' for Active; 'I' for Inactive)
REMARK    1  A    between atoms: O_1  and  C_2 
REMARK    2  A    between atoms: C_8  and  N_9 
REMARK       I    between atoms: N_9  and  C_10 
REMARK    3  A    between atoms: C_10  and  C_12 
REMARK    4  A    between atoms: C_12  and  O_13 
REMARK    5  A    between atoms: O_13  and  C_14 
REMARK    6  A    between atoms: C_14  and  C_15 
ROOT
HETATM    1  N   UNL     1     -43.285 -53.237  12.400  1.00  0.00    -0.322 N 
HETATM    2  C   UNL     1     -42.049 -53.284  13.014  1.00  0.00     0.245 C 
HETATM    3  O   UNL     1     -41.845 -53.468  14.211  1.00  0.00    -0.271 OA
HETATM    4  H   UNL     1     -43.323 -53.225  11.386  1.00  0.00     0.169 HD
ENDROOT
BRANCH   1   5
HETATM    5  C   UNL     1     -44.537 -53.252  13.051  1.00  0.00     0.083 A 
HETATM    6  C   UNL     1     -45.193 -52.034  13.252  1.00  0.00     0.095 A 
HETATM    7  C   UNL     1     -46.439 -51.990  13.875  1.00  0.00     0.056 A 
HETATM    8  C   UNL     1     -46.973 -53.188  14.319  1.00  0.00     0.090 A 
HETATM    9  N   UNL     1     -46.360 -54.381  14.185  1.00  0.00    -0.373 N 
HETATM   10  C   UNL     1     -45.159 -54.386  13.548  1.00  0.00     0.119 A 
ATOM     11  HN  UNL     1     -46.777 -55.239  14.545  1.00  0.00     0.164 HD
BRANCH   6  12
HETATM   12  O   UNL     1     -44.592 -50.880  12.819  1.00  0.00    -0.358 OA
HETATM   13  H   UNL     1     -44.248 -51.030  11.922  1.00  0.00     0.217 HD
ENDBRANCH   6  12
ENDBRANCH   1   5
BRANCH   2  14
HETATM   14  C   UNL     1     -40.889 -53.062  12.044  1.00  0.00     0.270 C 
BRANCH  14  15
HETATM   15  O   UNL     1     -39.751 -52.471  12.662  1.00  0.00    -0.382 OA
BRANCH  15  16
HETATM   16  C   UNL     1     -39.666 -51.072  12.383  1.00  0.00     0.172 C 
BRANCH  16  17
HETATM   17  C   UNL     1     -38.233 -50.661  12.499  1.00  0.00     0.009 A 
HETATM   18  C   UNL     1     -37.874 -49.218  12.745  1.00  0.00     0.007 A 
HETATM   19  C   UNL     1     -37.574 -49.850  11.413  1.00  0.00     0.007 A 
ENDBRANCH  16  17
ENDBRANCH  15  16
ENDBRANCH  14  15
ENDBRANCH   2  14
TORSDOF 6
ENDMDL
MODEL 5
REMARK VINA RESULT:      -4.9      4.782      7.354
REMARK  6 active torsions:
REMARK  status: ('A' for Active; 'I' for Inactive)
REMARK    1  A    between atoms: O_1  and  C_2 
REMARK    2  A    between atoms: C_8  and  N_9 
REMARK       I    between atoms: N_9  and  C_10 
REMARK    3  A    between atoms: C_10  and  C_12 
REMARK    4  A    between atoms: C_12  and  O_13 
REMARK    5  A    between atoms: O_13  and  C_14 
REMARK    6  A    between atoms: C_14  and  C_15 
ROOT
HETATM    1  N   UNL     1     -41.926 -50.831  11.718  1.00  0.00    -0.322 N 
HETATM    2  C   UNL     1     -41.205 -49.671  11.920  1.00  0.00     0.245 C 
HETATM    3  O   UNL     1     -40.484 -49.428  12.884  1.00  0.00    -0.271 OA
HETATM    4  H   UNL     1     -42.368 -50.977  10.817  1.00  0.00     0.169 HD
ENDROOT
BRANCH   1   5
HETATM    5  C   UNL     1     -42.077 -51.886  12.643  1.00  0.00     0.083 A 
HETATM    6  C   UNL     1     -41.360 -53.066  12.423  1.00  0.00     0.095 A 
HETATM    7  C   UNL     1     -41.458 -54.135  13.312  1.00  0.00     0.056 A 
HETATM    8  C   UNL     1     -42.318 -53.995  14.387  1.00  0.00     0.090 A 
HETATM    9  N   UNL     1     -43.060 -52.893  14.618  1.00  0.00    -0.373 N 
HETATM   10  C   UNL     1     -42.917 -51.862  13.745  1.00  0.00     0.119 A 
ATOM     11  HN  UNL     1     -43.699 -52.837  15.411  1.00  0.00     0.164 HD
BRANCH   6  12
HETATM   12  O   UNL     1     -40.552 -53.153  11.319  1.00  0.00    -0.358 OA
HETATM   13  H   UNL     1     -39.671 -52.814  11.554  1.00  0.00     0.217 HD
ENDBRANCH   6  12
ENDBRANCH   1   5
BRANCH   2  14
HETATM   14  C   UNL     1     -41.392 -48.647  10.801  1.00  0.00     0.270 C 
BRANCH  14  15
HETATM   15  O   UNL     1     -42.073 -47.472  11.228  1.00  0.00    -0.382 OA
BRANCH  15  16
HETATM   16  C   UNL     1     -43.484 -47.577  11.024  1.00  0.00     0.172 C 
BRANCH  16  17
HETATM   17  C   UNL     1     -43.750 -47.478   9.556  1.00  0.00     0.009 A 
HETATM   18  C   UNL     1     -43.797 -46.131   8.881  1.00  0.00     0.007 A 
HETATM   19  C   UNL     1     -45.059 -46.933   9.045  1.00  0.00     0.007 A 
ENDBRANCH  16  17
ENDBRANCH  15  16
ENDBRANCH  14  15
ENDBRANCH   2  14
TORSDOF 6
ENDMDL
MODEL 6
REMARK VINA RESULT:      -4.9      2.712      5.933
REMARK  6 active torsions:
REMARK  status: ('A' for Active; 'I' for Inactive)
REMARK    1  A    between atoms: O_1  and  C_2 
REMARK    2  A    between atoms: C_8  and  N_9 
REMARK       I    between atoms: N_9  and  C_10 
REMARK    3  A    between atoms: C_10  and  C_12 
REMARK    4  A    between atoms: C_12  and  O_13 
REMARK    5  A    between atoms: O_13  and  C_14 
REMARK    6  A    between atoms: C_14  and  C_15 
ROOT
HETATM    1  N   UNL     1     -41.674 -44.993  11.208  1.00  0.00    -0.322 N 
HETATM    2  C   UNL     1     -40.515 -44.284  10.962  1.00  0.00     0.245 C 
HETATM    3  O   UNL     1     -39.901 -44.250   9.898  1.00  0.00    -0.271 OA
HETATM    4  H   UNL     1     -42.169 -44.828  12.078  1.00  0.00     0.169 HD
ENDROOT
BRANCH   1   5
HETATM    5  C   UNL     1     -42.285 -45.915  10.331  1.00  0.00     0.083 A 
HETATM    6  C   UNL     1     -43.364 -45.477   9.558  1.00  0.00     0.095 A 
HETATM    7  C   UNL     1     -43.995 -46.338   8.663  1.00  0.00     0.056 A 
HETATM    8  C   UNL     1     -43.540 -47.644   8.605  1.00  0.00     0.090 A 
HETATM    9  N   UNL     1     -42.532 -48.124   9.360  1.00  0.00    -0.373 N 
HETATM   10  C   UNL     1     -41.922 -47.246  10.200  1.00  0.00     0.119 A 
ATOM     11  HN  UNL     1     -42.239 -49.099   9.303  1.00  0.00     0.164 HD
BRANCH   6  12
HETATM   12  O   UNL     1     -43.789 -44.179   9.689  1.00  0.00    -0.358 OA
HETATM   13  H   UNL     1     -43.533 -43.689   8.889  1.00  0.00     0.217 HD
ENDBRANCH   6  12
ENDBRANCH   1   5
BRANCH   2  14
HETATM   14  C   UNL     1     -40.014 -43.512  12.182  1.00  0.00     0.270 C 
BRANCH  14  15
HETATM   15  O   UNL     1     -38.896 -44.128  12.812  1.00  0.00    -0.382 OA
BRANCH  15  16
HETATM   16  C   UNL     1     -39.286 -44.877  13.965  1.00  0.00     0.172 C 
BRANCH  16  17
HETATM   17  C   UNL     1     -39.046 -46.325  13.682  1.00  0.00     0.009 A 
HETATM   18  C   UNL     1     -39.468 -47.375  14.678  1.00  0.00     0.007 A 
HETATM   19  C   UNL     1     -38.006 -47.098  14.452  1.00  0.00     0.007 A 
ENDBRANCH  16  17
ENDBRANCH  15  16
ENDBRANCH  14  15
ENDBRANCH   2  14
TORSDOF 6
ENDMDL
MODEL 7
REMARK VINA RESULT:      -4.8      6.274      7.095
REMARK  6 active torsions:
REMARK  status: ('A' for Active; 'I' for Inactive)
REMARK    1  A    between atoms: O_1  and  C_2 
REMARK    2  A    between atoms: C_8  and  N_9 
REMARK       I    between atoms: N_9  and  C_10 
REMARK    3  A    between atoms: C_10  and  C_12 
REMARK    4  A    between atoms: C_12  and  O_13 
REMARK    5  A    between atoms: O_13  and  C_14 
REMARK    6  A    between atoms: C_14  and  C_15 
ROOT
HETATM    1  N   UNL     1     -41.433 -51.216  12.662  1.00  0.00    -0.322 N 
HETATM    2  C   UNL     1     -41.609 -52.560  12.398  1.00  0.00     0.245 C 
HETATM    3  O   UNL     1     -40.720 -53.403  12.318  1.00  0.00    -0.271 OA
HETATM    4  H   UNL     1     -42.251 -50.646  12.847  1.00  0.00     0.169 HD
ENDROOT
BRANCH   1   5
HETATM    5  C   UNL     1     -40.196 -50.543  12.751  1.00  0.00     0.083 A 
HETATM    6  C   UNL     1     -39.673 -49.962  11.593  1.00  0.00     0.095 A 
HETATM    7  C   UNL     1     -38.463 -49.271  11.625  1.00  0.00     0.056 A 
HETATM    8  C   UNL     1     -37.788 -49.222  12.833  1.00  0.00     0.090 A 
HETATM    9  N   UNL     1     -38.232 -49.802  13.966  1.00  0.00    -0.373 N 
HETATM   10  C   UNL     1     -39.429 -50.443  13.902  1.00  0.00     0.119 A 
ATOM     11  HN  UNL     1     -37.694 -49.761  14.832  1.00  0.00     0.164 HD
BRANCH   6  12
HETATM   12  O   UNL     1     -40.375 -50.077  10.420  1.00  0.00    -0.358 OA
HETATM   13  H   UNL     1     -41.182 -49.538  10.490  1.00  0.00     0.217 HD
ENDBRANCH   6  12
ENDBRANCH   1   5
BRANCH   2  14
HETATM   14  C   UNL     1     -43.074 -52.941  12.182  1.00  0.00     0.270 C 
BRANCH  14  15
HETATM   15  O   UNL     1     -43.621 -53.686  13.264  1.00  0.00    -0.382 OA
BRANCH  15  16
HETATM   16  C   UNL     1     -45.042 -53.542  13.339  1.00  0.00     0.172 C 
BRANCH  16  17
HETATM   17  C   UNL     1     -45.370 -52.090  13.201  1.00  0.00     0.009 A 
HETATM   18  C   UNL     1     -46.534 -51.498  13.953  1.00  0.00     0.007 A 
HETATM   19  C   UNL     1     -46.604 -51.646  12.458  1.00  0.00     0.007 A 
ENDBRANCH  16  17
ENDBRANCH  15  16
ENDBRANCH  14  15
ENDBRANCH   2  14
TORSDOF 6
ENDMDL
MODEL 8
REMARK VINA RESULT:      -4.8      4.015      5.137
REMARK  6 active torsions:
REMARK  status: ('A' for Active; 'I' for Inactive)
REMARK    1  A    between atoms: O_1  and  C_2 
REMARK    2  A    between atoms: C_8  and  N_9 
REMARK       I    between atoms: N_9  and  C_10 
REMARK    3  A    between atoms: C_10  and  C_12 
REMARK    4  A    between atoms: C_12  and  O_13 
REMARK    5  A    between atoms: O_13  and  C_14 
REMARK    6  A    between atoms: C_14  and  C_15 
ROOT
HETATM    1  N   UNL     1     -42.183 -49.708  11.504  1.00  0.00    -0.322 N 
HETATM    2  C   UNL     1     -41.859 -50.243  12.735  1.00  0.00     0.245 C 
HETATM    3  O   UNL     1     -41.385 -49.628  13.686  1.00  0.00    -0.271 OA
HETATM    4  H   UNL     1     -42.703 -50.281  10.847  1.00  0.00     0.169 HD
ENDROOT
BRANCH   1   5
HETATM    5  C   UNL     1     -41.902 -48.395  11.068  1.00  0.00     0.083 A 
HETATM    6  C   UNL     1     -42.963 -47.606  10.615  1.00  0.00     0.095 A 
HETATM    7  C   UNL     1     -42.746 -46.298  10.189  1.00  0.00     0.056 A 
HETATM    8  C   UNL     1     -41.443 -45.832  10.194  1.00  0.00     0.090 A 
HETATM    9  N   UNL     1     -40.382 -46.568  10.583  1.00  0.00    -0.373 N 
HETATM   10  C   UNL     1     -40.637 -47.830  11.018  1.00  0.00     0.119 A 
ATOM     11  HN  UNL     1     -39.433 -46.195  10.553  1.00  0.00     0.164 HD
BRANCH   6  12
HETATM   12  O   UNL     1     -44.226 -48.140  10.602  1.00  0.00    -0.358 OA
HETATM   13  H   UNL     1     -44.276 -48.796   9.885  1.00  0.00     0.217 HD
ENDBRANCH   6  12
ENDBRANCH   1   5
BRANCH   2  14
HETATM   14  C   UNL     1     -42.134 -51.743  12.827  1.00  0.00     0.270 C 
BRANCH  14  15
HETATM   15  O   UNL     1     -43.131 -52.070  13.790  1.00  0.00    -0.382 OA
BRANCH  15  16
HETATM   16  C   UNL     1     -44.332 -52.535  13.169  1.00  0.00     0.172 C 
BRANCH  16  17
HETATM   17  C   UNL     1     -45.324 -51.418  13.180  1.00  0.00     0.009 A 
HETATM   18  C   UNL     1     -46.558 -51.504  14.042  1.00  0.00     0.007 A 
HETATM   19  C   UNL     1     -46.680 -51.585  12.544  1.00  0.00     0.007 A 
ENDBRANCH  16  17
ENDBRANCH  15  16
ENDBRANCH  14  15
ENDBRANCH   2  14
TORSDOF 6
ENDMDL
MODEL 9
REMARK VINA RESULT:      -4.8      7.058      7.871
REMARK  6 active torsions:
REMARK  status: ('A' for Active; 'I' for Inactive)
REMARK    1  A    between atoms: O_1  and  C_2 
REMARK    2  A    between atoms: C_8  and  N_9 
REMARK       I    between atoms: N_9  and  C_10 
REMARK    3  A    between atoms: C_10  and  C_12 
REMARK    4  A    between atoms: C_12  and  O_13 
REMARK    5  A    between atoms: O_13  and  C_14 
REMARK    6  A    between atoms: C_14  and  C_15 
ROOT
HETATM    1  N   UNL     1     -41.120 -51.608  13.309  1.00  0.00    -0.322 N 
HETATM    2  C   UNL     1     -41.627 -52.879  13.128  1.00  0.00     0.245 C 
HETATM    3  O   UNL     1     -41.096 -53.784  12.491  1.00  0.00    -0.271 OA
HETATM    4  H   UNL     1     -41.576 -50.993  13.975  1.00  0.00     0.169 HD
ENDROOT
BRANCH   1   5
HETATM    5  C   UNL     1     -39.973 -51.075  12.683  1.00  0.00     0.083 A 
HETATM    6  C   UNL     1     -38.733 -51.268  13.298  1.00  0.00     0.095 A 
HETATM    7  C   UNL     1     -37.565 -50.779  12.717  1.00  0.00     0.056 A 
HETATM    8  C   UNL     1     -37.689 -50.064  11.539  1.00  0.00     0.090 A 
HETATM    9  N   UNL     1     -38.866 -49.816  10.930  1.00  0.00    -0.373 N 
HETATM   10  C   UNL     1     -39.980 -50.333  11.512  1.00  0.00     0.119 A 
ATOM     11  HN  UNL     1     -38.919 -49.266  10.072  1.00  0.00     0.164 HD
BRANCH   6  12
HETATM   12  O   UNL     1     -38.683 -51.956  14.484  1.00  0.00    -0.358 OA
HETATM   13  H   UNL     1     -39.235 -52.753  14.401  1.00  0.00     0.217 HD
ENDBRANCH   6  12
ENDBRANCH   1   5
BRANCH   2  14
HETATM   14  C   UNL     1     -42.983 -53.085  13.804  1.00  0.00     0.270 C 
BRANCH  14  15
HETATM   15  O   UNL     1     -43.817 -54.008  13.112  1.00  0.00    -0.382 OA
BRANCH  15  16
HETATM   16  C   UNL     1     -45.203 -53.715  13.306  1.00  0.00     0.172 C 
BRANCH  16  17
HETATM   17  C   UNL     1     -45.402 -52.249  13.094  1.00  0.00     0.009 A 
HETATM   18  C   UNL     1     -46.484 -51.513  13.843  1.00  0.00     0.007 A 
HETATM   19  C   UNL     1     -46.614 -51.734  12.361  1.00  0.00     0.007 A 
ENDBRANCH  16  17
ENDBRANCH  15  16
ENDBRANCH  14  15
ENDBRANCH   2  14
TORSDOF 6
ENDMDL
