MODEL 1
REMARK VINA RESULT:      -7.4      0.000      0.000
REMARK  4 active torsions:
REMARK  status: ('A' for Active; 'I' for Inactive)
REMARK    1  A    between atoms: N_1  and  C_14 
REMARK    2  A    between atoms: N_2  and  C_13 
REMARK    3  A    between atoms: C_14  and  C_17 
REMARK    4  A    between atoms: C_15  and  N_18 
REMARK       I    between atoms: C_17  and  N_18 
ROOT
HETATM    1  C   UNL     1     -41.235 -52.781  11.780  1.00  0.00     0.240 C 
ENDROOT
BRANCH   1   2
HETATM    2  N   UNL     1     -41.487 -53.682  12.899  1.00  0.00    -0.255 N 
HETATM    3  C   UNL     1     -40.404 -54.078  13.677  1.00  0.00     0.334 C 
HETATM    4  N   UNL     1     -40.710 -54.557  14.953  1.00  0.00    -0.279 N 
HETATM    5  O   UNL     1     -39.247 -53.977  13.269  1.00  0.00    -0.246 OA
HETATM    6  C   UNL     1     -42.009 -54.826  15.331  1.00  0.00     0.146 C 
HETATM    7  C   UNL     1     -43.037 -54.583  14.524  1.00  0.00     0.200 C 
HETATM    8  C   UNL     1     -42.816 -53.921  13.221  1.00  0.00     0.292 C 
HETATM    9  F   UNL     1     -44.309 -54.843  14.879  1.00  0.00    -0.199 F 
HETATM   10  O   UNL     1     -43.760 -53.592  12.514  1.00  0.00    -0.264 OA
BRANCH   4  11
HETATM   11  C   UNL     1     -39.588 -54.733  15.875  1.00  0.00     0.232 C 
HETATM   12  O   UNL     1     -39.088 -56.083  15.875  1.00  0.00    -0.366 OA
HETATM   13  C   UNL     1     -38.578 -56.376  17.187  1.00  0.00     0.170 C 
HETATM   14  C   UNL     1     -38.879 -55.188  18.078  1.00  0.00     0.031 C 
HETATM   15  C   UNL     1     -39.968 -54.469  17.328  1.00  0.00     0.056 C 
ENDBRANCH   4  11
ENDBRANCH   1   2
BRANCH   1  16
HETATM   16  C   UNL     1     -41.305 -51.278  12.035  1.00  0.00     0.240 C 
HETATM   17  N   UNL     1     -40.829 -50.464  11.021  1.00  0.00    -0.324 N 
HETATM   18  H   UNL     1     -40.180 -50.895  10.364  1.00  0.00     0.169 HD
HETATM   19  O   UNL     1     -41.565 -50.866  13.168  1.00  0.00    -0.271 OA
BRANCH  17  20
HETATM   20  C   UNL     1     -40.630 -49.075  11.231  1.00  0.00     0.064 A 
HETATM   21  C   UNL     1     -41.509 -48.127  10.638  1.00  0.00     0.094 A 
HETATM   22  N   UNL     1     -42.588 -48.408   9.887  1.00  0.00    -0.309 N 
HETATM   23  C   UNL     1     -41.246 -46.648  10.772  1.00  0.00     0.069 A 
HETATM   24  S   UNL     1     -43.185 -46.946   9.367  1.00  0.00     0.068 SA
ATOM     25  HN  UNL     1     -42.964 -49.332   9.678  1.00  0.00     0.176 HD
HETATM   26  N   UNL     1     -42.134 -45.893  10.106  1.00  0.00    -0.310 N 
ATOM     27  HN  UNL     1     -42.158 -44.874  10.062  1.00  0.00     0.176 HD
HETATM   28  C   UNL     1     -40.148 -46.164  11.523  1.00  0.00     0.032 A 
HETATM   29  C   UNL     1     -39.329 -47.142  12.114  1.00  0.00     0.005 A 
HETATM   30  C   UNL     1     -39.554 -48.535  11.967  1.00  0.00     0.032 A 
ENDBRANCH  17  20
ENDBRANCH   1  16
TORSDOF 4
ENDMDL
MODEL 2
REMARK VINA RESULT:      -7.1      3.525      8.154
REMARK  4 active torsions:
REMARK  status: ('A' for Active; 'I' for Inactive)
REMARK    1  A    between atoms: N_1  and  C_14 
REMARK    2  A    between atoms: N_2  and  C_13 
REMARK    3  A    between atoms: C_14  and  C_17 
REMARK    4  A    between atoms: C_15  and  N_18 
REMARK       I    between atoms: C_17  and  N_18 
ROOT
HETATM    1  C   UNL     1     -40.157 -50.257  12.735  1.00  0.00     0.240 C 
ENDROOT
BRANCH   1   2
HETATM    2  N   UNL     1     -40.589 -48.878  12.541  1.00  0.00    -0.255 N 
HETATM    3  C   UNL     1     -41.099 -48.520  11.297  1.00  0.00     0.334 C 
HETATM    4  N   UNL     1     -41.889 -47.368  11.268  1.00  0.00    -0.279 N 
HETATM    5  O   UNL     1     -40.889 -49.203  10.295  1.00  0.00    -0.246 OA
HETATM    6  C   UNL     1     -41.974 -46.523  12.354  1.00  0.00     0.146 C 
HETATM    7  C   UNL     1     -41.362 -46.795  13.502  1.00  0.00     0.200 C 
HETATM    8  C   UNL     1     -40.643 -48.075  13.673  1.00  0.00     0.292 C 
HETATM    9  F   UNL     1     -41.434 -45.978  14.569  1.00  0.00    -0.199 F 
HETATM   10  O   UNL     1     -40.166 -48.390  14.756  1.00  0.00    -0.264 OA
BRANCH   4  11
HETATM   11  C   UNL     1     -42.640 -47.118  10.038  1.00  0.00     0.232 C 
HETATM   12  O   UNL     1     -42.679 -45.721   9.696  1.00  0.00    -0.366 OA
HETATM   13  C   UNL     1     -43.918 -45.457   9.015  1.00  0.00     0.170 C 
HETATM   14  C   UNL     1     -44.740 -46.730   9.035  1.00  0.00     0.031 C 
HETATM   15  C   UNL     1     -44.106 -47.525  10.146  1.00  0.00     0.056 C 
ENDBRANCH   4  11
ENDBRANCH   1   2
BRANCH   1  16
HETATM   16  C   UNL     1     -41.205 -51.361  12.641  1.00  0.00     0.240 C 
HETATM   17  N   UNL     1     -42.071 -51.474  13.716  1.00  0.00    -0.324 N 
HETATM   18  H   UNL     1     -41.750 -51.073  14.597  1.00  0.00     0.169 HD
HETATM   19  O   UNL     1     -41.109 -52.215  11.756  1.00  0.00    -0.271 OA
BRANCH  17  20
HETATM   20  C   UNL     1     -42.929 -52.595  13.849  1.00  0.00     0.064 A 
HETATM   21  C   UNL     1     -44.282 -52.518  13.417  1.00  0.00     0.094 A 
HETATM   22  N   UNL     1     -44.868 -51.458  12.834  1.00  0.00    -0.309 N 
HETATM   23  C   UNL     1     -45.228 -53.670  13.646  1.00  0.00     0.069 A 
HETATM   24  S   UNL     1     -46.469 -51.864  12.635  1.00  0.00     0.068 SA
ATOM     25  HN  UNL     1     -44.422 -50.582  12.567  1.00  0.00     0.176 HD
HETATM   26  N   UNL     1     -46.480 -53.413  13.234  1.00  0.00    -0.310 N 
ATOM     27  HN  UNL     1     -47.280 -54.044  13.280  1.00  0.00     0.176 HD
HETATM   28  C   UNL     1     -44.788 -54.870  14.255  1.00  0.00     0.032 A 
HETATM   29  C   UNL     1     -43.435 -54.906  14.634  1.00  0.00     0.005 A 
HETATM   30  C   UNL     1     -42.548 -53.814  14.448  1.00  0.00     0.032 A 
ENDBRANCH  17  20
ENDBRANCH   1  16
TORSDOF 4
ENDMDL
MODEL 3
REMARK VINA RESULT:      -7.0      3.695      5.145
REMARK  4 active torsions:
REMARK  status: ('A' for Active; 'I' for Inactive)
REMARK    1  A    between atoms: N_1  and  C_14 
REMARK    2  A    between atoms: N_2  and  C_13 
REMARK    3  A    between atoms: C_14  and  C_17 
REMARK    4  A    between atoms: C_15  and  N_18 
REMARK       I    between atoms: C_17  and  N_18 
ROOT
HETATM    1  C   UNL     1     -42.850 -53.655  14.222  1.00  0.00     0.240 C 
ENDROOT
BRANCH   1   2
HETATM    2  N   UNL     1     -44.277 -53.361  14.287  1.00  0.00    -0.255 N 
HETATM    3  C   UNL     1     -44.837 -53.110  15.536  1.00  0.00     0.334 C 
HETATM    4  N   UNL     1     -46.052 -52.421  15.533  1.00  0.00    -0.279 N 
HETATM    5  O   UNL     1     -44.272 -53.449  16.575  1.00  0.00    -0.246 OA
HETATM    6  C   UNL     1     -46.756 -52.202  14.368  1.00  0.00     0.146 C 
HETATM    7  C   UNL     1     -46.283 -52.577  13.184  1.00  0.00     0.200 C 
HETATM    8  C   UNL     1     -44.930 -53.161  13.078  1.00  0.00     0.292 C 
HETATM    9  F   UNL     1     -46.960 -52.371  12.039  1.00  0.00    -0.199 F 
HETATM   10  O   UNL     1     -44.436 -53.413  11.986  1.00  0.00    -0.264 OA
BRANCH   4  11
HETATM   11  C   UNL     1     -46.527 -51.923  16.824  1.00  0.00     0.232 C 
HETATM   12  O   UNL     1     -47.960 -51.800  16.869  1.00  0.00    -0.366 OA
HETATM   13  C   UNL     1     -48.293 -50.711  17.747  1.00  0.00     0.170 C 
HETATM   14  C   UNL     1     -46.999 -50.052  18.180  1.00  0.00     0.031 C 
HETATM   15  C   UNL     1     -46.015 -50.522  17.143  1.00  0.00     0.056 C 
ENDBRANCH   4  11
ENDBRANCH   1   2
BRANCH   1  16
HETATM   16  C   UNL     1     -41.879 -52.485  14.091  1.00  0.00     0.240 C 
HETATM   17  N   UNL     1     -41.447 -52.192  12.807  1.00  0.00    -0.324 N 
HETATM   18  H   UNL     1     -41.520 -52.944  12.124  1.00  0.00     0.169 HD
HETATM   19  O   UNL     1     -41.365 -52.006  15.104  1.00  0.00    -0.271 OA
BRANCH  17  20
HETATM   20  C   UNL     1     -40.378 -51.286  12.586  1.00  0.00     0.064 A 
HETATM   21  C   UNL     1     -40.615 -50.039  11.944  1.00  0.00     0.094 A 
HETATM   22  N   UNL     1     -41.807 -49.575  11.530  1.00  0.00    -0.309 N 
HETATM   23  C   UNL     1     -39.470 -49.115  11.614  1.00  0.00     0.069 A 
HETATM   24  S   UNL     1     -41.502 -48.134  10.759  1.00  0.00     0.068 SA
ATOM     25  HN  UNL     1     -42.715 -50.019  11.661  1.00  0.00     0.176 HD
HETATM   26  N   UNL     1     -39.857 -48.011  10.957  1.00  0.00    -0.310 N 
ATOM     27  HN  UNL     1     -39.260 -47.246  10.642  1.00  0.00     0.176 HD
HETATM   28  C   UNL     1     -38.139 -49.442  11.969  1.00  0.00     0.032 A 
HETATM   29  C   UNL     1     -37.963 -50.671  12.629  1.00  0.00     0.005 A 
HETATM   30  C   UNL     1     -39.033 -51.557  12.916  1.00  0.00     0.032 A 
ENDBRANCH  17  20
ENDBRANCH   1  16
TORSDOF 4
ENDMDL
MODEL 4
REMARK VINA RESULT:      -6.9      2.065      2.543
REMARK  4 active torsions:
REMARK  status: ('A' for Active; 'I' for Inactive)
REMARK    1  A    between atoms: N_1  and  C_14 
REMARK    2  A    between atoms: N_2  and  C_13 
REMARK    3  A    between atoms: C_14  and  C_17 
REMARK    4  A    between atoms: C_15  and  N_18 
REMARK       I    between atoms: C_17  and  N_18 
ROOT
HETATM    1  C   UNL     1     -42.888 -52.105  12.893  1.00  0.00     0.240 C 
ENDROOT
BRANCH   1   2
HETATM    2  N   UNL     1     -42.002 -52.819  13.805  1.00  0.00    -0.255 N 
HETATM    3  C   UNL     1     -42.474 -53.111  15.081  1.00  0.00     0.334 C 
HETATM    4  N   UNL     1     -41.814 -54.141  15.755  1.00  0.00    -0.279 N 
HETATM    5  O   UNL     1     -43.437 -52.516  15.563  1.00  0.00    -0.246 OA
HETATM    6  C   UNL     1     -40.637 -54.679  15.279  1.00  0.00     0.146 C 
HETATM    7  C   UNL     1     -40.107 -54.290  14.124  1.00  0.00     0.200 C 
HETATM    8  C   UNL     1     -40.827 -53.327  13.265  1.00  0.00     0.292 C 
HETATM    9  F   UNL     1     -38.958 -54.804  13.648  1.00  0.00    -0.199 F 
HETATM   10  O   UNL     1     -40.409 -53.040  12.151  1.00  0.00    -0.264 OA
BRANCH   4  11
HETATM   11  C   UNL     1     -42.447 -54.637  16.978  1.00  0.00     0.232 C 
HETATM   12  O   UNL     1     -41.944 -53.983  18.157  1.00  0.00    -0.366 OA
HETATM   13  C   UNL     1     -42.001 -54.916  19.250  1.00  0.00     0.170 C 
HETATM   14  C   UNL     1     -42.456 -56.252  18.697  1.00  0.00     0.031 C 
HETATM   15  C   UNL     1     -42.183 -56.119  17.222  1.00  0.00     0.056 C 
ENDBRANCH   4  11
ENDBRANCH   1   2
BRANCH   1  16
HETATM   16  C   UNL     1     -42.655 -50.611  12.685  1.00  0.00     0.240 C 
HETATM   17  N   UNL     1     -41.806 -50.265  11.646  1.00  0.00    -0.324 N 
HETATM   18  H   UNL     1     -41.157 -50.986  11.335  1.00  0.00     0.169 HD
HETATM   19  O   UNL     1     -43.036 -49.812  13.543  1.00  0.00    -0.271 OA
BRANCH  17  20
HETATM   20  C   UNL     1     -41.335 -48.935  11.500  1.00  0.00     0.064 A 
HETATM   21  C   UNL     1     -42.017 -48.021  10.651  1.00  0.00     0.094 A 
HETATM   22  N   UNL     1     -43.140 -48.272   9.956  1.00  0.00    -0.309 N 
HETATM   23  C   UNL     1     -41.467 -46.637  10.411  1.00  0.00     0.069 A 
HETATM   24  S   UNL     1     -43.445 -46.908   9.055  1.00  0.00     0.068 SA
ATOM     25  HN  UNL     1     -43.695 -49.128   9.977  1.00  0.00     0.176 HD
HETATM   26  N   UNL     1     -42.197 -45.924   9.540  1.00  0.00    -0.310 N 
ATOM     27  HN  UNL     1     -42.021 -44.967   9.235  1.00  0.00     0.176 HD
HETATM   28  C   UNL     1     -40.285 -46.197  11.055  1.00  0.00     0.032 A 
HETATM   29  C   UNL     1     -39.667 -47.128  11.908  1.00  0.00     0.005 A 
HETATM   30  C   UNL     1     -40.165 -48.441  12.114  1.00  0.00     0.032 A 
ENDBRANCH  17  20
ENDBRANCH   1  16
TORSDOF 4
ENDMDL
MODEL 5
REMARK VINA RESULT:      -6.8      3.972      7.223
REMARK  4 active torsions:
REMARK  status: ('A' for Active; 'I' for Inactive)
REMARK    1  A    between atoms: N_1  and  C_14 
REMARK    2  A    between atoms: N_2  and  C_13 
REMARK    3  A    between atoms: C_14  and  C_17 
REMARK    4  A    between atoms: C_15  and  N_18 
REMARK       I    between atoms: C_17  and  N_18 
ROOT
HETATM    1  C   UNL     1     -41.090 -51.913  11.781  1.00  0.00     0.240 C 
ENDROOT
BRANCH   1   2
HETATM    2  N   UNL     1     -40.142 -50.856  12.113  1.00  0.00    -0.255 N 
HETATM    3  C   UNL     1     -40.464 -49.551  11.755  1.00  0.00     0.334 C 
HETATM    4  N   UNL     1     -39.789 -48.543  12.446  1.00  0.00    -0.279 N 
HETATM    5  O   UNL     1     -41.319 -49.310  10.902  1.00  0.00    -0.246 OA
HETATM    6  C   UNL     1     -38.718 -48.823  13.269  1.00  0.00     0.146 C 
HETATM    7  C   UNL     1     -38.317 -50.070  13.494  1.00  0.00     0.200 C 
HETATM    8  C   UNL     1     -39.079 -51.206  12.936  1.00  0.00     0.292 C 
HETATM    9  F   UNL     1     -37.272 -50.358  14.292  1.00  0.00    -0.199 F 
HETATM   10  O   UNL     1     -38.789 -52.361  13.221  1.00  0.00    -0.264 OA
BRANCH   4  11
HETATM   11  C   UNL     1     -40.291 -47.179  12.274  1.00  0.00     0.232 C 
HETATM   12  O   UNL     1     -39.866 -46.594  11.030  1.00  0.00    -0.366 OA
HETATM   13  C   UNL     1     -39.732 -45.175  11.221  1.00  0.00     0.170 C 
HETATM   14  C   UNL     1     -39.975 -44.879  12.687  1.00  0.00     0.031 C 
HETATM   15  C   UNL     1     -39.776 -46.219  13.342  1.00  0.00     0.056 C 
ENDBRANCH   4  11
ENDBRANCH   1   2
BRANCH   1  16
HETATM   16  C   UNL     1     -42.288 -52.122  12.702  1.00  0.00     0.240 C 
HETATM   17  N   UNL     1     -43.313 -51.196  12.589  1.00  0.00    -0.324 N 
HETATM   18  H   UNL     1     -43.064 -50.296  12.182  1.00  0.00     0.169 HD
HETATM   19  O   UNL     1     -42.211 -52.937  13.624  1.00  0.00    -0.271 OA
BRANCH  17  20
HETATM   20  C   UNL     1     -44.364 -51.150  13.541  1.00  0.00     0.064 A 
HETATM   21  C   UNL     1     -44.105 -50.731  14.876  1.00  0.00     0.094 A 
HETATM   22  N   UNL     1     -42.921 -50.317  15.361  1.00  0.00    -0.309 N 
HETATM   23  C   UNL     1     -45.192 -50.774  15.919  1.00  0.00     0.069 A 
HETATM   24  S   UNL     1     -43.152 -50.052  16.986  1.00  0.00     0.068 SA
ATOM     25  HN  UNL     1     -42.055 -50.191  14.837  1.00  0.00     0.176 HD
HETATM   26  N   UNL     1     -44.768 -50.403  17.138  1.00  0.00    -0.310 N 
ATOM     27  HN  UNL     1     -45.328 -50.348  17.989  1.00  0.00     0.176 HD
HETATM   28  C   UNL     1     -46.505 -51.191  15.592  1.00  0.00     0.032 A 
HETATM   29  C   UNL     1     -46.716 -51.565  14.254  1.00  0.00     0.005 A 
HETATM   30  C   UNL     1     -45.689 -51.553  13.274  1.00  0.00     0.032 A 
ENDBRANCH  17  20
ENDBRANCH   1  16
TORSDOF 4
ENDMDL
MODEL 6
REMARK VINA RESULT:      -6.8      2.825      4.472
REMARK  4 active torsions:
REMARK  status: ('A' for Active; 'I' for Inactive)
REMARK    1  A    between atoms: N_1  and  C_14 
REMARK    2  A    between atoms: N_2  and  C_13 
REMARK    3  A    between atoms: C_14  and  C_17 
REMARK    4  A    between atoms: C_15  and  N_18 
REMARK       I    between atoms: C_17  and  N_18 
ROOT
HETATM    1  C   UNL     1     -39.465 -50.248  14.626  1.00  0.00     0.240 C 
ENDROOT
BRANCH   1   2
HETATM    2  N   UNL     1     -40.525 -51.221  14.391  1.00  0.00    -0.255 N 
HETATM    3  C   UNL     1     -41.826 -50.869  14.738  1.00  0.00     0.334 C 
HETATM    4  N   UNL     1     -42.843 -51.601  14.120  1.00  0.00    -0.279 N 
HETATM    5  O   UNL     1     -42.057 -49.944  15.516  1.00  0.00    -0.246 OA
HETATM    6  C   UNL     1     -42.573 -52.739  13.390  1.00  0.00     0.146 C 
HETATM    7  C   UNL     1     -41.328 -53.158  13.183  1.00  0.00     0.200 C 
HETATM    8  C   UNL     1     -40.185 -52.351  13.658  1.00  0.00     0.292 C 
HETATM    9  F   UNL     1     -41.050 -54.268  12.474  1.00  0.00    -0.199 F 
HETATM   10  O   UNL     1     -39.034 -52.665  13.384  1.00  0.00    -0.264 OA
BRANCH   4  11
HETATM   11  C   UNL     1     -44.204 -51.087  14.266  1.00  0.00     0.232 C 
HETATM   12  O   UNL     1     -44.816 -51.504  15.501  1.00  0.00    -0.366 OA
HETATM   13  C   UNL     1     -46.233 -51.625  15.283  1.00  0.00     0.170 C 
HETATM   14  C   UNL     1     -46.500 -51.381  13.812  1.00  0.00     0.031 C 
HETATM   15  C   UNL     1     -45.149 -51.594  13.182  1.00  0.00     0.056 C 
ENDBRANCH   4  11
ENDBRANCH   1   2
BRANCH   1  16
HETATM   16  C   UNL     1     -39.311 -49.097  13.637  1.00  0.00     0.240 C 
HETATM   17  N   UNL     1     -40.024 -47.945  13.925  1.00  0.00    -0.324 N 
HETATM   18  H   UNL     1     -40.826 -48.054  14.543  1.00  0.00     0.169 HD
HETATM   19  O   UNL     1     -38.761 -49.299  12.552  1.00  0.00    -0.271 OA
BRANCH  17  20
HETATM   20  C   UNL     1     -40.143 -46.901  12.971  1.00  0.00     0.064 A 
HETATM   21  C   UNL     1     -40.986 -47.060  11.837  1.00  0.00     0.094 A 
HETATM   22  N   UNL     1     -41.754 -48.129  11.563  1.00  0.00    -0.309 N 
HETATM   23  C   UNL     1     -41.042 -45.998  10.767  1.00  0.00     0.069 A 
HETATM   24  S   UNL     1     -42.443 -47.838  10.078  1.00  0.00     0.068 SA
ATOM     25  HN  UNL     1     -41.887 -48.953  12.149  1.00  0.00     0.176 HD
HETATM   26  N   UNL     1     -41.838 -46.329   9.739  1.00  0.00    -0.310 N 
ATOM     27  HN  UNL     1     -42.034 -45.764   8.911  1.00  0.00     0.176 HD
HETATM   28  C   UNL     1     -40.293 -44.802  10.882  1.00  0.00     0.032 A 
HETATM   29  C   UNL     1     -39.501 -44.682  12.037  1.00  0.00     0.005 A 
HETATM   30  C   UNL     1     -39.422 -45.690  13.033  1.00  0.00     0.032 A 
ENDBRANCH  17  20
ENDBRANCH   1  16
TORSDOF 4
ENDMDL
MODEL 7
REMARK VINA RESULT:      -6.7      3.573      7.704
REMARK  4 active torsions:
REMARK  status: ('A' for Active; 'I' for Inactive)
REMARK    1  A    between atoms: N_1  and  C_14 
REMARK    2  A    between atoms: N_2  and  C_13 
REMARK    3  A    between atoms: C_14  and  C_17 
REMARK    4  A    between atoms: C_15  and  N_18 
REMARK       I    between atoms: C_17  and  N_18 
ROOT
HETATM    1  C   UNL     1     -40.596 -50.604  15.144  1.00  0.00     0.240 C 
ENDROOT
BRANCH   1   2
HETATM    2  N   UNL     1     -40.277 -50.088  13.818  1.00  0.00    -0.255 N 
HETATM    3  C   UNL     1     -41.249 -49.351  13.150  1.00  0.00     0.334 C 
HETATM    4  N   UNL     1     -40.791 -48.522  12.123  1.00  0.00    -0.279 N 
HETATM    5  O   UNL     1     -42.435 -49.406  13.475  1.00  0.00    -0.246 OA
HETATM    6  C   UNL     1     -39.495 -48.598  11.657  1.00  0.00     0.146 C 
HETATM    7  C   UNL     1     -38.602 -49.415  12.205  1.00  0.00     0.200 C 
HETATM    8  C   UNL     1     -38.956 -50.204  13.404  1.00  0.00     0.292 C 
HETATM    9  F   UNL     1     -37.335 -49.501  11.759  1.00  0.00    -0.199 F 
HETATM   10  O   UNL     1     -38.116 -50.879  13.985  1.00  0.00    -0.264 OA
BRANCH   4  11
HETATM   11  C   UNL     1     -41.747 -47.554  11.584  1.00  0.00     0.232 C 
HETATM   12  O   UNL     1     -42.559 -48.114  10.536  1.00  0.00    -0.366 OA
HETATM   13  C   UNL     1     -42.893 -47.062   9.614  1.00  0.00     0.170 C 
HETATM   14  C   UNL     1     -42.158 -45.810  10.050  1.00  0.00     0.031 C 
HETATM   15  C   UNL     1     -41.070 -46.349  10.940  1.00  0.00     0.056 C 
ENDBRANCH   4  11
ENDBRANCH   1   2
BRANCH   1  16
HETATM   16  C   UNL     1     -41.648 -51.703  15.255  1.00  0.00     0.240 C 
HETATM   17  N   UNL     1     -41.934 -52.394  14.089  1.00  0.00    -0.324 N 
HETATM   18  H   UNL     1     -41.701 -51.922  13.217  1.00  0.00     0.169 HD
HETATM   19  O   UNL     1     -42.333 -51.787  16.277  1.00  0.00    -0.271 OA
BRANCH  17  20
HETATM   20  C   UNL     1     -43.046 -53.272  14.014  1.00  0.00     0.064 A 
HETATM   21  C   UNL     1     -44.293 -52.809  13.510  1.00  0.00     0.094 A 
HETATM   22  N   UNL     1     -44.548 -51.576  13.038  1.00  0.00    -0.309 N 
HETATM   23  C   UNL     1     -45.506 -53.704  13.521  1.00  0.00     0.069 A 
HETATM   24  S   UNL     1     -46.172 -51.541  12.684  1.00  0.00     0.068 SA
ATOM     25  HN  UNL     1     -43.880 -50.815  12.921  1.00  0.00     0.176 HD
HETATM   26  N   UNL     1     -46.613 -53.096  13.067  1.00  0.00    -0.310 N 
ATOM     27  HN  UNL     1     -47.542 -53.508  12.977  1.00  0.00     0.176 HD
HETATM   28  C   UNL     1     -45.428 -55.038  13.989  1.00  0.00     0.032 A 
HETATM   29  C   UNL     1     -44.166 -55.456  14.446  1.00  0.00     0.005 A 
HETATM   30  C   UNL     1     -43.028 -54.608  14.466  1.00  0.00     0.032 A 
ENDBRANCH  17  20
ENDBRANCH   1  16
TORSDOF 4
ENDMDL
MODEL 8
REMARK VINA RESULT:      -6.6      5.264      9.439
REMARK  4 active torsions:
REMARK  status: ('A' for Active; 'I' for Inactive)
REMARK    1  A    between atoms: N_1  and  C_14 
REMARK    2  A    between atoms: N_2  and  C_13 
REMARK    3  A    between atoms: C_14  and  C_17 
REMARK    4  A    between atoms: C_15  and  N_18 
REMARK       I    between atoms: C_17  and  N_18 
ROOT
HETATM    1  C   UNL     1     -39.452 -54.394  16.096  1.00  0.00     0.240 C 
ENDROOT
BRANCH   1   2
HETATM    2  N   UNL     1     -40.458 -54.358  15.041  1.00  0.00    -0.255 N 
HETATM    3  C   UNL     1     -41.783 -54.599  15.391  1.00  0.00     0.334 C 
HETATM    4  N   UNL     1     -42.747 -54.138  14.491  1.00  0.00    -0.279 N 
HETATM    5  O   UNL     1     -42.078 -55.155  16.449  1.00  0.00    -0.246 OA
HETATM    6  C   UNL     1     -42.403 -53.676  13.238  1.00  0.00     0.146 C 
HETATM    7  C   UNL     1     -41.135 -53.585  12.850  1.00  0.00     0.200 C 
HETATM    8  C   UNL     1     -40.045 -53.892  13.799  1.00  0.00     0.292 C 
HETATM    9  F   UNL     1     -40.786 -53.138  11.630  1.00  0.00    -0.199 F 
HETATM   10  O   UNL     1     -38.873 -53.711  13.494  1.00  0.00    -0.264 OA
BRANCH   4  11
HETATM   11  C   UNL     1     -44.135 -54.148  14.954  1.00  0.00     0.232 C 
HETATM   12  O   UNL     1     -44.869 -55.282  14.456  1.00  0.00    -0.366 OA
HETATM   13  C   UNL     1     -46.245 -54.895  14.300  1.00  0.00     0.170 C 
HETATM   14  C   UNL     1     -46.350 -53.415  14.608  1.00  0.00     0.031 C 
HETATM   15  C   UNL     1     -44.929 -52.939  14.470  1.00  0.00     0.056 C 
ENDBRANCH   4  11
ENDBRANCH   1   2
BRANCH   1  16
HETATM   16  C   UNL     1     -38.837 -55.742  16.460  1.00  0.00     0.240 C 
HETATM   17  N   UNL     1     -39.361 -56.369  17.579  1.00  0.00    -0.324 N 
HETATM   18  H   UNL     1     -39.843 -55.769  18.247  1.00  0.00     0.169 HD
HETATM   19  O   UNL     1     -37.798 -56.105  15.905  1.00  0.00    -0.271 OA
BRANCH  17  20
HETATM   20  C   UNL     1     -38.724 -57.502  18.147  1.00  0.00     0.064 A 
HETATM   21  C   UNL     1     -37.496 -57.358  18.851  1.00  0.00     0.094 A 
HETATM   22  N   UNL     1     -36.848 -56.203  19.085  1.00  0.00    -0.309 N 
HETATM   23  C   UNL     1     -36.761 -58.568  19.370  1.00  0.00     0.069 A 
HETATM   24  S   UNL     1     -35.429 -56.614  19.847  1.00  0.00     0.068 SA
ATOM     25  HN  UNL     1     -37.164 -55.264  18.843  1.00  0.00     0.176 HD
HETATM   26  N   UNL     1     -35.593 -58.263  19.956  1.00  0.00    -0.310 N 
ATOM     27  HN  UNL     1     -34.936 -58.915  20.384  1.00  0.00     0.176 HD
HETATM   28  C   UNL     1     -37.291 -59.871  19.209  1.00  0.00     0.032 A 
HETATM   29  C   UNL     1     -38.521 -59.956  18.535  1.00  0.00     0.005 A 
HETATM   30  C   UNL     1     -39.203 -58.823  18.018  1.00  0.00     0.032 A 
ENDBRANCH  17  20
ENDBRANCH   1  16
TORSDOF 4
ENDMDL
MODEL 9
REMARK VINA RESULT:      -6.6      2.799      4.448
REMARK  4 active torsions:
REMARK  status: ('A' for Active; 'I' for Inactive)
REMARK    1  A    between atoms: N_1  and  C_14 
REMARK    2  A    between atoms: N_2  and  C_13 
REMARK    3  A    between atoms: C_14  and  C_17 
REMARK    4  A    between atoms: C_15  and  N_18 
REMARK       I    between atoms: C_17  and  N_18 
ROOT
HETATM    1  C   UNL     1     -39.487 -50.109  11.666  1.00  0.00     0.240 C 
ENDROOT
BRANCH   1   2
HETATM    2  N   UNL     1     -40.057 -51.072  12.601  1.00  0.00    -0.255 N 
HETATM    3  C   UNL     1     -41.441 -51.204  12.642  1.00  0.00     0.334 C 
HETATM    4  N   UNL     1     -41.926 -52.393  13.192  1.00  0.00    -0.279 N 
HETATM    5  O   UNL     1     -42.185 -50.335  12.188  1.00  0.00    -0.246 OA
HETATM    6  C   UNL     1     -41.097 -53.276  13.850  1.00  0.00     0.146 C 
HETATM    7  C   UNL     1     -39.786 -53.072  13.937  1.00  0.00     0.200 C 
HETATM    8  C   UNL     1     -39.166 -51.926  13.239  1.00  0.00     0.292 C 
HETATM    9  F   UNL     1     -38.964 -53.923  14.578  1.00  0.00    -0.199 F 
HETATM   10  O   UNL     1     -37.950 -51.783  13.218  1.00  0.00    -0.264 OA
BRANCH   4  11
HETATM   11  C   UNL     1     -43.352 -52.666  13.013  1.00  0.00     0.232 C 
HETATM   12  O   UNL     1     -44.153 -52.104  14.069  1.00  0.00    -0.366 OA
HETATM   13  C   UNL     1     -45.302 -52.946  14.262  1.00  0.00     0.170 C 
HETATM   14  C   UNL     1     -45.150 -54.153  13.358  1.00  0.00     0.031 C 
HETATM   15  C   UNL     1     -43.679 -54.155  13.040  1.00  0.00     0.056 C 
ENDBRANCH   4  11
ENDBRANCH   1   2
BRANCH   1  16
HETATM   16  C   UNL     1     -39.592 -48.626  12.005  1.00  0.00     0.240 C 
HETATM   17  N   UNL     1     -40.453 -47.879  11.218  1.00  0.00    -0.324 N 
HETATM   18  H   UNL     1     -40.676 -48.266  10.302  1.00  0.00     0.169 HD
HETATM   19  O   UNL     1     -38.781 -48.123  12.786  1.00  0.00    -0.271 OA
BRANCH  17  20
HETATM   20  C   UNL     1     -40.462 -46.462  11.286  1.00  0.00     0.064 A 
HETATM   21  C   UNL     1     -41.284 -45.794  12.235  1.00  0.00     0.094 A 
HETATM   22  N   UNL     1     -42.073 -46.381  13.152  1.00  0.00    -0.309 N 
HETATM   23  C   UNL     1     -41.377 -44.289  12.247  1.00  0.00     0.069 A 
HETATM   24  S   UNL     1     -42.884 -45.151  13.922  1.00  0.00     0.068 SA
ATOM     25  HN  UNL     1     -42.158 -47.380  13.337  1.00  0.00     0.176 HD
HETATM   26  N   UNL     1     -42.239 -43.822  13.163  1.00  0.00    -0.310 N 
ATOM     27  HN  UNL     1     -42.456 -42.844  13.356  1.00  0.00     0.176 HD
HETATM   28  C   UNL     1     -40.619 -43.502  11.347  1.00  0.00     0.032 A 
HETATM   29  C   UNL     1     -39.800 -44.209  10.451  1.00  0.00     0.005 A 
HETATM   30  C   UNL     1     -39.731 -45.626  10.415  1.00  0.00     0.032 A 
ENDBRANCH  17  20
ENDBRANCH   1  16
TORSDOF 4
ENDMDL
