MODEL 1
REMARK VINA RESULT:      -5.9      0.000      0.000
REMARK  3 active torsions:
REMARK  status: ('A' for Active; 'I' for Inactive)
REMARK    1  A    between atoms: C_4  and  N_5 
REMARK       I    between atoms: N_5  and  C_6 
REMARK       I    between atoms: C_6  and  N_8 
REMARK    2  A    between atoms: N_8  and  C_9 
REMARK    3  A    between atoms: C_9  and  C_10 
ROOT
HETATM    1  N   UNL     1     -42.369 -46.519   9.726  1.00  0.00    -0.287 N 
HETATM    2  C   UNL     1     -41.386 -47.258  10.331  1.00  0.00     0.322 C 
HETATM    3  O   UNL     1     -40.479 -46.688  10.933  1.00  0.00    -0.247 OA
HETATM    4  N   UNL     1     -41.536 -48.612  10.324  1.00  0.00    -0.342 N 
HETATM    5  H   UNL     1     -42.392 -45.561  10.046  1.00  0.00     0.172 HD
HETATM    6  H   UNL     1     -42.321 -49.016   9.819  1.00  0.00     0.164 HD
ENDROOT
BRANCH   1   7
HETATM    7  C   UNL     1     -43.478 -47.067   9.146  1.00  0.00     0.176 A 
HETATM    8  C   UNL     1     -44.781 -47.136   9.567  1.00  0.00     0.085 A 
HETATM    9  C   UNL     1     -45.399 -47.977   8.614  1.00  0.00     0.033 A 
HETATM   10  C   UNL     1     -46.755 -48.568   8.650  1.00  0.00     0.070 C 
HETATM   11  N   UNL     1     -44.568 -48.279   7.609  1.00  0.00    -0.264 N 
HETATM   12  O   UNL     1     -43.356 -47.711   7.955  1.00  0.00    -0.220 OA
ATOM     13  HN  UNL     1     -44.783 -48.814   6.768  1.00  0.00     0.194 HD
ENDBRANCH   1   7
BRANCH   4  14
HETATM   14  C   UNL     1     -40.732 -49.534  11.105  1.00  0.00     0.140 C 
BRANCH  14  15
HETATM   15  C   UNL     1     -41.327 -49.796  12.506  1.00  0.00     0.074 C 
HETATM   16  C   UNL     1     -40.289 -49.651  13.626  1.00  0.00     0.090 C 
HETATM   17  S   UNL     1     -38.867 -50.793  13.526  1.00  0.00    -0.167 SA
HETATM   18  C   UNL     1     -39.755 -52.385  13.570  1.00  0.00     0.084 C 
HETATM   19  C   UNL     1     -40.795 -52.551  12.466  1.00  0.00     0.084 C 
HETATM   20  S   UNL     1     -42.211 -51.416  12.629  1.00  0.00    -0.161 SA
ENDBRANCH  14  15
ENDBRANCH   4  14
TORSDOF 3
ENDMDL
MODEL 2
REMARK VINA RESULT:      -5.7      1.986      2.181
REMARK  3 active torsions:
REMARK  status: ('A' for Active; 'I' for Inactive)
REMARK    1  A    between atoms: C_4  and  N_5 
REMARK       I    between atoms: N_5  and  C_6 
REMARK       I    between atoms: C_6  and  N_8 
REMARK    2  A    between atoms: N_8  and  C_9 
REMARK    3  A    between atoms: C_9  and  C_10 
ROOT
HETATM    1  N   UNL     1     -43.627 -45.324   9.681  1.00  0.00    -0.287 N 
HETATM    2  C   UNL     1     -42.408 -45.483  10.287  1.00  0.00     0.322 C 
HETATM    3  O   UNL     1     -41.942 -44.572  10.967  1.00  0.00    -0.247 OA
HETATM    4  N   UNL     1     -41.824 -46.709  10.189  1.00  0.00    -0.342 N 
HETATM    5  H   UNL     1     -44.154 -44.549  10.059  1.00  0.00     0.172 HD
HETATM    6  H   UNL     1     -42.274 -47.424   9.622  1.00  0.00     0.164 HD
ENDROOT
BRANCH   1   7
HETATM    7  C   UNL     1     -44.277 -46.324   9.015  1.00  0.00     0.176 A 
HETATM    8  C   UNL     1     -45.546 -46.825   9.146  1.00  0.00     0.085 A 
HETATM    9  C   UNL     1     -45.551 -47.958   8.300  1.00  0.00     0.033 A 
HETATM   10  C   UNL     1     -46.585 -49.008   8.173  1.00  0.00     0.070 C 
HETATM   11  N   UNL     1     -44.415 -48.054   7.599  1.00  0.00    -0.264 N 
HETATM   12  O   UNL     1     -43.612 -47.028   8.060  1.00  0.00    -0.220 OA
ATOM     13  HN  UNL     1     -44.190 -48.739   6.877  1.00  0.00     0.194 HD
ENDBRANCH   1   7
BRANCH   4  14
HETATM   14  C   UNL     1     -40.662 -47.131  10.949  1.00  0.00     0.140 C 
BRANCH  14  15
HETATM   15  C   UNL     1     -40.989 -48.264  11.948  1.00  0.00     0.074 C 
HETATM   16  C   UNL     1     -40.677 -47.881  13.400  1.00  0.00     0.090 C 
HETATM   17  S   UNL     1     -38.928 -47.477  13.743  1.00  0.00    -0.167 SA
HETATM   18  C   UNL     1     -38.151 -49.045  13.229  1.00  0.00     0.084 C 
HETATM   19  C   UNL     1     -38.450 -49.447  11.788  1.00  0.00     0.084 C 
HETATM   20  S   UNL     1     -40.197 -49.876  11.504  1.00  0.00    -0.161 SA
ENDBRANCH  14  15
ENDBRANCH   4  14
TORSDOF 3
ENDMDL
MODEL 3
REMARK VINA RESULT:      -5.5      4.708      6.107
REMARK  3 active torsions:
REMARK  status: ('A' for Active; 'I' for Inactive)
REMARK    1  A    between atoms: C_4  and  N_5 
REMARK       I    between atoms: N_5  and  C_6 
REMARK       I    between atoms: C_6  and  N_8 
REMARK    2  A    between atoms: N_8  and  C_9 
REMARK    3  A    between atoms: C_9  and  C_10 
ROOT
HETATM    1  N   UNL     1     -41.930 -46.741   9.691  1.00  0.00    -0.287 N 
HETATM    2  C   UNL     1     -41.188 -46.016  10.588  1.00  0.00     0.322 C 
HETATM    3  O   UNL     1     -39.963 -46.114  10.584  1.00  0.00    -0.247 OA
HETATM    4  N   UNL     1     -41.859 -45.128  11.372  1.00  0.00    -0.342 N 
HETATM    5  H   UNL     1     -41.375 -47.109   8.931  1.00  0.00     0.172 HD
HETATM    6  H   UNL     1     -42.874 -45.088  11.311  1.00  0.00     0.164 HD
ENDROOT
BRANCH   1   7
HETATM    7  C   UNL     1     -43.280 -46.601   9.538  1.00  0.00     0.176 A 
HETATM    8  C   UNL     1     -44.315 -47.463   9.788  1.00  0.00     0.085 A 
HETATM    9  C   UNL     1     -45.445 -46.798   9.260  1.00  0.00     0.033 A 
HETATM   10  C   UNL     1     -46.816 -47.320   9.069  1.00  0.00     0.070 C 
HETATM   11  N   UNL     1     -45.140 -45.561   8.848  1.00  0.00    -0.264 N 
HETATM   12  O   UNL     1     -43.773 -45.446   9.016  1.00  0.00    -0.220 OA
ATOM     13  HN  UNL     1     -45.780 -44.854   8.487  1.00  0.00     0.194 HD
ENDBRANCH   1   7
BRANCH   4  14
HETATM   14  C   UNL     1     -41.227 -44.121  12.203  1.00  0.00     0.140 C 
BRANCH  14  15
HETATM   15  C   UNL     1     -41.157 -42.742  11.510  1.00  0.00     0.074 C 
HETATM   16  C   UNL     1     -40.287 -41.738  12.277  1.00  0.00     0.090 C 
HETATM   17  S   UNL     1     -40.847 -41.354  13.973  1.00  0.00    -0.167 SA
HETATM   18  C   UNL     1     -42.518 -40.725  13.605  1.00  0.00     0.084 C 
HETATM   19  C   UNL     1     -43.401 -41.707  12.840  1.00  0.00     0.084 C 
HETATM   20  S   UNL     1     -42.824 -42.028  11.143  1.00  0.00    -0.161 SA
ENDBRANCH  14  15
ENDBRANCH   4  14
TORSDOF 3
ENDMDL
MODEL 4
REMARK VINA RESULT:      -5.4      2.467      3.622
REMARK  3 active torsions:
REMARK  status: ('A' for Active; 'I' for Inactive)
REMARK    1  A    between atoms: C_4  and  N_5 
REMARK       I    between atoms: N_5  and  C_6 
REMARK       I    between atoms: C_6  and  N_8 
REMARK    2  A    between atoms: N_8  and  C_9 
REMARK    3  A    between atoms: C_9  and  C_10 
ROOT
HETATM    1  N   UNL     1     -40.981 -48.919  10.643  1.00  0.00    -0.287 N 
HETATM    2  C   UNL     1     -40.979 -50.050  11.418  1.00  0.00     0.322 C 
HETATM    3  O   UNL     1     -39.918 -50.621  11.659  1.00  0.00    -0.247 OA
HETATM    4  N   UNL     1     -42.164 -50.418  11.978  1.00  0.00    -0.342 N 
HETATM    5  H   UNL     1     -40.062 -48.511  10.544  1.00  0.00     0.172 HD
HETATM    6  H   UNL     1     -43.002 -49.889  11.748  1.00  0.00     0.164 HD
ENDROOT
BRANCH   1   7
HETATM    7  C   UNL     1     -42.090 -48.150  10.429  1.00  0.00     0.176 A 
HETATM    8  C   UNL     1     -42.722 -47.773   9.273  1.00  0.00     0.085 A 
HETATM    9  C   UNL     1     -43.694 -46.842   9.708  1.00  0.00     0.033 A 
HETATM   10  C   UNL     1     -44.552 -45.957   8.891  1.00  0.00     0.070 C 
HETATM   11  N   UNL     1     -43.743 -46.769  11.044  1.00  0.00    -0.264 N 
HETATM   12  O   UNL     1     -42.724 -47.587  11.493  1.00  0.00    -0.220 OA
ATOM     13  HN  UNL     1     -44.394 -46.225  11.610  1.00  0.00     0.194 HD
ENDBRANCH   1   7
BRANCH   4  14
HETATM   14  C   UNL     1     -42.311 -51.437  13.001  1.00  0.00     0.140 C 
BRANCH  14  15
HETATM   15  C   UNL     1     -42.502 -52.850  12.404  1.00  0.00     0.074 C 
HETATM   16  C   UNL     1     -43.958 -53.328  12.474  1.00  0.00     0.090 C 
HETATM   17  S   UNL     1     -44.658 -53.458  14.156  1.00  0.00    -0.167 SA
HETATM   18  C   UNL     1     -43.476 -54.639  14.885  1.00  0.00     0.084 C 
HETATM   19  C   UNL     1     -42.021 -54.185  14.825  1.00  0.00     0.084 C 
HETATM   20  S   UNL     1     -41.357 -54.107  13.130  1.00  0.00    -0.161 SA
ENDBRANCH  14  15
ENDBRANCH   4  14
TORSDOF 3
ENDMDL
MODEL 5
REMARK VINA RESULT:      -5.3      1.920      2.026
REMARK  3 active torsions:
REMARK  status: ('A' for Active; 'I' for Inactive)
REMARK    1  A    between atoms: C_4  and  N_5 
REMARK       I    between atoms: N_5  and  C_6 
REMARK       I    between atoms: C_6  and  N_8 
REMARK    2  A    between atoms: N_8  and  C_9 
REMARK    3  A    between atoms: C_9  and  C_10 
ROOT
HETATM    1  N   UNL     1     -41.741 -47.581   9.930  1.00  0.00    -0.287 N 
HETATM    2  C   UNL     1     -41.346 -48.501  10.867  1.00  0.00     0.322 C 
HETATM    3  O   UNL     1     -40.231 -48.411  11.376  1.00  0.00    -0.247 OA
HETATM    4  N   UNL     1     -42.274 -49.413  11.268  1.00  0.00    -0.342 N 
HETATM    5  H   UNL     1     -41.161 -46.754   9.925  1.00  0.00     0.172 HD
HETATM    6  H   UNL     1     -43.185 -49.419  10.814  1.00  0.00     0.164 HD
ENDROOT
BRANCH   1   7
HETATM    7  C   UNL     1     -43.002 -47.527   9.407  1.00  0.00     0.176 A 
HETATM    8  C   UNL     1     -44.187 -47.095   9.942  1.00  0.00     0.085 A 
HETATM    9  C   UNL     1     -45.149 -47.463   8.974  1.00  0.00     0.033 A 
HETATM   10  C   UNL     1     -46.624 -47.425   9.079  1.00  0.00     0.070 C 
HETATM   11  N   UNL     1     -44.573 -47.953   7.869  1.00  0.00    -0.264 N 
HETATM   12  O   UNL     1     -43.221 -48.001   8.152  1.00  0.00    -0.220 OA
ATOM     13  HN  UNL     1     -45.034 -48.232   7.003  1.00  0.00     0.194 HD
ENDBRANCH   1   7
BRANCH   4  14
HETATM   14  C   UNL     1     -42.116 -50.305  12.402  1.00  0.00     0.140 C 
BRANCH  14  15
HETATM   15  C   UNL     1     -43.075 -49.958  13.563  1.00  0.00     0.074 C 
HETATM   16  C   UNL     1     -42.361 -49.885  14.918  1.00  0.00     0.090 C 
HETATM   17  S   UNL     1     -41.549 -51.430  15.458  1.00  0.00    -0.167 SA
HETATM   18  C   UNL     1     -42.993 -52.544  15.465  1.00  0.00     0.084 C 
HETATM   19  C   UNL     1     -43.721 -52.630  14.127  1.00  0.00     0.084 C 
HETATM   20  S   UNL     1     -44.545 -51.078  13.650  1.00  0.00    -0.161 SA
ENDBRANCH  14  15
ENDBRANCH   4  14
TORSDOF 3
ENDMDL
MODEL 6
REMARK VINA RESULT:      -5.2      2.947      3.986
REMARK  3 active torsions:
REMARK  status: ('A' for Active; 'I' for Inactive)
REMARK    1  A    between atoms: C_4  and  N_5 
REMARK       I    between atoms: N_5  and  C_6 
REMARK       I    between atoms: C_6  and  N_8 
REMARK    2  A    between atoms: N_8  and  C_9 
REMARK    3  A    between atoms: C_9  and  C_10 
ROOT
HETATM    1  N   UNL     1     -42.840 -48.032  12.927  1.00  0.00    -0.287 N 
HETATM    2  C   UNL     1     -43.144 -49.201  13.577  1.00  0.00     0.322 C 
HETATM    3  O   UNL     1     -43.324 -49.192  14.792  1.00  0.00    -0.247 OA
HETATM    4  N   UNL     1     -43.341 -50.305  12.805  1.00  0.00    -0.342 N 
HETATM    5  H   UNL     1     -43.039 -47.212  13.482  1.00  0.00     0.172 HD
HETATM    6  H   UNL     1     -43.191 -50.236  11.801  1.00  0.00     0.164 HD
ENDROOT
BRANCH   1   7
HETATM    7  C   UNL     1     -42.749 -47.925  11.567  1.00  0.00     0.176 A 
HETATM    8  C   UNL     1     -43.595 -47.368  10.644  1.00  0.00     0.085 A 
HETATM    9  C   UNL     1     -43.026 -47.734   9.402  1.00  0.00     0.033 A 
HETATM   10  C   UNL     1     -43.598 -47.579   8.046  1.00  0.00     0.070 C 
HETATM   11  N   UNL     1     -41.846 -48.346   9.562  1.00  0.00    -0.264 N 
HETATM   12  O   UNL     1     -41.681 -48.472  10.928  1.00  0.00    -0.220 OA
ATOM     13  HN  UNL     1     -41.205 -48.652   8.830  1.00  0.00     0.194 HD
ENDBRANCH   1   7
BRANCH   4  14
HETATM   14  C   UNL     1     -43.890 -51.559  13.287  1.00  0.00     0.140 C 
BRANCH  14  15
HETATM   15  C   UNL     1     -43.270 -52.785  12.579  1.00  0.00     0.074 C 
HETATM   16  C   UNL     1     -44.200 -54.005  12.588  1.00  0.00     0.090 C 
HETATM   17  S   UNL     1     -44.655 -54.630  14.243  1.00  0.00    -0.167 SA
HETATM   18  C   UNL     1     -42.991 -54.988  14.898  1.00  0.00     0.084 C 
HETATM   19  C   UNL     1     -42.048 -53.789  14.897  1.00  0.00     0.084 C 
HETATM   20  S   UNL     1     -41.594 -53.226  13.225  1.00  0.00    -0.161 SA
ENDBRANCH  14  15
ENDBRANCH   4  14
TORSDOF 3
ENDMDL
MODEL 7
REMARK VINA RESULT:      -5.2      1.395      1.960
REMARK  3 active torsions:
REMARK  status: ('A' for Active; 'I' for Inactive)
REMARK    1  A    between atoms: C_4  and  N_5 
REMARK       I    between atoms: N_5  and  C_6 
REMARK       I    between atoms: C_6  and  N_8 
REMARK    2  A    between atoms: N_8  and  C_9 
REMARK    3  A    between atoms: C_9  and  C_10 
ROOT
HETATM    1  N   UNL     1     -41.700 -45.946   9.761  1.00  0.00    -0.287 N 
HETATM    2  C   UNL     1     -40.808 -46.583  10.585  1.00  0.00     0.322 C 
HETATM    3  O   UNL     1     -39.820 -45.979  10.996  1.00  0.00    -0.247 OA
HETATM    4  N   UNL     1     -41.136 -47.838  10.999  1.00  0.00    -0.342 N 
HETATM    5  H   UNL     1     -41.589 -44.942   9.766  1.00  0.00     0.172 HD
HETATM    6  H   UNL     1     -41.979 -48.272  10.631  1.00  0.00     0.164 HD
ENDROOT
BRANCH   1   7
HETATM    7  C   UNL     1     -42.885 -46.495   9.360  1.00  0.00     0.176 A 
HETATM    8  C   UNL     1     -44.165 -46.006   9.386  1.00  0.00     0.085 A 
HETATM    9  C   UNL     1     -44.957 -47.113   9.004  1.00  0.00     0.033 A 
HETATM   10  C   UNL     1     -46.431 -47.244   9.033  1.00  0.00     0.070 C 
HETATM   11  N   UNL     1     -44.202 -48.155   8.636  1.00  0.00    -0.264 N 
HETATM   12  O   UNL     1     -42.898 -47.764   8.872  1.00  0.00    -0.220 OA
ATOM     13  HN  UNL     1     -44.522 -49.048   8.261  1.00  0.00     0.194 HD
ENDBRANCH   1   7
BRANCH   4  14
HETATM   14  C   UNL     1     -40.442 -48.569  12.043  1.00  0.00     0.140 C 
BRANCH  14  15
HETATM   15  C   UNL     1     -39.789 -49.868  11.521  1.00  0.00     0.074 C 
HETATM   16  C   UNL     1     -40.399 -51.129  12.144  1.00  0.00     0.090 C 
HETATM   17  S   UNL     1     -40.248 -51.255  13.961  1.00  0.00    -0.167 SA
HETATM   18  C   UNL     1     -38.433 -51.180  14.118  1.00  0.00     0.084 C 
HETATM   19  C   UNL     1     -37.803 -49.935  13.502  1.00  0.00     0.084 C 
HETATM   20  S   UNL     1     -37.946 -49.873  11.687  1.00  0.00    -0.161 SA
ENDBRANCH  14  15
ENDBRANCH   4  14
TORSDOF 3
ENDMDL
MODEL 8
REMARK VINA RESULT:      -5.2      3.646      5.528
REMARK  3 active torsions:
REMARK  status: ('A' for Active; 'I' for Inactive)
REMARK    1  A    between atoms: C_4  and  N_5 
REMARK       I    between atoms: N_5  and  C_6 
REMARK       I    between atoms: C_6  and  N_8 
REMARK    2  A    between atoms: N_8  and  C_9 
REMARK    3  A    between atoms: C_9  and  C_10 
ROOT
HETATM    1  N   UNL     1     -39.780 -51.239  11.818  1.00  0.00    -0.287 N 
HETATM    2  C   UNL     1     -40.788 -52.145  12.027  1.00  0.00     0.322 C 
HETATM    3  O   UNL     1     -40.513 -53.303  12.329  1.00  0.00    -0.247 OA
HETATM    4  N   UNL     1     -42.064 -51.669  11.996  1.00  0.00    -0.342 N 
HETATM    5  H   UNL     1     -38.891 -51.553  12.180  1.00  0.00     0.172 HD
HETATM    6  H   UNL     1     -42.218 -50.692  11.754  1.00  0.00     0.164 HD
ENDROOT
BRANCH   1   7
HETATM    7  C   UNL     1     -39.992 -49.907  11.604  1.00  0.00     0.176 A 
HETATM    8  C   UNL     1     -39.514 -48.797  12.252  1.00  0.00     0.085 A 
HETATM    9  C   UNL     1     -40.239 -47.731  11.674  1.00  0.00     0.033 A 
HETATM   10  C   UNL     1     -40.290 -46.314  12.099  1.00  0.00     0.070 C 
HETATM   11  N   UNL     1     -40.996 -48.146  10.651  1.00  0.00    -0.264 N 
HETATM   12  O   UNL     1     -40.845 -49.519  10.619  1.00  0.00    -0.220 OA
ATOM     13  HN  UNL     1     -41.564 -47.571  10.029  1.00  0.00     0.194 HD
ENDBRANCH   1   7
BRANCH   4  14
HETATM   14  C   UNL     1     -43.233 -52.417  12.418  1.00  0.00     0.140 C 
BRANCH  14  15
HETATM   15  C   UNL     1     -43.449 -52.362  13.947  1.00  0.00     0.074 C 
HETATM   16  C   UNL     1     -43.841 -53.721  14.539  1.00  0.00     0.090 C 
HETATM   17  S   UNL     1     -45.395 -54.435  13.896  1.00  0.00    -0.167 SA
HETATM   18  C   UNL     1     -46.549 -53.096  14.342  1.00  0.00     0.084 C 
HETATM   19  C   UNL     1     -46.178 -51.733  13.766  1.00  0.00     0.084 C 
HETATM   20  S   UNL     1     -44.642 -51.046  14.465  1.00  0.00    -0.161 SA
ENDBRANCH  14  15
ENDBRANCH   4  14
TORSDOF 3
ENDMDL
MODEL 9
REMARK VINA RESULT:      -5.0      3.912      6.080
REMARK  3 active torsions:
REMARK  status: ('A' for Active; 'I' for Inactive)
REMARK    1  A    between atoms: C_4  and  N_5 
REMARK       I    between atoms: N_5  and  C_6 
REMARK       I    between atoms: C_6  and  N_8 
REMARK    2  A    between atoms: N_8  and  C_9 
REMARK    3  A    between atoms: C_9  and  C_10 
ROOT
HETATM    1  N   UNL     1     -40.579 -52.972  12.900  1.00  0.00    -0.287 N 
HETATM    2  C   UNL     1     -40.053 -51.728  12.662  1.00  0.00     0.322 C 
HETATM    3  O   UNL     1     -38.838 -51.594  12.543  1.00  0.00    -0.247 OA
HETATM    4  N   UNL     1     -40.936 -50.712  12.456  1.00  0.00    -0.342 N 
HETATM    5  H   UNL     1     -39.926 -53.717  12.706  1.00  0.00     0.172 HD
HETATM    6  H   UNL     1     -41.932 -50.898  12.554  1.00  0.00     0.164 HD
ENDROOT
BRANCH   1   7
HETATM    7  C   UNL     1     -41.920 -53.235  12.919  1.00  0.00     0.176 A 
HETATM    8  C   UNL     1     -42.694 -53.931  13.810  1.00  0.00     0.085 A 
HETATM    9  C   UNL     1     -43.959 -53.994  13.181  1.00  0.00     0.033 A 
HETATM   10  C   UNL     1     -45.147 -54.782  13.578  1.00  0.00     0.070 C 
HETATM   11  N   UNL     1     -43.987 -53.267  12.058  1.00  0.00    -0.264 N 
HETATM   12  O   UNL     1     -42.698 -52.799  11.892  1.00  0.00    -0.220 OA
ATOM     13  HN  UNL     1     -44.790 -53.094  11.453  1.00  0.00     0.194 HD
ENDBRANCH   1   7
BRANCH   4  14
HETATM   14  C   UNL     1     -40.576 -49.394  11.966  1.00  0.00     0.140 C 
BRANCH  14  15
HETATM   15  C   UNL     1     -41.426 -48.274  12.606  1.00  0.00     0.074 C 
HETATM   16  C   UNL     1     -42.782 -48.092  11.913  1.00  0.00     0.090 C 
HETATM   17  S   UNL     1     -42.702 -47.636  10.146  1.00  0.00    -0.167 SA
HETATM   18  C   UNL     1     -41.748 -46.087  10.277  1.00  0.00     0.084 C 
HETATM   19  C   UNL     1     -40.396 -46.244  10.966  1.00  0.00     0.084 C 
HETATM   20  S   UNL     1     -40.528 -46.662  12.734  1.00  0.00    -0.161 SA
ENDBRANCH  14  15
ENDBRANCH   4  14
TORSDOF 3
ENDMDL
