MODEL 1
REMARK VINA RESULT:      -6.0      0.000      0.000
REMARK  7 active torsions:
REMARK  status: ('A' for Active; 'I' for Inactive)
REMARK    1  A    between atoms: C_2  and  C_3 
REMARK    2  A    between atoms: C_3  and  O_4 
REMARK    3  A    between atoms: C_3  and  C_10 
REMARK    4  A    between atoms: O_4  and  C_5 
REMARK       I    between atoms: C_10  and  N_12 
REMARK    5  A    between atoms: N_12  and  C_13 
REMARK    6  A    between atoms: C_13  and  C_15 
REMARK    7  A    between atoms: C_15  and  N_17 
ROOT
HETATM    1  C   UNL     1     -42.272 -50.070  12.781  1.00  0.00     0.247 C 
HETATM    2  O   UNL     1     -41.834 -49.633  13.844  1.00  0.00    -0.271 OA
HETATM    3  N   UNL     1     -42.387 -49.293  11.645  1.00  0.00    -0.353 N 
HETATM    4  H   UNL     1     -43.153 -49.557  11.018  1.00  0.00     0.163 HD
ENDROOT
BRANCH   3   5
HETATM    5  C   UNL     1     -42.033 -47.868  11.716  1.00  0.00     0.105 C 
HETATM    6  C   UNL     1     -40.642 -47.632  11.100  1.00  0.00     0.034 C 
BRANCH   5   7
HETATM    7  C   UNL     1     -43.071 -46.921  11.057  1.00  0.00     0.127 C 
HETATM    8  C   UNL     1     -42.597 -45.474  10.896  1.00  0.00     0.036 C 
BRANCH   7   9
HETATM    9  N   UNL     1     -43.564 -47.440   9.787  1.00  0.00    -0.281 N 
HETATM   10  C   UNL     1     -44.853 -47.733   9.460  1.00  0.00     0.201 A 
HETATM   11  N   UNL     1     -44.922 -48.052   8.191  1.00  0.00    -0.346 N 
HETATM   12  C   UNL     1     -43.629 -47.934   7.774  1.00  0.00     0.198 A 
ATOM     13  HN  UNL     1     -45.743 -48.323   7.648  1.00  0.00     0.167 HD
HETATM   14  N   UNL     1     -42.753 -47.576   8.718  1.00  0.00    -0.293 N 
ATOM     15  HN  UNL     1     -41.745 -47.442   8.649  1.00  0.00     0.188 HD
ENDBRANCH   7   9
ENDBRANCH   5   7
ENDBRANCH   3   5
BRANCH   1  16
HETATM   16  C   UNL     1     -42.747 -51.535  12.632  1.00  0.00     0.213 C 
BRANCH  16  17
HETATM   17  C   UNL     1     -41.670 -52.336  11.872  1.00  0.00     0.037 C 
HETATM   18  C   UNL     1     -40.998 -53.444  12.668  1.00  0.00     0.008 C 
ENDBRANCH  16  17
BRANCH  16  19
HETATM   19  O   UNL     1     -43.181 -52.136  13.854  1.00  0.00    -0.371 OA
BRANCH  19  20
HETATM   20  C   UNL     1     -44.568 -52.462  13.958  1.00  0.00     0.122 C 
HETATM   21  C   UNL     1     -45.252 -52.667  12.606  1.00  0.00     0.032 C 
HETATM   22  C   UNL     1     -46.553 -51.881  12.623  1.00  0.00     0.002 C 
HETATM   23  C   UNL     1     -46.723 -51.377  14.043  1.00  0.00     0.002 C 
HETATM   24  C   UNL     1     -45.309 -51.283  14.591  1.00  0.00     0.032 C 
ENDBRANCH  19  20
ENDBRANCH  16  19
ENDBRANCH   1  16
TORSDOF 7
ENDMDL
MODEL 2
REMARK VINA RESULT:      -5.9      2.437      4.038
REMARK  7 active torsions:
REMARK  status: ('A' for Active; 'I' for Inactive)
REMARK    1  A    between atoms: C_2  and  C_3 
REMARK    2  A    between atoms: C_3  and  O_4 
REMARK    3  A    between atoms: C_3  and  C_10 
REMARK    4  A    between atoms: O_4  and  C_5 
REMARK       I    between atoms: C_10  and  N_12 
REMARK    5  A    between atoms: N_12  and  C_13 
REMARK    6  A    between atoms: C_13  and  C_15 
REMARK    7  A    between atoms: C_15  and  N_17 
ROOT
HETATM    1  C   UNL     1     -41.839 -51.159  12.172  1.00  0.00     0.247 C 
HETATM    2  O   UNL     1     -40.847 -51.729  11.720  1.00  0.00    -0.271 OA
HETATM    3  N   UNL     1     -42.154 -49.850  11.862  1.00  0.00    -0.353 N 
HETATM    4  H   UNL     1     -42.652 -49.340  12.599  1.00  0.00     0.163 HD
ENDROOT
BRANCH   3   5
HETATM    5  C   UNL     1     -41.239 -49.079  11.007  1.00  0.00     0.105 C 
HETATM    6  C   UNL     1     -42.033 -48.096  10.127  1.00  0.00     0.034 C 
BRANCH   5   7
HETATM    7  C   UNL     1     -40.132 -48.319  11.783  1.00  0.00     0.127 C 
HETATM    8  C   UNL     1     -40.597 -47.691  13.099  1.00  0.00     0.036 C 
BRANCH   7   9
HETATM    9  N   UNL     1     -38.946 -49.139  12.000  1.00  0.00    -0.281 N 
HETATM   10  C   UNL     1     -38.316 -49.383  13.182  1.00  0.00     0.201 A 
HETATM   11  N   UNL     1     -37.367 -50.269  12.999  1.00  0.00    -0.346 N 
HETATM   12  C   UNL     1     -37.460 -50.546  11.667  1.00  0.00     0.198 A 
ATOM     13  HN  UNL     1     -36.719 -50.656  13.685  1.00  0.00     0.167 HD
HETATM   14  N   UNL     1     -38.402 -49.869  11.005  1.00  0.00    -0.293 N 
ATOM     15  HN  UNL     1     -38.644 -49.896  10.015  1.00  0.00     0.188 HD
ENDBRANCH   7   9
ENDBRANCH   5   7
ENDBRANCH   3   5
BRANCH   1  16
HETATM   16  C   UNL     1     -42.814 -51.862  13.145  1.00  0.00     0.213 C 
BRANCH  16  17
HETATM   17  C   UNL     1     -42.285 -53.278  13.449  1.00  0.00     0.037 C 
HETATM   18  C   UNL     1     -43.330 -54.280  13.915  1.00  0.00     0.008 C 
ENDBRANCH  16  17
BRANCH  16  19
HETATM   19  O   UNL     1     -43.144 -51.091  14.302  1.00  0.00    -0.371 OA
BRANCH  19  20
HETATM   20  C   UNL     1     -44.511 -50.707  14.458  1.00  0.00     0.122 C 
HETATM   21  C   UNL     1     -45.173 -51.298  15.703  1.00  0.00     0.032 C 
HETATM   22  C   UNL     1     -46.517 -51.872  15.281  1.00  0.00     0.002 C 
HETATM   23  C   UNL     1     -46.723 -51.449  13.840  1.00  0.00     0.002 C 
HETATM   24  C   UNL     1     -45.320 -51.266  13.287  1.00  0.00     0.032 C 
ENDBRANCH  19  20
ENDBRANCH  16  19
ENDBRANCH   1  16
TORSDOF 7
ENDMDL
MODEL 3
REMARK VINA RESULT:      -5.8      2.646      4.438
REMARK  7 active torsions:
REMARK  status: ('A' for Active; 'I' for Inactive)
REMARK    1  A    between atoms: C_2  and  C_3 
REMARK    2  A    between atoms: C_3  and  O_4 
REMARK    3  A    between atoms: C_3  and  C_10 
REMARK    4  A    between atoms: O_4  and  C_5 
REMARK       I    between atoms: C_10  and  N_12 
REMARK    5  A    between atoms: N_12  and  C_13 
REMARK    6  A    between atoms: C_13  and  C_15 
REMARK    7  A    between atoms: C_15  and  N_17 
ROOT
HETATM    1  C   UNL     1     -41.949 -51.061  12.079  1.00  0.00     0.247 C 
HETATM    2  O   UNL     1     -40.912 -51.627  11.738  1.00  0.00    -0.271 OA
HETATM    3  N   UNL     1     -42.221 -49.745  11.760  1.00  0.00    -0.353 N 
HETATM    4  H   UNL     1     -42.803 -49.247  12.441  1.00  0.00     0.163 HD
ENDROOT
BRANCH   3   5
HETATM    5  C   UNL     1     -41.209 -48.962  11.035  1.00  0.00     0.105 C 
HETATM    6  C   UNL     1     -41.887 -47.892  10.161  1.00  0.00     0.034 C 
BRANCH   5   7
HETATM    7  C   UNL     1     -40.143 -48.301  11.948  1.00  0.00     0.127 C 
HETATM    8  C   UNL     1     -40.663 -47.868  13.320  1.00  0.00     0.036 C 
BRANCH   7   9
HETATM    9  N   UNL     1     -38.950 -49.127  12.092  1.00  0.00    -0.281 N 
HETATM   10  C   UNL     1     -38.271 -49.405  13.239  1.00  0.00     0.201 A 
HETATM   11  N   UNL     1     -37.332 -50.285  12.992  1.00  0.00    -0.346 N 
HETATM   12  C   UNL     1     -37.479 -50.524  11.657  1.00  0.00     0.198 A 
ATOM     13  HN  UNL     1     -36.656 -50.691  13.639  1.00  0.00     0.167 HD
HETATM   14  N   UNL     1     -38.448 -49.827  11.054  1.00  0.00    -0.293 N 
ATOM     15  HN  UNL     1     -38.730 -49.826  10.075  1.00  0.00     0.188 HD
ENDBRANCH   7   9
ENDBRANCH   5   7
ENDBRANCH   3   5
BRANCH   1  16
HETATM   16  C   UNL     1     -43.035 -51.777  12.915  1.00  0.00     0.213 C 
BRANCH  16  17
HETATM   17  C   UNL     1     -43.998 -50.721  13.496  1.00  0.00     0.037 C 
HETATM   18  C   UNL     1     -44.107 -50.702  15.013  1.00  0.00     0.008 C 
ENDBRANCH  16  17
BRANCH  16  19
HETATM   19  O   UNL     1     -43.679 -52.857  12.235  1.00  0.00    -0.371 OA
BRANCH  19  20
HETATM   20  C   UNL     1     -43.796 -54.092  12.944  1.00  0.00     0.122 C 
HETATM   21  C   UNL     1     -45.047 -54.179  13.819  1.00  0.00     0.032 C 
HETATM   22  C   UNL     1     -44.619 -54.691  15.185  1.00  0.00     0.002 C 
HETATM   23  C   UNL     1     -43.161 -55.083  15.052  1.00  0.00     0.002 C 
HETATM   24  C   UNL     1     -42.629 -54.214  13.925  1.00  0.00     0.032 C 
ENDBRANCH  19  20
ENDBRANCH  16  19
ENDBRANCH   1  16
TORSDOF 7
ENDMDL
MODEL 4
REMARK VINA RESULT:      -5.7      2.761      3.412
REMARK  7 active torsions:
REMARK  status: ('A' for Active; 'I' for Inactive)
REMARK    1  A    between atoms: C_2  and  C_3 
REMARK    2  A    between atoms: C_3  and  O_4 
REMARK    3  A    between atoms: C_3  and  C_10 
REMARK    4  A    between atoms: O_4  and  C_5 
REMARK       I    between atoms: C_10  and  N_12 
REMARK    5  A    between atoms: N_12  and  C_13 
REMARK    6  A    between atoms: C_13  and  C_15 
REMARK    7  A    between atoms: C_15  and  N_17 
ROOT
HETATM    1  C   UNL     1     -39.802 -48.286  11.901  1.00  0.00     0.247 C 
HETATM    2  O   UNL     1     -39.537 -47.892  13.036  1.00  0.00    -0.271 OA
HETATM    3  N   UNL     1     -40.304 -47.453  10.920  1.00  0.00    -0.353 N 
HETATM    4  H   UNL     1     -40.915 -47.911  10.236  1.00  0.00     0.163 HD
ENDROOT
BRANCH   3   5
HETATM    5  C   UNL     1     -40.595 -46.051  11.254  1.00  0.00     0.105 C 
HETATM    6  C   UNL     1     -39.817 -45.107  10.319  1.00  0.00     0.034 C 
BRANCH   5   7
HETATM    7  C   UNL     1     -42.104 -45.692  11.231  1.00  0.00     0.127 C 
HETATM    8  C   UNL     1     -42.399 -44.204  11.028  1.00  0.00     0.036 C 
BRANCH   7   9
HETATM    9  N   UNL     1     -42.849 -46.496  10.270  1.00  0.00    -0.281 N 
HETATM   10  C   UNL     1     -43.779 -47.453  10.538  1.00  0.00     0.201 A 
HETATM   11  N   UNL     1     -44.324 -47.862   9.419  1.00  0.00    -0.346 N 
HETATM   12  C   UNL     1     -43.689 -47.110   8.475  1.00  0.00     0.198 A 
ATOM     13  HN  UNL     1     -45.047 -48.570   9.286  1.00  0.00     0.167 HD
HETATM   14  N   UNL     1     -42.764 -46.266   8.943  1.00  0.00    -0.293 N 
ATOM     15  HN  UNL     1     -42.157 -45.624   8.435  1.00  0.00     0.188 HD
ENDBRANCH   7   9
ENDBRANCH   5   7
ENDBRANCH   3   5
BRANCH   1  16
HETATM   16  C   UNL     1     -39.607 -49.762  11.481  1.00  0.00     0.213 C 
BRANCH  16  17
HETATM   17  C   UNL     1     -38.215 -50.236  11.947  1.00  0.00     0.037 C 
HETATM   18  C   UNL     1     -37.109 -50.133  10.909  1.00  0.00     0.008 C 
ENDBRANCH  16  17
BRANCH  16  19
HETATM   19  O   UNL     1     -40.684 -50.623  11.855  1.00  0.00    -0.371 OA
BRANCH  19  20
HETATM   20  C   UNL     1     -40.367 -51.721  12.712  1.00  0.00     0.122 C 
HETATM   21  C   UNL     1     -40.949 -53.054  12.239  1.00  0.00     0.032 C 
HETATM   22  C   UNL     1     -41.606 -53.721  13.437  1.00  0.00     0.002 C 
HETATM   23  C   UNL     1     -41.244 -52.876  14.643  1.00  0.00     0.002 C 
HETATM   24  C   UNL     1     -41.006 -51.484  14.081  1.00  0.00     0.032 C 
ENDBRANCH  19  20
ENDBRANCH  16  19
ENDBRANCH   1  16
TORSDOF 7
ENDMDL
MODEL 5
REMARK VINA RESULT:      -5.6      2.070      2.858
REMARK  7 active torsions:
REMARK  status: ('A' for Active; 'I' for Inactive)
REMARK    1  A    between atoms: C_2  and  C_3 
REMARK    2  A    between atoms: C_3  and  O_4 
REMARK    3  A    between atoms: C_3  and  C_10 
REMARK    4  A    between atoms: O_4  and  C_5 
REMARK       I    between atoms: C_10  and  N_12 
REMARK    5  A    between atoms: N_12  and  C_13 
REMARK    6  A    between atoms: C_13  and  C_15 
REMARK    7  A    between atoms: C_15  and  N_17 
ROOT
HETATM    1  C   UNL     1     -42.119 -51.406  12.739  1.00  0.00     0.247 C 
HETATM    2  O   UNL     1     -41.930 -50.997  13.884  1.00  0.00    -0.271 OA
HETATM    3  N   UNL     1     -41.685 -50.723  11.620  1.00  0.00    -0.353 N 
HETATM    4  H   UNL     1     -42.265 -50.849  10.785  1.00  0.00     0.163 HD
ENDROOT
BRANCH   3   5
HETATM    5  C   UNL     1     -41.021 -49.422  11.792  1.00  0.00     0.105 C 
HETATM    6  C   UNL     1     -39.526 -49.534  11.438  1.00  0.00     0.034 C 
BRANCH   5   7
HETATM    7  C   UNL     1     -41.669 -48.266  10.985  1.00  0.00     0.127 C 
HETATM    8  C   UNL     1     -43.182 -48.132  11.173  1.00  0.00     0.036 C 
BRANCH   7   9
HETATM    9  N   UNL     1     -41.011 -46.987  11.223  1.00  0.00    -0.281 N 
HETATM   10  C   UNL     1     -40.781 -46.387  12.423  1.00  0.00     0.201 A 
HETATM   11  N   UNL     1     -40.050 -45.314  12.245  1.00  0.00    -0.346 N 
HETATM   12  C   UNL     1     -39.849 -45.301  10.896  1.00  0.00     0.198 A 
ATOM     13  HN  UNL     1     -39.714 -44.652  12.944  1.00  0.00     0.167 HD
HETATM   14  N   UNL     1     -40.429 -46.296  10.220  1.00  0.00    -0.293 N 
ATOM     15  HN  UNL     1     -40.433 -46.483   9.218  1.00  0.00     0.188 HD
ENDBRANCH   7   9
ENDBRANCH   5   7
ENDBRANCH   3   5
BRANCH   1  16
HETATM   16  C   UNL     1     -42.881 -52.723  12.456  1.00  0.00     0.213 C 
BRANCH  16  17
HETATM   17  C   UNL     1     -42.280 -53.846  13.326  1.00  0.00     0.037 C 
HETATM   18  C   UNL     1     -40.834 -54.205  13.021  1.00  0.00     0.008 C 
ENDBRANCH  16  17
BRANCH  16  19
HETATM   19  O   UNL     1     -44.303 -52.606  12.538  1.00  0.00    -0.371 OA
BRANCH  19  20
HETATM   20  C   UNL     1     -44.877 -52.580  13.846  1.00  0.00     0.122 C 
HETATM   21  C   UNL     1     -45.875 -53.711  14.097  1.00  0.00     0.032 C 
HETATM   22  C   UNL     1     -47.116 -53.097  14.726  1.00  0.00     0.002 C 
HETATM   23  C   UNL     1     -46.770 -51.650  15.019  1.00  0.00     0.002 C 
HETATM   24  C   UNL     1     -45.695 -51.299  14.005  1.00  0.00     0.032 C 
ENDBRANCH  19  20
ENDBRANCH  16  19
ENDBRANCH   1  16
TORSDOF 7
ENDMDL
MODEL 6
REMARK VINA RESULT:      -5.6      1.657      2.551
REMARK  7 active torsions:
REMARK  status: ('A' for Active; 'I' for Inactive)
REMARK    1  A    between atoms: C_2  and  C_3 
REMARK    2  A    between atoms: C_3  and  O_4 
REMARK    3  A    between atoms: C_3  and  C_10 
REMARK    4  A    between atoms: O_4  and  C_5 
REMARK       I    between atoms: C_10  and  N_12 
REMARK    5  A    between atoms: N_12  and  C_13 
REMARK    6  A    between atoms: C_13  and  C_15 
REMARK    7  A    between atoms: C_15  and  N_17 
ROOT
HETATM    1  C   UNL     1     -42.198 -50.548  13.663  1.00  0.00     0.247 C 
HETATM    2  O   UNL     1     -43.062 -49.691  13.481  1.00  0.00    -0.271 OA
HETATM    3  N   UNL     1     -40.850 -50.250  13.715  1.00  0.00    -0.353 N 
HETATM    4  H   UNL     1     -40.230 -50.998  13.390  1.00  0.00     0.163 HD
ENDROOT
BRANCH   3   5
HETATM    5  C   UNL     1     -40.416 -48.864  13.484  1.00  0.00     0.105 C 
HETATM    6  C   UNL     1     -39.349 -48.459  14.517  1.00  0.00     0.034 C 
BRANCH   5   7
HETATM    7  C   UNL     1     -39.893 -48.593  12.049  1.00  0.00     0.127 C 
HETATM    8  C   UNL     1     -39.257 -49.806  11.366  1.00  0.00     0.036 C 
BRANCH   7   9
HETATM    9  N   UNL     1     -40.912 -48.000  11.191  1.00  0.00    -0.281 N 
HETATM   10  C   UNL     1     -40.958 -46.721  10.726  1.00  0.00     0.201 A 
HETATM   11  N   UNL     1     -41.951 -46.597   9.881  1.00  0.00    -0.346 N 
HETATM   12  C   UNL     1     -42.491 -47.850   9.855  1.00  0.00     0.198 A 
ATOM     13  HN  UNL     1     -42.248 -45.766   9.367  1.00  0.00     0.167 HD
HETATM   14  N   UNL     1     -41.899 -48.744  10.652  1.00  0.00    -0.293 N 
ATOM     15  HN  UNL     1     -42.132 -49.724  10.811  1.00  0.00     0.188 HD
ENDBRANCH   7   9
ENDBRANCH   5   7
ENDBRANCH   3   5
BRANCH   1  16
HETATM   16  C   UNL     1     -42.552 -52.044  13.833  1.00  0.00     0.213 C 
BRANCH  16  17
HETATM   17  C   UNL     1     -41.249 -52.869  13.849  1.00  0.00     0.037 C 
HETATM   18  C   UNL     1     -41.280 -54.154  13.037  1.00  0.00     0.008 C 
ENDBRANCH  16  17
BRANCH  16  19
HETATM   19  O   UNL     1     -43.439 -52.315  14.921  1.00  0.00    -0.371 OA
BRANCH  19  20
HETATM   20  C   UNL     1     -44.804 -52.581  14.594  1.00  0.00     0.122 C 
HETATM   21  C   UNL     1     -45.057 -52.719  13.092  1.00  0.00     0.032 C 
HETATM   22  C   UNL     1     -46.275 -51.876  12.751  1.00  0.00     0.002 C 
HETATM   23  C   UNL     1     -46.846 -51.403  14.075  1.00  0.00     0.002 C 
HETATM   24  C   UNL     1     -45.659 -51.388  15.023  1.00  0.00     0.032 C 
ENDBRANCH  19  20
ENDBRANCH  16  19
ENDBRANCH   1  16
TORSDOF 7
ENDMDL
MODEL 7
REMARK VINA RESULT:      -5.5      2.919      4.155
REMARK  7 active torsions:
REMARK  status: ('A' for Active; 'I' for Inactive)
REMARK    1  A    between atoms: C_2  and  C_3 
REMARK    2  A    between atoms: C_3  and  O_4 
REMARK    3  A    between atoms: C_3  and  C_10 
REMARK    4  A    between atoms: O_4  and  C_5 
REMARK       I    between atoms: C_10  and  N_12 
REMARK    5  A    between atoms: N_12  and  C_13 
REMARK    6  A    between atoms: C_13  and  C_15 
REMARK    7  A    between atoms: C_15  and  N_17 
ROOT
HETATM    1  C   UNL     1     -40.073 -51.816  14.154  1.00  0.00     0.247 C 
HETATM    2  O   UNL     1     -40.856 -51.068  14.737  1.00  0.00    -0.271 OA
HETATM    3  N   UNL     1     -38.884 -51.372  13.606  1.00  0.00    -0.353 N 
HETATM    4  H   UNL     1     -38.568 -51.893  12.782  1.00  0.00     0.163 HD
ENDROOT
BRANCH   3   5
HETATM    5  C   UNL     1     -38.563 -49.939  13.664  1.00  0.00     0.105 C 
HETATM    6  C   UNL     1     -37.409 -49.690  14.653  1.00  0.00     0.034 C 
BRANCH   5   7
HETATM    7  C   UNL     1     -38.225 -49.307  12.288  1.00  0.00     0.127 C 
HETATM    8  C   UNL     1     -37.349 -50.180  11.387  1.00  0.00     0.036 C 
BRANCH   7   9
HETATM    9  N   UNL     1     -39.418 -48.871  11.572  1.00  0.00    -0.281 N 
HETATM   10  C   UNL     1     -40.420 -49.652  11.082  1.00  0.00     0.201 A 
HETATM   11  N   UNL     1     -41.382 -48.894  10.618  1.00  0.00    -0.346 N 
HETATM   12  C   UNL     1     -40.920 -47.632  10.855  1.00  0.00     0.198 A 
ATOM     13  HN  UNL     1     -42.262 -49.177  10.186  1.00  0.00     0.167 HD
HETATM   14  N   UNL     1     -39.713 -47.562  11.424  1.00  0.00    -0.293 N 
ATOM     15  HN  UNL     1     -39.163 -46.742  11.678  1.00  0.00     0.188 HD
ENDBRANCH   7   9
ENDBRANCH   5   7
ENDBRANCH   3   5
BRANCH   1  16
HETATM   16  C   UNL     1     -40.364 -53.324  13.971  1.00  0.00     0.213 C 
BRANCH  16  17
HETATM   17  C   UNL     1     -39.057 -54.116  14.180  1.00  0.00     0.037 C 
HETATM   18  C   UNL     1     -39.070 -55.103  15.337  1.00  0.00     0.008 C 
ENDBRANCH  16  17
BRANCH  16  19
HETATM   19  O   UNL     1     -41.475 -53.802  14.731  1.00  0.00    -0.371 OA
BRANCH  19  20
HETATM   20  C   UNL     1     -42.485 -54.522  14.021  1.00  0.00     0.122 C 
HETATM   21  C   UNL     1     -43.112 -53.726  12.876  1.00  0.00     0.032 C 
HETATM   22  C   UNL     1     -44.621 -53.873  12.986  1.00  0.00     0.002 C 
HETATM   23  C   UNL     1     -44.867 -54.903  14.071  1.00  0.00     0.002 C 
HETATM   24  C   UNL     1     -43.646 -54.815  14.971  1.00  0.00     0.032 C 
ENDBRANCH  19  20
ENDBRANCH  16  19
ENDBRANCH   1  16
TORSDOF 7
ENDMDL
MODEL 8
REMARK VINA RESULT:      -5.5      2.794      3.834
REMARK  7 active torsions:
REMARK  status: ('A' for Active; 'I' for Inactive)
REMARK    1  A    between atoms: C_2  and  C_3 
REMARK    2  A    between atoms: C_3  and  O_4 
REMARK    3  A    between atoms: C_3  and  C_10 
REMARK    4  A    between atoms: O_4  and  C_5 
REMARK       I    between atoms: C_10  and  N_12 
REMARK    5  A    between atoms: N_12  and  C_13 
REMARK    6  A    between atoms: C_13  and  C_15 
REMARK    7  A    between atoms: C_15  and  N_17 
ROOT
HETATM    1  C   UNL     1     -39.754 -51.924  13.449  1.00  0.00     0.247 C 
HETATM    2  O   UNL     1     -39.313 -51.348  14.443  1.00  0.00    -0.271 OA
HETATM    3  N   UNL     1     -39.844 -51.316  12.212  1.00  0.00    -0.353 N 
HETATM    4  H   UNL     1     -40.612 -51.650  11.621  1.00  0.00     0.163 HD
ENDROOT
BRANCH   3   5
HETATM    5  C   UNL     1     -39.457 -49.903  12.082  1.00  0.00     0.105 C 
HETATM    6  C   UNL     1     -38.108 -49.784  11.349  1.00  0.00     0.034 C 
BRANCH   5   7
HETATM    7  C   UNL     1     -40.519 -49.015  11.381  1.00  0.00     0.127 C 
HETATM    8  C   UNL     1     -41.967 -49.355  11.741  1.00  0.00     0.036 C 
BRANCH   7   9
HETATM    9  N   UNL     1     -40.265 -47.592  11.574  1.00  0.00    -0.281 N 
HETATM   10  C   UNL     1     -39.948 -46.960  12.737  1.00  0.00     0.201 A 
HETATM   11  N   UNL     1     -39.667 -45.704  12.492  1.00  0.00    -0.346 N 
HETATM   12  C   UNL     1     -39.822 -45.613  11.140  1.00  0.00     0.198 A 
ATOM     13  HN  UNL     1     -39.397 -44.974  13.151  1.00  0.00     0.167 HD
HETATM   14  N   UNL     1     -40.204 -46.739  10.530  1.00  0.00    -0.293 N 
ATOM     15  HN  UNL     1     -40.396 -46.908   9.544  1.00  0.00     0.188 HD
ENDBRANCH   7   9
ENDBRANCH   5   7
ENDBRANCH   3   5
BRANCH   1  16
HETATM   16  C   UNL     1     -40.262 -53.384  13.507  1.00  0.00     0.213 C 
BRANCH  16  17
HETATM   17  C   UNL     1     -39.147 -54.280  14.084  1.00  0.00     0.037 C 
HETATM   18  C   UNL     1     -39.474 -54.961  15.403  1.00  0.00     0.008 C 
ENDBRANCH  16  17
BRANCH  16  19
HETATM   19  O   UNL     1     -41.533 -53.536  14.142  1.00  0.00    -0.371 OA
BRANCH  19  20
HETATM   20  C   UNL     1     -42.591 -54.082  13.353  1.00  0.00     0.122 C 
HETATM   21  C   UNL     1     -43.344 -53.035  12.532  1.00  0.00     0.032 C 
HETATM   22  C   UNL     1     -44.832 -53.278  12.729  1.00  0.00     0.002 C 
HETATM   23  C   UNL     1     -44.949 -54.576  13.505  1.00  0.00     0.002 C 
HETATM   24  C   UNL     1     -43.648 -54.679  14.282  1.00  0.00     0.032 C 
ENDBRANCH  19  20
ENDBRANCH  16  19
ENDBRANCH   1  16
TORSDOF 7
ENDMDL
MODEL 9
REMARK VINA RESULT:      -5.4      2.058      2.874
REMARK  7 active torsions:
REMARK  status: ('A' for Active; 'I' for Inactive)
REMARK    1  A    between atoms: C_2  and  C_3 
REMARK    2  A    between atoms: C_3  and  O_4 
REMARK    3  A    between atoms: C_3  and  C_10 
REMARK    4  A    between atoms: O_4  and  C_5 
REMARK       I    between atoms: C_10  and  N_12 
REMARK    5  A    between atoms: N_12  and  C_13 
REMARK    6  A    between atoms: C_13  and  C_15 
REMARK    7  A    between atoms: C_15  and  N_17 
ROOT
HETATM    1  C   UNL     1     -41.356 -50.560  11.665  1.00  0.00     0.247 C 
HETATM    2  O   UNL     1     -40.176 -50.499  11.325  1.00  0.00    -0.271 OA
HETATM    3  N   UNL     1     -42.252 -49.532  11.441  1.00  0.00    -0.353 N 
HETATM    4  H   UNL     1     -43.003 -49.455  12.134  1.00  0.00     0.163 HD
ENDROOT
BRANCH   3   5
HETATM    5  C   UNL     1     -41.770 -48.287  10.825  1.00  0.00     0.105 C 
HETATM    6  C   UNL     1     -42.730 -47.836   9.709  1.00  0.00     0.034 C 
BRANCH   5   7
HETATM    7  C   UNL     1     -41.547 -47.126  11.831  1.00  0.00     0.127 C 
HETATM    8  C   UNL     1     -40.817 -47.530  13.114  1.00  0.00     0.036 C 
BRANCH   7   9
HETATM    9  N   UNL     1     -40.896 -45.977  11.214  1.00  0.00    -0.281 N 
HETATM   10  C   UNL     1     -41.123 -44.660  11.474  1.00  0.00     0.201 A 
HETATM   11  N   UNL     1     -40.257 -43.927  10.819  1.00  0.00    -0.346 N 
HETATM   12  C   UNL     1     -39.502 -44.856  10.164  1.00  0.00     0.198 A 
ATOM     13  HN  UNL     1     -40.168 -42.910  10.804  1.00  0.00     0.167 HD
HETATM   14  N   UNL     1     -39.862 -46.127  10.360  1.00  0.00    -0.293 N 
ATOM     15  HN  UNL     1     -39.463 -46.981   9.970  1.00  0.00     0.188 HD
ENDBRANCH   7   9
ENDBRANCH   5   7
ENDBRANCH   3   5
BRANCH   1  16
HETATM   16  C   UNL     1     -41.936 -51.796  12.393  1.00  0.00     0.213 C 
BRANCH  16  17
HETATM   17  C   UNL     1     -40.868 -52.909  12.416  1.00  0.00     0.037 C 
HETATM   18  C   UNL     1     -40.213 -53.156  13.766  1.00  0.00     0.008 C 
ENDBRANCH  16  17
BRANCH  16  19
HETATM   19  O   UNL     1     -42.519 -51.506  13.665  1.00  0.00    -0.371 OA
BRANCH  19  20
HETATM   20  C   UNL     1     -43.814 -52.050  13.923  1.00  0.00     0.122 C 
HETATM   21  C   UNL     1     -44.347 -52.925  12.788  1.00  0.00     0.032 C 
HETATM   22  C   UNL     1     -45.779 -52.497  12.510  1.00  0.00     0.002 C 
HETATM   23  C   UNL     1     -46.145 -51.511  13.602  1.00  0.00     0.002 C 
HETATM   24  C   UNL     1     -44.821 -50.905  14.034  1.00  0.00     0.032 C 
ENDBRANCH  19  20
ENDBRANCH  16  19
ENDBRANCH   1  16
TORSDOF 7
ENDMDL
