MODEL 1
REMARK VINA RESULT:      -6.6      0.000      0.000
REMARK  5 active torsions:
REMARK  status: ('A' for Active; 'I' for Inactive)
REMARK    1  A    between atoms: S_2  and  N_5 
REMARK    2  A    between atoms: C_9  and  C_11 
REMARK       I    between atoms: C_11  and  N_13 
REMARK    3  A    between atoms: N_13  and  C_14 
REMARK    4  A    between atoms: C_14  and  C_15 
REMARK    5  A    between atoms: C_15  and  C_16 
ROOT
HETATM    1  C   UNL     1     -40.887 -49.658  11.316  1.00  0.00     0.223 C 
HETATM    2  O   UNL     1     -39.716 -50.010  11.416  1.00  0.00    -0.273 OA
HETATM    3  N   UNL     1     -41.953 -50.451  11.686  1.00  0.00    -0.360 N 
HETATM    4  H   UNL     1     -42.900 -50.091  11.612  1.00  0.00     0.162 HD
ENDROOT
BRANCH   1   5
HETATM    5  C   UNL     1     -41.300 -48.288  10.824  1.00  0.00     0.096 C 
HETATM    6  C   UNL     1     -40.388 -47.176  11.346  1.00  0.00     0.017 C 
HETATM    7  C   UNL     1     -40.868 -45.819  10.835  1.00  0.00     0.021 C 
HETATM    8  C   UNL     1     -42.353 -45.574  11.108  1.00  0.00     0.135 C 
HETATM    9  N   UNL     1     -43.209 -46.725  10.699  1.00  0.00    -0.310 N 
HETATM   10  C   UNL     1     -42.729 -48.011  11.277  1.00  0.00     0.149 C 
BRANCH   9  11
HETATM   11  S   UNL     1     -43.747 -46.794   9.087  1.00  0.00     0.224 S 
HETATM   12  C   UNL     1     -45.462 -47.227   9.287  1.00  0.00     0.186 C 
HETATM   13  O   UNL     1     -43.083 -47.913   8.447  1.00  0.00    -0.206 OA
HETATM   14  O   UNL     1     -43.662 -45.466   8.527  1.00  0.00    -0.206 OA
ENDBRANCH   9  11
ENDBRANCH   1   5
BRANCH   3  15
HETATM   15  C   UNL     1     -41.739 -51.800  12.166  1.00  0.00     0.128 C 
BRANCH  15  16
HETATM   16  C   UNL     1     -42.336 -52.040  13.548  1.00  0.00     0.076 C 
BRANCH  16  17
HETATM   17  C   UNL     1     -43.833 -51.919  13.477  1.00  0.00     0.010 A 
HETATM   18  C   UNL     1     -44.533 -51.230  14.465  1.00  0.00     0.025 A 
HETATM   19  C   UNL     1     -45.923 -51.236  14.429  1.00  0.00     0.003 A 
HETATM   20  C   UNL     1     -46.575 -51.926  13.414  1.00  0.00     0.017 A 
HETATM   21  C   UNL     1     -45.804 -52.577  12.467  1.00  0.00     0.088 A 
HETATM   22  N   UNL     1     -44.454 -52.589  12.477  1.00  0.00    -0.369 N 
ATOM     23  HN  UNL     1     -43.922 -53.083  11.759  1.00  0.00     0.165 HD
ENDBRANCH  16  17
ENDBRANCH  15  16
ENDBRANCH   3  15
TORSDOF 5
ENDMDL
MODEL 2
REMARK VINA RESULT:      -6.3      3.349      6.498
REMARK  5 active torsions:
REMARK  status: ('A' for Active; 'I' for Inactive)
REMARK    1  A    between atoms: S_2  and  N_5 
REMARK    2  A    between atoms: C_9  and  C_11 
REMARK       I    between atoms: C_11  and  N_13 
REMARK    3  A    between atoms: N_13  and  C_14 
REMARK    4  A    between atoms: C_14  and  C_15 
REMARK    5  A    between atoms: C_15  and  C_16 
ROOT
HETATM    1  C   UNL     1     -41.651 -52.185  12.418  1.00  0.00     0.223 C 
HETATM    2  O   UNL     1     -40.597 -52.745  12.132  1.00  0.00    -0.273 OA
HETATM    3  N   UNL     1     -41.980 -50.917  11.986  1.00  0.00    -0.360 N 
HETATM    4  H   UNL     1     -42.882 -50.519  12.229  1.00  0.00     0.162 HD
ENDROOT
BRANCH   1   5
HETATM    5  C   UNL     1     -42.740 -52.840  13.238  1.00  0.00     0.096 C 
HETATM    6  C   UNL     1     -42.271 -54.127  13.919  1.00  0.00     0.017 C 
HETATM    7  C   UNL     1     -43.417 -54.753  14.710  1.00  0.00     0.021 C 
HETATM    8  C   UNL     1     -44.687 -54.928  13.876  1.00  0.00     0.135 C 
HETATM    9  N   UNL     1     -45.057 -53.692  13.127  1.00  0.00    -0.310 N 
HETATM   10  C   UNL     1     -43.918 -53.163  12.326  1.00  0.00     0.149 C 
BRANCH   9  11
HETATM   11  S   UNL     1     -46.007 -52.526  13.920  1.00  0.00     0.224 S 
HETATM   12  C   UNL     1     -46.623 -51.560  12.557  1.00  0.00     0.186 C 
HETATM   13  O   UNL     1     -45.118 -51.680  14.692  1.00  0.00    -0.206 OA
HETATM   14  O   UNL     1     -47.116 -53.202  14.551  1.00  0.00    -0.206 OA
ENDBRANCH   9  11
ENDBRANCH   1   5
BRANCH   3  15
HETATM   15  C   UNL     1     -41.044 -50.138  11.202  1.00  0.00     0.128 C 
BRANCH  15  16
HETATM   16  C   UNL     1     -41.203 -48.636  11.406  1.00  0.00     0.076 C 
BRANCH  16  17
HETATM   17  C   UNL     1     -42.304 -48.122  10.520  1.00  0.00     0.010 A 
HETATM   18  C   UNL     1     -43.528 -47.739  11.064  1.00  0.00     0.025 A 
HETATM   19  C   UNL     1     -44.561 -47.378  10.206  1.00  0.00     0.003 A 
HETATM   20  C   UNL     1     -44.346 -47.409   8.833  1.00  0.00     0.017 A 
HETATM   21  C   UNL     1     -43.098 -47.793   8.375  1.00  0.00     0.088 A 
HETATM   22  N   UNL     1     -42.077 -48.149   9.185  1.00  0.00    -0.369 N 
ATOM     23  HN  UNL     1     -41.171 -48.427   8.806  1.00  0.00     0.165 HD
ENDBRANCH  16  17
ENDBRANCH  15  16
ENDBRANCH   3  15
TORSDOF 5
ENDMDL
MODEL 3
REMARK VINA RESULT:      -6.1      3.610      7.062
REMARK  5 active torsions:
REMARK  status: ('A' for Active; 'I' for Inactive)
REMARK    1  A    between atoms: S_2  and  N_5 
REMARK    2  A    between atoms: C_9  and  C_11 
REMARK       I    between atoms: C_11  and  N_13 
REMARK    3  A    between atoms: N_13  and  C_14 
REMARK    4  A    between atoms: C_14  and  C_15 
REMARK    5  A    between atoms: C_15  and  C_16 
ROOT
HETATM    1  C   UNL     1     -43.054 -50.531  13.477  1.00  0.00     0.223 C 
HETATM    2  O   UNL     1     -42.323 -50.453  14.460  1.00  0.00    -0.273 OA
HETATM    3  N   UNL     1     -42.886 -49.765  12.343  1.00  0.00    -0.360 N 
HETATM    4  H   UNL     1     -43.503 -49.899  11.548  1.00  0.00     0.162 HD
ENDROOT
BRANCH   1   5
HETATM    5  C   UNL     1     -44.198 -51.516  13.372  1.00  0.00     0.096 C 
HETATM    6  C   UNL     1     -45.533 -50.835  13.066  1.00  0.00     0.017 C 
HETATM    7  C   UNL     1     -46.649 -51.875  12.995  1.00  0.00     0.021 C 
HETATM    8  C   UNL     1     -46.691 -52.785  14.224  1.00  0.00     0.135 C 
HETATM    9  N   UNL     1     -45.352 -53.341  14.572  1.00  0.00    -0.310 N 
HETATM   10  C   UNL     1     -44.318 -52.275  14.688  1.00  0.00     0.149 C 
BRANCH   9  11
HETATM   11  S   UNL     1     -44.853 -54.774  13.806  1.00  0.00     0.224 S 
HETATM   12  C   UNL     1     -43.370 -55.179  14.706  1.00  0.00     0.186 C 
HETATM   13  O   UNL     1     -44.466 -54.440  12.449  1.00  0.00    -0.206 OA
HETATM   14  O   UNL     1     -45.846 -55.790  14.061  1.00  0.00    -0.206 OA
ENDBRANCH   9  11
ENDBRANCH   1   5
BRANCH   3  15
HETATM   15  C   UNL     1     -41.845 -48.760  12.278  1.00  0.00     0.128 C 
BRANCH  15  16
HETATM   16  C   UNL     1     -41.266 -48.594  10.878  1.00  0.00     0.076 C 
BRANCH  16  17
HETATM   17  C   UNL     1     -42.133 -47.657  10.083  1.00  0.00     0.010 A 
HETATM   18  C   UNL     1     -42.397 -46.371  10.551  1.00  0.00     0.025 A 
HETATM   19  C   UNL     1     -43.294 -45.573   9.849  1.00  0.00     0.003 A 
HETATM   20  C   UNL     1     -43.900 -46.077   8.704  1.00  0.00     0.017 A 
HETATM   21  C   UNL     1     -43.575 -47.360   8.302  1.00  0.00     0.088 A 
HETATM   22  N   UNL     1     -42.709 -48.158   8.964  1.00  0.00    -0.369 N 
ATOM     23  HN  UNL     1     -42.497 -49.100   8.634  1.00  0.00     0.165 HD
ENDBRANCH  16  17
ENDBRANCH  15  16
ENDBRANCH   3  15
TORSDOF 5
ENDMDL
MODEL 4
REMARK VINA RESULT:      -6.0      4.379      5.742
REMARK  5 active torsions:
REMARK  status: ('A' for Active; 'I' for Inactive)
REMARK    1  A    between atoms: S_2  and  N_5 
REMARK    2  A    between atoms: C_9  and  C_11 
REMARK       I    between atoms: C_11  and  N_13 
REMARK    3  A    between atoms: N_13  and  C_14 
REMARK    4  A    between atoms: C_14  and  C_15 
REMARK    5  A    between atoms: C_15  and  C_16 
ROOT
HETATM    1  C   UNL     1     -42.617 -52.669  12.917  1.00  0.00     0.223 C 
HETATM    2  O   UNL     1     -43.280 -51.641  12.818  1.00  0.00    -0.273 OA
HETATM    3  N   UNL     1     -43.150 -53.933  12.772  1.00  0.00    -0.360 N 
HETATM    4  H   UNL     1     -42.544 -54.746  12.831  1.00  0.00     0.162 HD
ENDROOT
BRANCH   1   5
HETATM    5  C   UNL     1     -41.124 -52.671  13.158  1.00  0.00     0.096 C 
HETATM    6  C   UNL     1     -40.649 -53.926  13.893  1.00  0.00     0.017 C 
HETATM    7  C   UNL     1     -39.141 -53.860  14.128  1.00  0.00     0.021 C 
HETATM    8  C   UNL     1     -38.701 -52.554  14.793  1.00  0.00     0.135 C 
HETATM    9  N   UNL     1     -39.276 -51.350  14.128  1.00  0.00    -0.310 N 
HETATM   10  C   UNL     1     -40.755 -51.444  13.983  1.00  0.00     0.149 C 
BRANCH   9  11
HETATM   11  S   UNL     1     -38.443 -50.691  12.800  1.00  0.00     0.224 S 
HETATM   12  C   UNL     1     -37.853 -49.147  13.461  1.00  0.00     0.186 C 
HETATM   13  O   UNL     1     -39.420 -50.384  11.773  1.00  0.00    -0.206 OA
HETATM   14  O   UNL     1     -37.311 -51.539  12.513  1.00  0.00    -0.206 OA
ENDBRANCH   9  11
ENDBRANCH   1   5
BRANCH   3  15
HETATM   15  C   UNL     1     -44.569 -54.116  12.549  1.00  0.00     0.128 C 
BRANCH  15  16
HETATM   16  C   UNL     1     -45.292 -54.683  13.765  1.00  0.00     0.076 C 
BRANCH  16  17
HETATM   17  C   UNL     1     -45.945 -53.564  14.530  1.00  0.00     0.010 A 
HETATM   18  C   UNL     1     -46.436 -52.445  13.861  1.00  0.00     0.025 A 
HETATM   19  C   UNL     1     -46.928 -51.380  14.608  1.00  0.00     0.003 A 
HETATM   20  C   UNL     1     -46.917 -51.460  15.995  1.00  0.00     0.017 A 
HETATM   21  C   UNL     1     -46.421 -52.612  16.580  1.00  0.00     0.088 A 
HETATM   22  N   UNL     1     -45.936 -53.660  15.881  1.00  0.00    -0.369 N 
ATOM     23  HN  UNL     1     -45.577 -54.492  16.351  1.00  0.00     0.165 HD
ENDBRANCH  16  17
ENDBRANCH  15  16
ENDBRANCH   3  15
TORSDOF 5
ENDMDL
MODEL 5
REMARK VINA RESULT:      -5.9      5.110      7.061
REMARK  5 active torsions:
REMARK  status: ('A' for Active; 'I' for Inactive)
REMARK    1  A    between atoms: S_2  and  N_5 
REMARK    2  A    between atoms: C_9  and  C_11 
REMARK       I    between atoms: C_11  and  N_13 
REMARK    3  A    between atoms: N_13  and  C_14 
REMARK    4  A    between atoms: C_14  and  C_15 
REMARK    5  A    between atoms: C_15  and  C_16 
ROOT
HETATM    1  C   UNL     1     -44.134 -54.434  14.065  1.00  0.00     0.223 C 
HETATM    2  O   UNL     1     -44.959 -55.299  14.340  1.00  0.00    -0.273 OA
HETATM    3  N   UNL     1     -44.447 -53.271  13.392  1.00  0.00    -0.360 N 
HETATM    4  H   UNL     1     -43.727 -52.576  13.223  1.00  0.00     0.162 HD
ENDROOT
BRANCH   1   5
HETATM    5  C   UNL     1     -42.681 -54.515  14.478  1.00  0.00     0.096 C 
HETATM    6  C   UNL     1     -42.472 -55.369  15.729  1.00  0.00     0.017 C 
HETATM    7  C   UNL     1     -40.992 -55.394  16.108  1.00  0.00     0.021 C 
HETATM    8  C   UNL     1     -40.383 -53.995  16.211  1.00  0.00     0.135 C 
HETATM    9  N   UNL     1     -40.703 -53.142  15.031  1.00  0.00    -0.310 N 
HETATM   10  C   UNL     1     -42.165 -53.106  14.747  1.00  0.00     0.149 C 
BRANCH   9  11
HETATM   11  S   UNL     1     -39.688 -53.239  13.670  1.00  0.00     0.224 S 
HETATM   12  C   UNL     1     -38.597 -51.855  13.922  1.00  0.00     0.186 C 
HETATM   13  O   UNL     1     -40.493 -52.957  12.497  1.00  0.00    -0.206 OA
HETATM   14  O   UNL     1     -38.924 -54.460  13.765  1.00  0.00    -0.206 OA
ENDBRANCH   9  11
ENDBRANCH   1   5
BRANCH   3  15
HETATM   15  C   UNL     1     -45.793 -53.036  12.911  1.00  0.00     0.128 C 
BRANCH  15  16
HETATM   16  C   UNL     1     -46.288 -51.623  13.197  1.00  0.00     0.076 C 
BRANCH  16  17
HETATM   17  C   UNL     1     -46.207 -51.352  14.675  1.00  0.00     0.010 A 
HETATM   18  C   UNL     1     -47.300 -51.606  15.500  1.00  0.00     0.025 A 
HETATM   19  C   UNL     1     -47.229 -51.237  16.839  1.00  0.00     0.003 A 
HETATM   20  C   UNL     1     -46.075 -50.627  17.316  1.00  0.00     0.017 A 
HETATM   21  C   UNL     1     -45.031 -50.420  16.431  1.00  0.00     0.088 A 
HETATM   22  N   UNL     1     -45.072 -50.767  15.127  1.00  0.00    -0.369 N 
ATOM     23  HN  UNL     1     -44.280 -50.595  14.507  1.00  0.00     0.165 HD
ENDBRANCH  16  17
ENDBRANCH  15  16
ENDBRANCH   3  15
TORSDOF 5
ENDMDL
MODEL 6
REMARK VINA RESULT:      -5.9      3.953      5.079
REMARK  5 active torsions:
REMARK  status: ('A' for Active; 'I' for Inactive)
REMARK    1  A    between atoms: S_2  and  N_5 
REMARK    2  A    between atoms: C_9  and  C_11 
REMARK       I    between atoms: C_11  and  N_13 
REMARK    3  A    between atoms: N_13  and  C_14 
REMARK    4  A    between atoms: C_14  and  C_15 
REMARK    5  A    between atoms: C_15  and  C_16 
ROOT
HETATM    1  C   UNL     1     -41.889 -53.485  13.616  1.00  0.00     0.223 C 
HETATM    2  O   UNL     1     -41.525 -54.410  12.898  1.00  0.00    -0.273 OA
HETATM    3  N   UNL     1     -42.845 -53.618  14.601  1.00  0.00    -0.360 N 
HETATM    4  H   UNL     1     -43.080 -52.823  15.187  1.00  0.00     0.162 HD
ENDROOT
BRANCH   1   5
HETATM    5  C   UNL     1     -41.293 -52.096  13.543  1.00  0.00     0.096 C 
HETATM    6  C   UNL     1     -42.320 -51.000  13.829  1.00  0.00     0.017 C 
HETATM    7  C   UNL     1     -41.666 -49.624  13.717  1.00  0.00     0.021 C 
HETATM    8  C   UNL     1     -40.912 -49.431  12.401  1.00  0.00     0.135 C 
HETATM    9  N   UNL     1     -40.005 -50.572  12.086  1.00  0.00    -0.310 N 
HETATM   10  C   UNL     1     -40.713 -51.881  12.150  1.00  0.00     0.149 C 
BRANCH   9  11
HETATM   11  S   UNL     1     -38.432 -50.550  12.731  1.00  0.00     0.224 S 
HETATM   12  C   UNL     1     -37.481 -49.913  11.367  1.00  0.00     0.186 C 
HETATM   13  O   UNL     1     -38.023 -51.924  12.948  1.00  0.00    -0.206 OA
HETATM   14  O   UNL     1     -38.401 -49.591  13.810  1.00  0.00    -0.206 OA
ENDBRANCH   9  11
ENDBRANCH   1   5
BRANCH   3  15
HETATM   15  C   UNL     1     -43.530 -54.879  14.800  1.00  0.00     0.128 C 
BRANCH  15  16
HETATM   16  C   UNL     1     -44.839 -54.972  14.026  1.00  0.00     0.076 C 
BRANCH  16  17
HETATM   17  C   UNL     1     -45.653 -53.729  14.263  1.00  0.00     0.010 A 
HETATM   18  C   UNL     1     -45.805 -52.781  13.254  1.00  0.00     0.025 A 
HETATM   19  C   UNL     1     -46.466 -51.593  13.544  1.00  0.00     0.003 A 
HETATM   20  C   UNL     1     -46.956 -51.383  14.828  1.00  0.00     0.017 A 
HETATM   21  C   UNL     1     -46.771 -52.380  15.769  1.00  0.00     0.088 A 
HETATM   22  N   UNL     1     -46.133 -53.543  15.516  1.00  0.00    -0.369 N 
ATOM     23  HN  UNL     1     -46.017 -54.253  16.240  1.00  0.00     0.165 HD
ENDBRANCH  16  17
ENDBRANCH  15  16
ENDBRANCH   3  15
TORSDOF 5
ENDMDL
MODEL 7
REMARK VINA RESULT:      -5.8      3.098      6.296
REMARK  5 active torsions:
REMARK  status: ('A' for Active; 'I' for Inactive)
REMARK    1  A    between atoms: S_2  and  N_5 
REMARK    2  A    between atoms: C_9  and  C_11 
REMARK       I    between atoms: C_11  and  N_13 
REMARK    3  A    between atoms: N_13  and  C_14 
REMARK    4  A    between atoms: C_14  and  C_15 
REMARK    5  A    between atoms: C_15  and  C_16 
ROOT
HETATM    1  C   UNL     1     -40.163 -52.802  13.539  1.00  0.00     0.223 C 
HETATM    2  O   UNL     1     -39.343 -53.713  13.485  1.00  0.00    -0.273 OA
HETATM    3  N   UNL     1     -39.836 -51.474  13.357  1.00  0.00    -0.360 N 
HETATM    4  H   UNL     1     -40.564 -50.767  13.380  1.00  0.00     0.162 HD
ENDROOT
BRANCH   1   5
HETATM    5  C   UNL     1     -41.641 -53.031  13.760  1.00  0.00     0.096 C 
HETATM    6  C   UNL     1     -41.965 -54.482  14.118  1.00  0.00     0.017 C 
HETATM    7  C   UNL     1     -43.470 -54.655  14.306  1.00  0.00     0.021 C 
HETATM    8  C   UNL     1     -44.281 -54.118  13.125  1.00  0.00     0.135 C 
HETATM    9  N   UNL     1     -43.863 -52.745  12.720  1.00  0.00    -0.310 N 
HETATM   10  C   UNL     1     -42.395 -52.653  12.491  1.00  0.00     0.149 C 
BRANCH   9  11
HETATM   11  S   UNL     1     -44.572 -51.421  13.518  1.00  0.00     0.224 S 
HETATM   12  C   UNL     1     -46.241 -51.466  12.901  1.00  0.00     0.186 C 
HETATM   13  O   UNL     1     -43.948 -50.214  13.012  1.00  0.00    -0.206 OA
HETATM   14  O   UNL     1     -44.589 -51.705  14.933  1.00  0.00    -0.206 OA
ENDBRANCH   9  11
ENDBRANCH   1   5
BRANCH   3  15
HETATM   15  C   UNL     1     -38.460 -51.074  13.147  1.00  0.00     0.128 C 
BRANCH  15  16
HETATM   16  C   UNL     1     -38.237 -50.393  11.802  1.00  0.00     0.076 C 
BRANCH  16  17
HETATM   17  C   UNL     1     -39.314 -49.367  11.574  1.00  0.00     0.010 A 
HETATM   18  C   UNL     1     -39.321 -48.177  12.299  1.00  0.00     0.025 A 
HETATM   19  C   UNL     1     -40.393 -47.305  12.145  1.00  0.00     0.003 A 
HETATM   20  C   UNL     1     -41.425 -47.642  11.277  1.00  0.00     0.017 A 
HETATM   21  C   UNL     1     -41.336 -48.838  10.589  1.00  0.00     0.088 A 
HETATM   22  N   UNL     1     -40.308 -49.705  10.718  1.00  0.00    -0.369 N 
ATOM     23  HN  UNL     1     -40.282 -50.579  10.192  1.00  0.00     0.165 HD
ENDBRANCH  16  17
ENDBRANCH  15  16
ENDBRANCH   3  15
TORSDOF 5
ENDMDL
MODEL 8
REMARK VINA RESULT:      -5.6      2.081      2.676
REMARK  5 active torsions:
REMARK  status: ('A' for Active; 'I' for Inactive)
REMARK    1  A    between atoms: S_2  and  N_5 
REMARK    2  A    between atoms: C_9  and  C_11 
REMARK       I    between atoms: C_11  and  N_13 
REMARK    3  A    between atoms: N_13  and  C_14 
REMARK    4  A    between atoms: C_14  and  C_15 
REMARK    5  A    between atoms: C_15  and  C_16 
ROOT
HETATM    1  C   UNL     1     -41.356 -50.141  12.552  1.00  0.00     0.223 C 
HETATM    2  O   UNL     1     -40.493 -50.358  13.398  1.00  0.00    -0.273 OA
HETATM    3  N   UNL     1     -42.067 -51.138  11.919  1.00  0.00    -0.360 N 
HETATM    4  H   UNL     1     -42.793 -50.895  11.252  1.00  0.00     0.162 HD
ENDROOT
BRANCH   1   5
HETATM    5  C   UNL     1     -41.779 -48.748  12.140  1.00  0.00     0.096 C 
HETATM    6  C   UNL     1     -43.260 -48.670  11.767  1.00  0.00     0.017 C 
HETATM    7  C   UNL     1     -43.621 -47.249  11.339  1.00  0.00     0.021 C 
HETATM    8  C   UNL     1     -42.686 -46.699  10.261  1.00  0.00     0.135 C 
HETATM    9  N   UNL     1     -41.246 -46.896  10.596  1.00  0.00    -0.310 N 
HETATM   10  C   UNL     1     -40.942 -48.311  10.944  1.00  0.00     0.149 C 
BRANCH   9  11
HETATM   11  S   UNL     1     -40.475 -45.718  11.548  1.00  0.00     0.224 S 
HETATM   12  C   UNL     1     -39.608 -44.760  10.324  1.00  0.00     0.186 C 
HETATM   13  O   UNL     1     -39.482 -46.389  12.364  1.00  0.00    -0.206 OA
HETATM   14  O   UNL     1     -41.492 -44.891  12.154  1.00  0.00    -0.206 OA
ENDBRANCH   9  11
ENDBRANCH   1   5
BRANCH   3  15
HETATM   15  C   UNL     1     -41.780 -52.533  12.185  1.00  0.00     0.128 C 
BRANCH  15  16
HETATM   16  C   UNL     1     -42.605 -53.101  13.334  1.00  0.00     0.076 C 
BRANCH  16  17
HETATM   17  C   UNL     1     -43.980 -52.491  13.315  1.00  0.00     0.010 A 
HETATM   18  C   UNL     1     -44.406 -51.677  14.363  1.00  0.00     0.025 A 
HETATM   19  C   UNL     1     -45.721 -51.225  14.369  1.00  0.00     0.003 A 
HETATM   20  C   UNL     1     -46.571 -51.595  13.334  1.00  0.00     0.017 A 
HETATM   21  C   UNL     1     -46.066 -52.398  12.327  1.00  0.00     0.088 A 
HETATM   22  N   UNL     1     -44.794 -52.853  12.296  1.00  0.00    -0.369 N 
ATOM     23  HN  UNL     1     -44.461 -53.445  11.534  1.00  0.00     0.165 HD
ENDBRANCH  16  17
ENDBRANCH  15  16
ENDBRANCH   3  15
TORSDOF 5
ENDMDL
MODEL 9
REMARK VINA RESULT:      -5.6      4.420      7.422
REMARK  5 active torsions:
REMARK  status: ('A' for Active; 'I' for Inactive)
REMARK    1  A    between atoms: S_2  and  N_5 
REMARK    2  A    between atoms: C_9  and  C_11 
REMARK       I    between atoms: C_11  and  N_13 
REMARK    3  A    between atoms: N_13  and  C_14 
REMARK    4  A    between atoms: C_14  and  C_15 
REMARK    5  A    between atoms: C_15  and  C_16 
ROOT
HETATM    1  C   UNL     1     -42.970 -52.265  13.252  1.00  0.00     0.223 C 
HETATM    2  O   UNL     1     -42.682 -51.316  12.529  1.00  0.00    -0.273 OA
HETATM    3  N   UNL     1     -42.118 -53.321  13.495  1.00  0.00    -0.360 N 
HETATM    4  H   UNL     1     -42.400 -54.062  14.130  1.00  0.00     0.162 HD
ENDROOT
BRANCH   1   5
HETATM    5  C   UNL     1     -44.278 -52.364  14.005  1.00  0.00     0.096 C 
HETATM    6  C   UNL     1     -45.381 -51.504  13.385  1.00  0.00     0.017 C 
HETATM    7  C   UNL     1     -46.666 -51.627  14.201  1.00  0.00     0.021 C 
HETATM    8  C   UNL     1     -46.449 -51.366  15.693  1.00  0.00     0.135 C 
HETATM    9  N   UNL     1     -45.292 -52.128  16.245  1.00  0.00    -0.310 N 
HETATM   10  C   UNL     1     -44.053 -51.920  15.445  1.00  0.00     0.149 C 
BRANCH   9  11
HETATM   11  S   UNL     1     -45.561 -53.715  16.792  1.00  0.00     0.224 S 
HETATM   12  C   UNL     1     -43.907 -54.275  17.136  1.00  0.00     0.186 C 
HETATM   13  O   UNL     1     -46.063 -54.489  15.673  1.00  0.00    -0.206 OA
HETATM   14  O   UNL     1     -46.298 -53.646  18.031  1.00  0.00    -0.206 OA
ENDBRANCH   9  11
ENDBRANCH   1   5
BRANCH   3  15
HETATM   15  C   UNL     1     -40.827 -53.394  12.842  1.00  0.00     0.128 C 
BRANCH  15  16
HETATM   16  C   UNL     1     -39.688 -52.890  13.721  1.00  0.00     0.076 C 
BRANCH  16  17
HETATM   17  C   UNL     1     -39.160 -51.595  13.165  1.00  0.00     0.010 A 
HETATM   18  C   UNL     1     -38.205 -50.863  13.867  1.00  0.00     0.025 A 
HETATM   19  C   UNL     1     -37.826 -49.617  13.381  1.00  0.00     0.003 A 
HETATM   20  C   UNL     1     -38.406 -49.137  12.213  1.00  0.00     0.017 A 
HETATM   21  C   UNL     1     -39.340 -49.931  11.573  1.00  0.00     0.088 A 
HETATM   22  N   UNL     1     -39.729 -51.144  12.022  1.00  0.00    -0.369 N 
ATOM     23  HN  UNL     1     -40.422 -51.699  11.519  1.00  0.00     0.165 HD
ENDBRANCH  16  17
ENDBRANCH  15  16
ENDBRANCH   3  15
TORSDOF 5
ENDMDL
