MODEL 1
REMARK VINA RESULT:      -5.3      0.000      0.000
REMARK  3 active torsions:
REMARK  status: ('A' for Active; 'I' for Inactive)
REMARK    1  A    between atoms: O_1  and  C_2 
REMARK    2  A    between atoms: C_2  and  C_3 
REMARK    3  A    between atoms: N_5  and  C_9 
ROOT
HETATM    1  C   UNL     1     -40.368 -51.306  12.876  1.00  0.00     0.163 C 
HETATM    2  C   UNL     1     -40.892 -49.864  13.049  1.00  0.00     0.158 C 
HETATM    3  N   UNL     1     -40.408 -49.045  11.931  1.00  0.00    -0.360 N 
HETATM    4  C   UNL     1     -38.950 -49.012  11.819  1.00  0.00     0.151 C 
HETATM    5  C   UNL     1     -38.458 -50.465  11.670  1.00  0.00     0.188 C 
HETATM    6  O   UNL     1     -38.928 -51.324  12.725  1.00  0.00    -0.381 OA
ENDROOT
BRANCH   3   7
HETATM    7  C   UNL     1     -41.197 -48.150  11.249  1.00  0.00     0.142 A 
HETATM    8  N   UNL     1     -41.983 -48.625  10.254  1.00  0.00    -0.348 N 
HETATM    9  C   UNL     1     -42.799 -47.759   9.600  1.00  0.00     0.113 A 
ATOM     10  HN  UNL     1     -41.962 -49.613  10.002  1.00  0.00     0.167 HD
HETATM   11  C   UNL     1     -42.899 -46.413   9.903  1.00  0.00     0.052 A 
HETATM   12 CL   UNL     1     -43.978 -45.385   9.052  1.00  0.00    -0.083 Cl
HETATM   13  C   UNL     1     -42.119 -45.916  10.929  1.00  0.00     0.071 A 
HETATM   14  C   UNL     1     -41.268 -46.789  11.598  1.00  0.00     0.161 A 
HETATM   15  F   UNL     1     -40.577 -46.292  12.636  1.00  0.00    -0.202 F 
ENDBRANCH   3   7
BRANCH   1  16
HETATM   16  C   UNL     1     -41.079 -52.042  11.731  1.00  0.00     0.197 C 
BRANCH  16  17
HETATM   17  O   UNL     1     -40.520 -53.338  11.539  1.00  0.00    -0.398 OA
HETATM   18  H   UNL     1     -40.287 -53.680  12.420  1.00  0.00     0.209 HD
ENDBRANCH  16  17
ENDBRANCH   1  16
TORSDOF 3
ENDMDL
MODEL 2
REMARK VINA RESULT:      -5.2      4.090      5.705
REMARK  3 active torsions:
REMARK  status: ('A' for Active; 'I' for Inactive)
REMARK    1  A    between atoms: O_1  and  C_2 
REMARK    2  A    between atoms: C_2  and  C_3 
REMARK    3  A    between atoms: N_5  and  C_9 
ROOT
HETATM    1  C   UNL     1     -44.089 -46.739   8.541  1.00  0.00     0.163 C 
HETATM    2  C   UNL     1     -42.885 -47.688   8.732  1.00  0.00     0.158 C 
HETATM    3  N   UNL     1     -42.327 -47.484  10.074  1.00  0.00    -0.360 N 
HETATM    4  C   UNL     1     -41.894 -46.110  10.324  1.00  0.00     0.151 C 
HETATM    5  C   UNL     1     -43.110 -45.188  10.105  1.00  0.00     0.188 C 
HETATM    6  O   UNL     1     -43.720 -45.366   8.813  1.00  0.00    -0.381 OA
ENDROOT
BRANCH   3   7
HETATM    7  C   UNL     1     -41.951 -48.513  10.904  1.00  0.00     0.142 A 
HETATM    8  N   UNL     1     -40.909 -49.289  10.521  1.00  0.00    -0.348 N 
HETATM    9  C   UNL     1     -40.499 -50.283  11.350  1.00  0.00     0.113 A 
ATOM     10  HN  UNL     1     -40.443 -49.130   9.629  1.00  0.00     0.167 HD
HETATM   11  C   UNL     1     -41.067 -50.542  12.586  1.00  0.00     0.052 A 
HETATM   12 CL   UNL     1     -40.474 -51.797  13.594  1.00  0.00    -0.083 Cl
HETATM   13  C   UNL     1     -42.117 -49.747  12.999  1.00  0.00     0.071 A 
HETATM   14  C   UNL     1     -42.557 -48.734  12.154  1.00  0.00     0.161 A 
HETATM   15  F   UNL     1     -43.531 -47.934  12.614  1.00  0.00    -0.202 F 
ENDBRANCH   3   7
BRANCH   1  16
HETATM   16  C   UNL     1     -45.307 -47.184   9.365  1.00  0.00     0.197 C 
BRANCH  16  17
HETATM   17  O   UNL     1     -46.498 -47.111   8.586  1.00  0.00    -0.398 OA
HETATM   18  H   UNL     1     -47.158 -46.637   9.123  1.00  0.00     0.209 HD
ENDBRANCH  16  17
ENDBRANCH   1  16
TORSDOF 3
ENDMDL
MODEL 3
REMARK VINA RESULT:      -5.0      7.341      8.452
REMARK  3 active torsions:
REMARK  status: ('A' for Active; 'I' for Inactive)
REMARK    1  A    between atoms: O_1  and  C_2 
REMARK    2  A    between atoms: C_2  and  C_3 
REMARK    3  A    between atoms: N_5  and  C_9 
ROOT
HETATM    1  C   UNL     1     -45.095 -54.097  13.169  1.00  0.00     0.163 C 
HETATM    2  C   UNL     1     -45.955 -54.384  14.418  1.00  0.00     0.158 C 
HETATM    3  N   UNL     1     -45.452 -53.578  15.537  1.00  0.00    -0.360 N 
HETATM    4  C   UNL     1     -44.048 -53.834  15.856  1.00  0.00     0.151 C 
HETATM    5  C   UNL     1     -43.221 -53.560  14.585  1.00  0.00     0.188 C 
HETATM    6  O   UNL     1     -43.689 -54.302  13.444  1.00  0.00    -0.381 OA
ENDROOT
BRANCH   3   7
HETATM    7  C   UNL     1     -46.268 -52.890  16.404  1.00  0.00     0.142 A 
HETATM    8  N   UNL     1     -46.227 -53.227  17.715  1.00  0.00    -0.348 N 
HETATM    9  C   UNL     1     -46.996 -52.528  18.589  1.00  0.00     0.113 A 
ATOM     10  HN  UNL     1     -45.632 -53.989  18.038  1.00  0.00     0.167 HD
HETATM   11  C   UNL     1     -47.807 -51.467  18.228  1.00  0.00     0.052 A 
HETATM   12 CL   UNL     1     -48.727 -50.610  19.396  1.00  0.00    -0.083 Cl
HETATM   13  C   UNL     1     -47.844 -51.099  16.898  1.00  0.00     0.071 A 
HETATM   14  C   UNL     1     -47.073 -51.815  15.989  1.00  0.00     0.161 A 
HETATM   15  F   UNL     1     -47.075 -51.388  14.716  1.00  0.00    -0.202 F 
ENDBRANCH   3   7
BRANCH   1  16
HETATM   16  C   UNL     1     -45.373 -52.702  12.588  1.00  0.00     0.197 C 
BRANCH  16  17
HETATM   17  O   UNL     1     -46.424 -52.755  11.627  1.00  0.00    -0.398 OA
HETATM   18  H   UNL     1     -46.495 -53.681  11.337  1.00  0.00     0.209 HD
ENDBRANCH  16  17
ENDBRANCH   1  16
TORSDOF 3
ENDMDL
MODEL 4
REMARK VINA RESULT:      -4.9      2.547      3.660
REMARK  3 active torsions:
REMARK  status: ('A' for Active; 'I' for Inactive)
REMARK    1  A    between atoms: O_1  and  C_2 
REMARK    2  A    between atoms: C_2  and  C_3 
REMARK    3  A    between atoms: N_5  and  C_9 
ROOT
HETATM    1  C   UNL     1     -40.954 -53.956  13.041  1.00  0.00     0.163 C 
HETATM    2  C   UNL     1     -41.199 -52.908  11.934  1.00  0.00     0.158 C 
HETATM    3  N   UNL     1     -41.638 -51.654  12.557  1.00  0.00    -0.360 N 
HETATM    4  C   UNL     1     -42.853 -51.793  13.358  1.00  0.00     0.151 C 
HETATM    5  C   UNL     1     -42.583 -52.859  14.438  1.00  0.00     0.188 C 
HETATM    6  O   UNL     1     -42.119 -54.106  13.887  1.00  0.00    -0.381 OA
ENDROOT
BRANCH   3   7
HETATM    7  C   UNL     1     -41.163 -50.417  12.189  1.00  0.00     0.142 A 
HETATM    8  N   UNL     1     -41.924 -49.667  11.356  1.00  0.00    -0.348 N 
HETATM    9  C   UNL     1     -41.488 -48.427  11.018  1.00  0.00     0.113 A 
ATOM     10  HN  UNL     1     -42.806 -50.027  10.992  1.00  0.00     0.167 HD
HETATM   11  C   UNL     1     -40.317 -47.863  11.493  1.00  0.00     0.052 A 
HETATM   12 CL   UNL     1     -39.846 -46.275  11.044  1.00  0.00    -0.083 Cl
HETATM   13  C   UNL     1     -39.540 -48.607  12.358  1.00  0.00     0.071 A 
HETATM   14  C   UNL     1     -39.966 -49.885  12.702  1.00  0.00     0.161 A 
HETATM   15  F   UNL     1     -39.227 -50.555  13.600  1.00  0.00    -0.202 F 
ENDBRANCH   3   7
BRANCH   1  16
HETATM   16  C   UNL     1     -39.686 -53.649  13.853  1.00  0.00     0.197 C 
BRANCH  16  17
HETATM   17  O   UNL     1     -38.609 -54.488  13.445  1.00  0.00    -0.398 OA
HETATM   18  H   UNL     1     -38.387 -54.239  12.531  1.00  0.00     0.209 HD
ENDBRANCH  16  17
ENDBRANCH   1  16
TORSDOF 3
ENDMDL
MODEL 5
REMARK VINA RESULT:      -4.9      2.162      2.374
REMARK  3 active torsions:
REMARK  status: ('A' for Active; 'I' for Inactive)
REMARK    1  A    between atoms: O_1  and  C_2 
REMARK    2  A    between atoms: C_2  and  C_3 
REMARK    3  A    between atoms: N_5  and  C_9 
ROOT
HETATM    1  C   UNL     1     -40.207 -51.021  13.012  1.00  0.00     0.163 C 
HETATM    2  C   UNL     1     -40.123 -49.600  13.610  1.00  0.00     0.158 C 
HETATM    3  N   UNL     1     -39.183 -48.803  12.813  1.00  0.00    -0.360 N 
HETATM    4  C   UNL     1     -37.838 -49.375  12.752  1.00  0.00     0.151 C 
HETATM    5  C   UNL     1     -37.959 -50.798  12.172  1.00  0.00     0.188 C 
HETATM    6  O   UNL     1     -38.894 -51.618  12.897  1.00  0.00    -0.381 OA
ENDROOT
BRANCH   3   7
HETATM    7  C   UNL     1     -39.426 -47.508  12.423  1.00  0.00     0.142 A 
HETATM    8  N   UNL     1     -39.831 -47.294  11.149  1.00  0.00    -0.348 N 
HETATM    9  C   UNL     1     -40.116 -46.024  10.762  1.00  0.00     0.113 A 
ATOM     10  HN  UNL     1     -39.921 -48.070  10.494  1.00  0.00     0.167 HD
HETATM   11  C   UNL     1     -40.042 -44.926  11.600  1.00  0.00     0.052 A 
HETATM   12 CL   UNL     1     -40.447 -43.352  11.047  1.00  0.00    -0.083 Cl
HETATM   13  C   UNL     1     -39.649 -45.130  12.908  1.00  0.00     0.071 A 
HETATM   14  C   UNL     1     -39.341 -46.423  13.315  1.00  0.00     0.161 A 
HETATM   15  F   UNL     1     -39.032 -46.600  14.609  1.00  0.00    -0.202 F 
ENDBRANCH   3   7
BRANCH   1  16
HETATM   16  C   UNL     1     -40.968 -51.038  11.678  1.00  0.00     0.197 C 
BRANCH  16  17
HETATM   17  O   UNL     1     -41.113 -52.370  11.195  1.00  0.00    -0.398 OA
HETATM   18  H   UNL     1     -41.969 -52.699  11.524  1.00  0.00     0.209 HD
ENDBRANCH  16  17
ENDBRANCH   1  16
TORSDOF 3
ENDMDL
MODEL 6
REMARK VINA RESULT:      -4.9      6.149      7.740
REMARK  3 active torsions:
REMARK  status: ('A' for Active; 'I' for Inactive)
REMARK    1  A    between atoms: O_1  and  C_2 
REMARK    2  A    between atoms: C_2  and  C_3 
REMARK    3  A    between atoms: N_5  and  C_9 
ROOT
HETATM    1  C   UNL     1     -45.491 -53.627  13.189  1.00  0.00     0.163 C 
HETATM    2  C   UNL     1     -44.060 -53.974  12.725  1.00  0.00     0.158 C 
HETATM    3  N   UNL     1     -43.103 -53.170  13.493  1.00  0.00    -0.360 N 
HETATM    4  C   UNL     1     -43.311 -51.728  13.359  1.00  0.00     0.151 C 
HETATM    5  C   UNL     1     -44.752 -51.419  13.809  1.00  0.00     0.188 C 
HETATM    6  O   UNL     1     -45.736 -52.203  13.109  1.00  0.00    -0.381 OA
ENDROOT
BRANCH   3   7
HETATM    7  C   UNL     1     -41.943 -53.677  14.029  1.00  0.00     0.142 A 
HETATM    8  N   UNL     1     -41.979 -54.133  15.304  1.00  0.00    -0.348 N 
HETATM    9  C   UNL     1     -40.852 -54.675  15.832  1.00  0.00     0.113 A 
ATOM     10  HN  UNL     1     -42.835 -54.071  15.854  1.00  0.00     0.167 HD
HETATM   11  C   UNL     1     -39.663 -54.816  15.138  1.00  0.00     0.052 A 
HETATM   12 CL   UNL     1     -38.287 -55.541  15.863  1.00  0.00    -0.083 Cl
HETATM   13  C   UNL     1     -39.616 -54.373  13.831  1.00  0.00     0.071 A 
HETATM   14  C   UNL     1     -40.758 -53.803  13.281  1.00  0.00     0.161 A 
HETATM   15  F   UNL     1     -40.703 -53.449  11.988  1.00  0.00    -0.202 F 
ENDBRANCH   3   7
BRANCH   1  16
HETATM   16  C   UNL     1     -45.793 -54.188  14.587  1.00  0.00     0.197 C 
BRANCH  16  17
HETATM   17  O   UNL     1     -46.734 -55.255  14.511  1.00  0.00    -0.398 OA
HETATM   18  H   UNL     1     -46.222 -56.079  14.430  1.00  0.00     0.209 HD
ENDBRANCH  16  17
ENDBRANCH   1  16
TORSDOF 3
ENDMDL
MODEL 7
REMARK VINA RESULT:      -4.8      3.979      5.611
REMARK  3 active torsions:
REMARK  status: ('A' for Active; 'I' for Inactive)
REMARK    1  A    between atoms: O_1  and  C_2 
REMARK    2  A    between atoms: C_2  and  C_3 
REMARK    3  A    between atoms: N_5  and  C_9 
ROOT
HETATM    1  C   UNL     1     -41.845 -45.395  11.065  1.00  0.00     0.163 C 
HETATM    2  C   UNL     1     -42.440 -46.395  12.080  1.00  0.00     0.158 C 
HETATM    3  N   UNL     1     -42.800 -47.630  11.375  1.00  0.00    -0.360 N 
HETATM    4  C   UNL     1     -43.760 -47.424  10.290  1.00  0.00     0.151 C 
HETATM    5  C   UNL     1     -43.147 -46.407   9.308  1.00  0.00     0.188 C 
HETATM    6  O   UNL     1     -42.745 -45.184   9.951  1.00  0.00    -0.381 OA
ENDROOT
BRANCH   3   7
HETATM    7  C   UNL     1     -42.528 -48.888  11.858  1.00  0.00     0.142 A 
HETATM    8  N   UNL     1     -43.499 -49.522  12.557  1.00  0.00    -0.348 N 
HETATM    9  C   UNL     1     -43.260 -50.782  13.005  1.00  0.00     0.113 A 
ATOM     10  HN  UNL     1     -44.391 -49.064  12.743  1.00  0.00     0.167 HD
HETATM   11  C   UNL     1     -42.086 -51.476  12.770  1.00  0.00     0.052 A 
HETATM   12 CL   UNL     1     -41.868 -53.079  13.342  1.00  0.00    -0.083 Cl
HETATM   13  C   UNL     1     -41.094 -50.850  12.042  1.00  0.00     0.071 A 
HETATM   14  C   UNL     1     -41.319 -49.555  11.589  1.00  0.00     0.161 A 
HETATM   15  F   UNL     1     -40.366 -49.000  10.824  1.00  0.00    -0.202 F 
ENDBRANCH   3   7
BRANCH   1  16
HETATM   16  C   UNL     1     -40.441 -45.812  10.603  1.00  0.00     0.197 C 
BRANCH  16  17
HETATM   17  O   UNL     1     -40.003 -45.000   9.517  1.00  0.00    -0.398 OA
HETATM   18  H   UNL     1     -39.316 -44.405   9.867  1.00  0.00     0.209 HD
ENDBRANCH  16  17
ENDBRANCH   1  16
TORSDOF 3
ENDMDL
MODEL 8
REMARK VINA RESULT:      -4.8      5.222      6.483
REMARK  3 active torsions:
REMARK  status: ('A' for Active; 'I' for Inactive)
REMARK    1  A    between atoms: O_1  and  C_2 
REMARK    2  A    between atoms: C_2  and  C_3 
REMARK    3  A    between atoms: N_5  and  C_9 
ROOT
HETATM    1  C   UNL     1     -41.385 -52.375  11.874  1.00  0.00     0.163 C 
HETATM    2  C   UNL     1     -42.809 -52.914  12.131  1.00  0.00     0.158 C 
HETATM    3  N   UNL     1     -42.988 -53.112  13.574  1.00  0.00    -0.360 N 
HETATM    4  C   UNL     1     -42.016 -54.033  14.162  1.00  0.00     0.151 C 
HETATM    5  C   UNL     1     -40.608 -53.479  13.870  1.00  0.00     0.188 C 
HETATM    6  O   UNL     1     -40.385 -53.236  12.469  1.00  0.00    -0.381 OA
ENDROOT
BRANCH   3   7
HETATM    7  C   UNL     1     -44.121 -52.737  14.257  1.00  0.00     0.142 A 
HETATM    8  N   UNL     1     -44.080 -51.588  14.972  1.00  0.00    -0.348 N 
HETATM    9  C   UNL     1     -45.205 -51.184  15.617  1.00  0.00     0.113 A 
ATOM     10  HN  UNL     1     -43.224 -51.038  15.024  1.00  0.00     0.167 HD
HETATM   11  C   UNL     1     -46.409 -51.864  15.571  1.00  0.00     0.052 A 
HETATM   12 CL   UNL     1     -47.798 -51.275  16.388  1.00  0.00    -0.083 Cl
HETATM   13  C   UNL     1     -46.472 -53.027  14.830  1.00  0.00     0.071 A 
HETATM   14  C   UNL     1     -45.325 -53.461  14.175  1.00  0.00     0.161 A 
HETATM   15  F   UNL     1     -45.436 -54.554  13.405  1.00  0.00    -0.202 F 
ENDBRANCH   3   7
BRANCH   1  16
HETATM   16  C   UNL     1     -41.233 -50.914  12.325  1.00  0.00     0.197 C 
BRANCH  16  17
HETATM   17  O   UNL     1     -42.225 -50.091  11.716  1.00  0.00    -0.398 OA
HETATM   18  H   UNL     1     -42.699 -50.648  11.074  1.00  0.00     0.209 HD
ENDBRANCH  16  17
ENDBRANCH   1  16
TORSDOF 3
ENDMDL
MODEL 9
REMARK VINA RESULT:      -4.7      1.638      2.003
REMARK  3 active torsions:
REMARK  status: ('A' for Active; 'I' for Inactive)
REMARK    1  A    between atoms: O_1  and  C_2 
REMARK    2  A    between atoms: C_2  and  C_3 
REMARK    3  A    between atoms: N_5  and  C_9 
ROOT
HETATM    1  C   UNL     1     -39.908 -51.457  13.102  1.00  0.00     0.163 C 
HETATM    2  C   UNL     1     -40.225 -50.046  13.643  1.00  0.00     0.158 C 
HETATM    3  N   UNL     1     -39.714 -49.048  12.696  1.00  0.00    -0.360 N 
HETATM    4  C   UNL     1     -38.275 -49.154  12.456  1.00  0.00     0.151 C 
HETATM    5  C   UNL     1     -37.989 -50.577  11.938  1.00  0.00     0.188 C 
HETATM    6  O   UNL     1     -38.496 -51.601  12.814  1.00  0.00    -0.381 OA
ENDROOT
BRANCH   3   7
HETATM    7  C   UNL     1     -40.422 -47.934  12.312  1.00  0.00     0.142 A 
HETATM    8  N   UNL     1     -40.366 -46.840  13.107  1.00  0.00    -0.348 N 
HETATM    9  C   UNL     1     -41.026 -45.719  12.719  1.00  0.00     0.113 A 
ATOM     10  HN  UNL     1     -39.839 -46.858  13.980  1.00  0.00     0.167 HD
HETATM   11  C   UNL     1     -41.740 -45.613  11.538  1.00  0.00     0.052 A 
HETATM   12 CL   UNL     1     -42.524 -44.151  11.098  1.00  0.00    -0.083 Cl
HETATM   13  C   UNL     1     -41.790 -46.714  10.706  1.00  0.00     0.071 A 
HETATM   14  C   UNL     1     -41.131 -47.873  11.098  1.00  0.00     0.161 A 
HETATM   15  F   UNL     1     -41.138 -48.901  10.236  1.00  0.00    -0.202 F 
ENDBRANCH   3   7
BRANCH   1  16
HETATM   16  C   UNL     1     -40.784 -51.819  11.893  1.00  0.00     0.197 C 
BRANCH  16  17
HETATM   17  O   UNL     1     -40.569 -53.171  11.499  1.00  0.00    -0.398 OA
HETATM   18  H   UNL     1     -40.762 -53.222  10.546  1.00  0.00     0.209 HD
ENDBRANCH  16  17
ENDBRANCH   1  16
TORSDOF 3
ENDMDL
