MODEL 1
REMARK VINA RESULT:      -6.3      0.000      0.000
REMARK  3 active torsions:
REMARK  status: ('A' for Active; 'I' for Inactive)
REMARK    1  A    between atoms: C_7  and  N_8 
REMARK       I    between atoms: N_8  and  C_9 
REMARK    2  A    between atoms: C_9  and  C_11 
REMARK    3  A    between atoms: C_11  and  N_12 
ROOT
HETATM    1  N   UNL     1     -42.998 -47.292   9.544  1.00  0.00    -0.277 N 
HETATM    2  C   UNL     1     -43.039 -47.697   8.244  1.00  0.00     0.203 A 
HETATM    3  N   UNL     1     -44.289 -47.819   7.859  1.00  0.00    -0.327 N 
ATOM      4  HN  UNL     1     -44.647 -48.104   6.947  1.00  0.00     0.169 HD
HETATM    5  C   UNL     1     -44.993 -47.470   8.983  1.00  0.00     0.204 A 
HETATM    6  C   UNL     1     -46.428 -47.463   9.027  1.00  0.00     0.138 C 
HETATM    7  N   UNL     1     -47.590 -47.454   9.066  1.00  0.00    -0.188 NA
HETATM    8  N   UNL     1     -44.243 -47.126  10.041  1.00  0.00    -0.273 N 
ATOM      9  HN  UNL     1     -44.534 -46.822  10.970  1.00  0.00     0.189 HD
ENDROOT
BRANCH   1  10
HETATM   10  C   UNL     1     -41.835 -46.976  10.344  1.00  0.00     0.252 C 
BRANCH  10  11
HETATM   11  C   UNL     1     -41.326 -48.198  11.071  1.00  0.00     0.237 C 
HETATM   12  N   UNL     1     -39.958 -48.246  11.261  1.00  0.00    -0.355 N 
HETATM   13  H   UNL     1     -39.403 -47.415  11.091  1.00  0.00     0.162 HD
HETATM   14  O   UNL     1     -42.084 -49.091  11.442  1.00  0.00    -0.272 OA
BRANCH  12  15
HETATM   15  C   UNL     1     -39.342 -49.323  12.028  1.00  0.00     0.088 C 
HETATM   16  C   UNL     1     -39.337 -49.035  13.548  1.00  0.00     0.004 C 
HETATM   17  C   UNL     1     -38.622 -47.730  13.922  1.00  0.00     0.012 C 
HETATM   18  C   UNL     1     -38.718 -50.232  14.292  1.00  0.00     0.006 C 
HETATM   19  C   UNL     1     -37.329 -50.602  13.772  1.00  0.00     0.001 C 
HETATM   20  C   UNL     1     -37.318 -50.814  12.260  1.00  0.00     0.002 C 
HETATM   21  C   UNL     1     -37.938 -49.641  11.501  1.00  0.00     0.025 C 
ENDBRANCH  12  15
ENDBRANCH  10  11
ENDBRANCH   1  10
TORSDOF 3
ENDMDL
MODEL 2
REMARK VINA RESULT:      -6.2      4.584      5.851
REMARK  3 active torsions:
REMARK  status: ('A' for Active; 'I' for Inactive)
REMARK    1  A    between atoms: C_7  and  N_8 
REMARK       I    between atoms: N_8  and  C_9 
REMARK    2  A    between atoms: C_9  and  C_11 
REMARK    3  A    between atoms: C_11  and  N_12 
ROOT
HETATM    1  N   UNL     1     -41.410 -48.978  11.184  1.00  0.00    -0.277 N 
HETATM    2  C   UNL     1     -40.392 -48.075  11.146  1.00  0.00     0.203 A 
HETATM    3  N   UNL     1     -40.785 -46.995  10.509  1.00  0.00    -0.327 N 
ATOM      4  HN  UNL     1     -40.256 -46.145  10.315  1.00  0.00     0.169 HD
HETATM    5  C   UNL     1     -42.080 -47.291  10.169  1.00  0.00     0.204 A 
HETATM    6  C   UNL     1     -42.919 -46.380   9.442  1.00  0.00     0.138 C 
HETATM    7  N   UNL     1     -43.601 -45.645   8.854  1.00  0.00    -0.188 NA
HETATM    8  N   UNL     1     -42.514 -48.495  10.574  1.00  0.00    -0.273 N 
ATOM      9  HN  UNL     1     -43.429 -48.928  10.453  1.00  0.00     0.189 HD
ENDROOT
BRANCH   1  10
HETATM   10  C   UNL     1     -41.433 -50.270  11.836  1.00  0.00     0.252 C 
BRANCH  10  11
HETATM   11  C   UNL     1     -42.556 -50.354  12.842  1.00  0.00     0.237 C 
HETATM   12  N   UNL     1     -43.311 -51.510  12.791  1.00  0.00    -0.355 N 
HETATM   13  H   UNL     1     -42.978 -52.297  12.246  1.00  0.00     0.162 HD
HETATM   14  O   UNL     1     -42.787 -49.438  13.629  1.00  0.00    -0.272 OA
BRANCH  12  15
HETATM   15  C   UNL     1     -44.368 -51.762  13.764  1.00  0.00     0.088 C 
HETATM   16  C   UNL     1     -44.395 -53.234  14.237  1.00  0.00     0.004 C 
HETATM   17  C   UNL     1     -44.565 -54.243  13.093  1.00  0.00     0.012 C 
HETATM   18  C   UNL     1     -45.499 -53.411  15.294  1.00  0.00     0.006 C 
HETATM   19  C   UNL     1     -46.869 -52.939  14.806  1.00  0.00     0.001 C 
HETATM   20  C   UNL     1     -46.828 -51.510  14.271  1.00  0.00     0.002 C 
HETATM   21  C   UNL     1     -45.731 -51.309  13.226  1.00  0.00     0.025 C 
ENDBRANCH  12  15
ENDBRANCH  10  11
ENDBRANCH   1  10
TORSDOF 3
ENDMDL
MODEL 3
REMARK VINA RESULT:      -6.0      2.216      2.607
REMARK  3 active torsions:
REMARK  status: ('A' for Active; 'I' for Inactive)
REMARK    1  A    between atoms: C_7  and  N_8 
REMARK       I    between atoms: N_8  and  C_9 
REMARK    2  A    between atoms: C_9  and  C_11 
REMARK    3  A    between atoms: C_11  and  N_12 
ROOT
HETATM    1  N   UNL     1     -42.785 -47.313   9.975  1.00  0.00    -0.277 N 
HETATM    2  C   UNL     1     -42.951 -45.996   9.669  1.00  0.00     0.203 A 
HETATM    3  N   UNL     1     -44.197 -45.780   9.314  1.00  0.00    -0.327 N 
ATOM      4  HN  UNL     1     -44.632 -44.903   9.029  1.00  0.00     0.169 HD
HETATM    5  C   UNL     1     -44.768 -47.022   9.422  1.00  0.00     0.204 A 
HETATM    6  C   UNL     1     -46.151 -47.268   9.123  1.00  0.00     0.138 C 
HETATM    7  N   UNL     1     -47.270 -47.471   8.883  1.00  0.00    -0.188 NA
HETATM    8  N   UNL     1     -43.942 -47.995   9.837  1.00  0.00    -0.273 N 
ATOM      9  HN  UNL     1     -44.136 -48.982  10.003  1.00  0.00     0.189 HD
ENDROOT
BRANCH   1  10
HETATM   10  C   UNL     1     -41.594 -47.971  10.469  1.00  0.00     0.252 C 
BRANCH  10  11
HETATM   11  C   UNL     1     -41.934 -48.984  11.536  1.00  0.00     0.237 C 
HETATM   12  N   UNL     1     -41.229 -50.171  11.471  1.00  0.00    -0.355 N 
HETATM   13  H   UNL     1     -40.418 -50.235  10.866  1.00  0.00     0.162 HD
HETATM   14  O   UNL     1     -42.797 -48.764  12.382  1.00  0.00    -0.272 OA
BRANCH  12  15
HETATM   15  C   UNL     1     -41.391 -51.199  12.493  1.00  0.00     0.088 C 
HETATM   16  C   UNL     1     -40.360 -51.061  13.637  1.00  0.00     0.004 C 
HETATM   17  C   UNL     1     -38.903 -51.107  13.157  1.00  0.00     0.012 C 
HETATM   18  C   UNL     1     -40.624 -52.146  14.696  1.00  0.00     0.006 C 
HETATM   19  C   UNL     1     -40.645 -53.557  14.109  1.00  0.00     0.001 C 
HETATM   20  C   UNL     1     -41.610 -53.675  12.932  1.00  0.00     0.002 C 
HETATM   21  C   UNL     1     -41.372 -52.600  11.872  1.00  0.00     0.025 C 
ENDBRANCH  12  15
ENDBRANCH  10  11
ENDBRANCH   1  10
TORSDOF 3
ENDMDL
MODEL 4
REMARK VINA RESULT:      -5.9      3.958      5.281
REMARK  3 active torsions:
REMARK  status: ('A' for Active; 'I' for Inactive)
REMARK    1  A    between atoms: C_7  and  N_8 
REMARK       I    between atoms: N_8  and  C_9 
REMARK    2  A    between atoms: C_9  and  C_11 
REMARK    3  A    between atoms: C_11  and  N_12 
ROOT
HETATM    1  N   UNL     1     -41.095 -48.416  10.723  1.00  0.00    -0.277 N 
HETATM    2  C   UNL     1     -42.217 -48.025  10.057  1.00  0.00     0.203 A 
HETATM    3  N   UNL     1     -42.197 -46.723   9.883  1.00  0.00    -0.327 N 
ATOM      4  HN  UNL     1     -42.889 -46.134   9.423  1.00  0.00     0.169 HD
HETATM    5  C   UNL     1     -41.015 -46.352  10.473  1.00  0.00     0.204 A 
HETATM    6  C   UNL     1     -40.570 -44.988  10.525  1.00  0.00     0.138 C 
HETATM    7  N   UNL     1     -40.205 -43.885  10.569  1.00  0.00    -0.188 NA
HETATM    8  N   UNL     1     -40.297 -47.360  10.993  1.00  0.00    -0.273 N 
ATOM      9  HN  UNL     1     -39.393 -47.335  11.464  1.00  0.00     0.189 HD
ENDROOT
BRANCH   1  10
HETATM   10  C   UNL     1     -40.684 -49.759  11.068  1.00  0.00     0.252 C 
BRANCH  10  11
HETATM   11  C   UNL     1     -41.569 -50.342  12.143  1.00  0.00     0.237 C 
HETATM   12  N   UNL     1     -42.003 -51.634  11.917  1.00  0.00    -0.355 N 
HETATM   13  H   UNL     1     -41.575 -52.180  11.178  1.00  0.00     0.162 HD
HETATM   14  O   UNL     1     -41.893 -49.692  13.134  1.00  0.00    -0.272 OA
BRANCH  12  15
HETATM   15  C   UNL     1     -42.788 -52.350  12.917  1.00  0.00     0.088 C 
HETATM   16  C   UNL     1     -41.904 -53.186  13.872  1.00  0.00     0.004 C 
HETATM   17  C   UNL     1     -41.021 -54.212  13.150  1.00  0.00     0.012 C 
HETATM   18  C   UNL     1     -42.795 -53.870  14.924  1.00  0.00     0.006 C 
HETATM   19  C   UNL     1     -43.915 -54.704  14.302  1.00  0.00     0.001 C 
HETATM   20  C   UNL     1     -44.744 -53.899  13.303  1.00  0.00     0.002 C 
HETATM   21  C   UNL     1     -43.878 -53.202  12.254  1.00  0.00     0.025 C 
ENDBRANCH  12  15
ENDBRANCH  10  11
ENDBRANCH   1  10
TORSDOF 3
ENDMDL
MODEL 5
REMARK VINA RESULT:      -5.8      4.676      5.738
REMARK  3 active torsions:
REMARK  status: ('A' for Active; 'I' for Inactive)
REMARK    1  A    between atoms: C_7  and  N_8 
REMARK       I    between atoms: N_8  and  C_9 
REMARK    2  A    between atoms: C_9  and  C_11 
REMARK    3  A    between atoms: C_11  and  N_12 
ROOT
HETATM    1  N   UNL     1     -41.187 -49.157  11.824  1.00  0.00    -0.277 N 
HETATM    2  C   UNL     1     -40.341 -48.140  11.501  1.00  0.00     0.203 A 
HETATM    3  N   UNL     1     -40.866 -47.418  10.538  1.00  0.00    -0.327 N 
ATOM      4  HN  UNL     1     -40.479 -46.593  10.080  1.00  0.00     0.169 HD
HETATM    5  C   UNL     1     -42.062 -48.045  10.299  1.00  0.00     0.204 A 
HETATM    6  C   UNL     1     -42.990 -47.592   9.302  1.00  0.00     0.138 C 
HETATM    7  N   UNL     1     -43.744 -47.228   8.495  1.00  0.00    -0.188 NA
HETATM    8  N   UNL     1     -42.310 -49.113  11.075  1.00  0.00    -0.273 N 
ATOM      9  HN  UNL     1     -43.125 -49.725  11.093  1.00  0.00     0.189 HD
ENDROOT
BRANCH   1  10
HETATM   10  C   UNL     1     -41.034 -50.149  12.866  1.00  0.00     0.252 C 
BRANCH  10  11
HETATM   11  C   UNL     1     -42.045 -51.260  12.715  1.00  0.00     0.237 C 
HETATM   12  N   UNL     1     -43.055 -51.275  13.658  1.00  0.00    -0.355 N 
HETATM   13  H   UNL     1     -43.183 -50.470  14.262  1.00  0.00     0.162 HD
HETATM   14  O   UNL     1     -41.950 -52.101  11.824  1.00  0.00    -0.272 OA
BRANCH  12  15
HETATM   15  C   UNL     1     -44.148 -52.237  13.576  1.00  0.00     0.088 C 
HETATM   16  C   UNL     1     -45.499 -51.634  14.027  1.00  0.00     0.004 C 
HETATM   17  C   UNL     1     -45.475 -51.078  15.457  1.00  0.00     0.012 C 
HETATM   18  C   UNL     1     -46.607 -52.689  13.866  1.00  0.00     0.006 C 
HETATM   19  C   UNL     1     -46.292 -53.998  14.591  1.00  0.00     0.001 C 
HETATM   20  C   UNL     1     -44.925 -54.556  14.202  1.00  0.00     0.002 C 
HETATM   21  C   UNL     1     -43.810 -53.521  14.343  1.00  0.00     0.025 C 
ENDBRANCH  12  15
ENDBRANCH  10  11
ENDBRANCH   1  10
TORSDOF 3
ENDMDL
MODEL 6
REMARK VINA RESULT:      -5.7      4.796      6.729
REMARK  3 active torsions:
REMARK  status: ('A' for Active; 'I' for Inactive)
REMARK    1  A    between atoms: C_7  and  N_8 
REMARK       I    between atoms: N_8  and  C_9 
REMARK    2  A    between atoms: C_9  and  C_11 
REMARK    3  A    between atoms: C_11  and  N_12 
ROOT
HETATM    1  N   UNL     1     -40.841 -50.805  11.744  1.00  0.00    -0.277 N 
HETATM    2  C   UNL     1     -39.652 -50.404  12.274  1.00  0.00     0.203 A 
HETATM    3  N   UNL     1     -39.489 -49.117  12.066  1.00  0.00    -0.327 N 
ATOM      4  HN  UNL     1     -38.705 -48.525  12.340  1.00  0.00     0.169 HD
HETATM    5  C   UNL     1     -40.630 -48.766  11.391  1.00  0.00     0.204 A 
HETATM    6  C   UNL     1     -40.887 -47.425  10.948  1.00  0.00     0.138 C 
HETATM    7  N   UNL     1     -41.100 -46.340  10.589  1.00  0.00    -0.188 NA
HETATM    8  N   UNL     1     -41.498 -49.768  11.181  1.00  0.00    -0.273 N 
ATOM      9  HN  UNL     1     -42.408 -49.751  10.720  1.00  0.00     0.189 HD
ENDROOT
BRANCH   1  10
HETATM   10  C   UNL     1     -41.445 -52.119  11.799  1.00  0.00     0.252 C 
BRANCH  10  11
HETATM   11  C   UNL     1     -42.314 -52.270  13.025  1.00  0.00     0.237 C 
HETATM   12  N   UNL     1     -43.640 -51.919  12.857  1.00  0.00    -0.355 N 
HETATM   13  H   UNL     1     -44.000 -51.771  11.920  1.00  0.00     0.162 HD
HETATM   14  O   UNL     1     -41.855 -52.656  14.097  1.00  0.00    -0.272 OA
BRANCH  12  15
HETATM   15  C   UNL     1     -44.609 -52.102  13.931  1.00  0.00     0.088 C 
HETATM   16  C   UNL     1     -45.971 -52.621  13.415  1.00  0.00     0.004 C 
HETATM   17  C   UNL     1     -46.613 -51.710  12.359  1.00  0.00     0.012 C 
HETATM   18  C   UNL     1     -46.921 -52.835  14.606  1.00  0.00     0.006 C 
HETATM   19  C   UNL     1     -47.073 -51.587  15.476  1.00  0.00     0.001 C 
HETATM   20  C   UNL     1     -45.725 -51.032  15.927  1.00  0.00     0.002 C 
HETATM   21  C   UNL     1     -44.761 -50.821  14.759  1.00  0.00     0.025 C 
ENDBRANCH  12  15
ENDBRANCH  10  11
ENDBRANCH   1  10
TORSDOF 3
ENDMDL
MODEL 7
REMARK VINA RESULT:      -5.6      3.305      4.034
REMARK  3 active torsions:
REMARK  status: ('A' for Active; 'I' for Inactive)
REMARK    1  A    between atoms: C_7  and  N_8 
REMARK       I    between atoms: N_8  and  C_9 
REMARK    2  A    between atoms: C_9  and  C_11 
REMARK    3  A    between atoms: C_11  and  N_12 
ROOT
HETATM    1  N   UNL     1     -43.027 -47.861   9.890  1.00  0.00    -0.277 N 
HETATM    2  C   UNL     1     -42.915 -47.512   8.579  1.00  0.00     0.203 A 
HETATM    3  N   UNL     1     -44.109 -47.291   8.078  1.00  0.00    -0.327 N 
ATOM      4  HN  UNL     1     -44.358 -47.015   7.128  1.00  0.00     0.169 HD
HETATM    5  C   UNL     1     -44.939 -47.522   9.145  1.00  0.00     0.204 A 
HETATM    6  C   UNL     1     -46.367 -47.401   9.058  1.00  0.00     0.138 C 
HETATM    7  N   UNL     1     -47.523 -47.302   8.992  1.00  0.00    -0.188 NA
HETATM    8  N   UNL     1     -44.318 -47.864  10.285  1.00  0.00    -0.273 N 
ATOM      9  HN  UNL     1     -44.715 -48.069  11.202  1.00  0.00     0.189 HD
ENDROOT
BRANCH   1  10
HETATM   10  C   UNL     1     -41.965 -48.130  10.835  1.00  0.00     0.252 C 
BRANCH  10  11
HETATM   11  C   UNL     1     -42.516 -48.642  12.144  1.00  0.00     0.237 C 
HETATM   12  N   UNL     1     -42.652 -50.014  12.234  1.00  0.00    -0.355 N 
HETATM   13  H   UNL     1     -42.215 -50.604  11.534  1.00  0.00     0.162 HD
HETATM   14  O   UNL     1     -42.841 -47.877  13.050  1.00  0.00    -0.272 OA
BRANCH  12  15
HETATM   15  C   UNL     1     -43.085 -50.648  13.474  1.00  0.00     0.088 C 
HETATM   16  C   UNL     1     -42.270 -51.921  13.802  1.00  0.00     0.004 C 
HETATM   17  C   UNL     1     -42.318 -52.982  12.694  1.00  0.00     0.012 C 
HETATM   18  C   UNL     1     -42.750 -52.504  15.142  1.00  0.00     0.006 C 
HETATM   19  C   UNL     1     -44.257 -52.764  15.171  1.00  0.00     0.001 C 
HETATM   20  C   UNL     1     -45.061 -51.528  14.777  1.00  0.00     0.002 C 
HETATM   21  C   UNL     1     -44.593 -50.925  13.452  1.00  0.00     0.025 C 
ENDBRANCH  12  15
ENDBRANCH  10  11
ENDBRANCH   1  10
TORSDOF 3
ENDMDL
MODEL 8
REMARK VINA RESULT:      -5.4      3.888      4.854
REMARK  3 active torsions:
REMARK  status: ('A' for Active; 'I' for Inactive)
REMARK    1  A    between atoms: C_7  and  N_8 
REMARK       I    between atoms: N_8  and  C_9 
REMARK    2  A    between atoms: C_9  and  C_11 
REMARK    3  A    between atoms: C_11  and  N_12 
ROOT
HETATM    1  N   UNL     1     -41.056 -48.461  11.340  1.00  0.00    -0.277 N 
HETATM    2  C   UNL     1     -40.577 -47.210  11.097  1.00  0.00     0.203 A 
HETATM    3  N   UNL     1     -41.370 -46.590  10.253  1.00  0.00    -0.327 N 
ATOM      4  HN  UNL     1     -41.283 -45.646   9.876  1.00  0.00     0.169 HD
HETATM    5  C   UNL     1     -42.344 -47.523  10.002  1.00  0.00     0.204 A 
HETATM    6  C   UNL     1     -43.443 -47.277   9.113  1.00  0.00     0.138 C 
HETATM    7  N   UNL     1     -44.336 -47.081   8.394  1.00  0.00    -0.188 NA
HETATM    8  N   UNL     1     -42.200 -48.685  10.658  1.00  0.00    -0.273 N 
ATOM      9  HN  UNL     1     -42.795 -49.514  10.645  1.00  0.00     0.189 HD
ENDROOT
BRANCH   1  10
HETATM   10  C   UNL     1     -40.531 -49.457  12.249  1.00  0.00     0.252 C 
BRANCH  10  11
HETATM   11  C   UNL     1     -41.646 -50.228  12.915  1.00  0.00     0.237 C 
HETATM   12  N   UNL     1     -41.559 -51.604  12.809  1.00  0.00    -0.355 N 
HETATM   13  H   UNL     1     -40.697 -52.023  12.479  1.00  0.00     0.162 HD
HETATM   14  O   UNL     1     -42.572 -49.659  13.488  1.00  0.00    -0.272 OA
BRANCH  12  15
HETATM   15  C   UNL     1     -42.517 -52.472  13.483  1.00  0.00     0.088 C 
HETATM   16  C   UNL     1     -41.833 -53.659  14.201  1.00  0.00     0.004 C 
HETATM   17  C   UNL     1     -40.987 -54.535  13.267  1.00  0.00     0.012 C 
HETATM   18  C   UNL     1     -42.899 -54.499  14.927  1.00  0.00     0.006 C 
HETATM   19  C   UNL     1     -44.025 -54.960  14.000  1.00  0.00     0.001 C 
HETATM   20  C   UNL     1     -44.652 -53.797  13.236  1.00  0.00     0.002 C 
HETATM   21  C   UNL     1     -43.610 -52.942  12.515  1.00  0.00     0.025 C 
ENDBRANCH  12  15
ENDBRANCH  10  11
ENDBRANCH   1  10
TORSDOF 3
ENDMDL
MODEL 9
REMARK VINA RESULT:      -5.3      5.808      8.720
REMARK  3 active torsions:
REMARK  status: ('A' for Active; 'I' for Inactive)
REMARK    1  A    between atoms: C_7  and  N_8 
REMARK       I    between atoms: N_8  and  C_9 
REMARK    2  A    between atoms: C_9  and  C_11 
REMARK    3  A    between atoms: C_11  and  N_12 
ROOT
HETATM    1  N   UNL     1     -40.072 -53.216  13.503  1.00  0.00    -0.277 N 
HETATM    2  C   UNL     1     -39.479 -52.335  14.356  1.00  0.00     0.203 A 
HETATM    3  N   UNL     1     -38.865 -52.994  15.313  1.00  0.00    -0.327 N 
ATOM      4  HN  UNL     1     -38.332 -52.622  16.099  1.00  0.00     0.169 HD
HETATM    5  C   UNL     1     -39.116 -54.305  14.995  1.00  0.00     0.204 A 
HETATM    6  C   UNL     1     -38.630 -55.401  15.785  1.00  0.00     0.138 C 
HETATM    7  N   UNL     1     -38.237 -56.291  16.421  1.00  0.00    -0.188 NA
HETATM    8  N   UNL     1     -39.844 -54.491  13.883  1.00  0.00    -0.273 N 
ATOM      9  HN  UNL     1     -40.144 -55.362  13.444  1.00  0.00     0.189 HD
ENDROOT
BRANCH   1  10
HETATM   10  C   UNL     1     -40.798 -52.927  12.285  1.00  0.00     0.252 C 
BRANCH  10  11
HETATM   11  C   UNL     1     -41.996 -52.050  12.559  1.00  0.00     0.237 C 
HETATM   12  N   UNL     1     -43.017 -52.649  13.272  1.00  0.00    -0.355 N 
HETATM   13  H   UNL     1     -42.849 -53.539  13.729  1.00  0.00     0.162 HD
HETATM   14  O   UNL     1     -42.056 -50.894  12.149  1.00  0.00    -0.272 OA
BRANCH  12  15
HETATM   15  C   UNL     1     -44.193 -51.891  13.685  1.00  0.00     0.088 C 
HETATM   16  C   UNL     1     -44.389 -51.896  15.219  1.00  0.00     0.004 C 
HETATM   17  C   UNL     1     -44.510 -53.305  15.816  1.00  0.00     0.012 C 
HETATM   18  C   UNL     1     -45.615 -51.039  15.580  1.00  0.00     0.006 C 
HETATM   19  C   UNL     1     -46.880 -51.469  14.837  1.00  0.00     0.001 C 
HETATM   20  C   UNL     1     -46.666 -51.535  13.327  1.00  0.00     0.002 C 
HETATM   21  C   UNL     1     -45.446 -52.374  12.946  1.00  0.00     0.025 C 
ENDBRANCH  12  15
ENDBRANCH  10  11
ENDBRANCH   1  10
TORSDOF 3
ENDMDL
