MODEL 1
REMARK VINA RESULT:      -6.6      0.000      0.000
REMARK  6 active torsions:
REMARK  status: ('A' for Active; 'I' for Inactive)
REMARK    1  A    between atoms: O_1  and  C_2 
REMARK    2  A    between atoms: C_2  and  C_3 
REMARK    3  A    between atoms: C_2  and  C_13 
REMARK    4  A    between atoms: C_3  and  O_4 
REMARK    5  A    between atoms: O_4  and  C_5 
REMARK    6  A    between atoms: C_13  and  N_14 
ROOT
HETATM    1  C   UNL     1     -44.666 -52.459  13.367  1.00  0.00     0.069 A 
HETATM    2  C   UNL     1     -44.430 -52.777  14.707  1.00  0.00     0.038 A 
HETATM    3  C   UNL     1     -45.370 -52.452  15.685  1.00  0.00     0.025 A 
HETATM    4  C   UNL     1     -46.544 -51.783  15.331  1.00  0.00     0.044 A 
HETATM    5  C   UNL     1     -47.523 -51.494  16.334  1.00  0.00     0.099 C 
HETATM    6  N   UNL     1     -48.313 -51.279  17.158  1.00  0.00    -0.191 NA
HETATM    7  C   UNL     1     -46.757 -51.412  14.000  1.00  0.00     0.025 A 
HETATM    8  C   UNL     1     -45.814 -51.745  13.020  1.00  0.00     0.038 A 
ENDROOT
BRANCH   1   9
HETATM    9  O   UNL     1     -43.814 -52.793  12.345  1.00  0.00    -0.349 OA
BRANCH   9  10
HETATM   10  C   UNL     1     -42.509 -53.174  12.808  1.00  0.00     0.209 C 
BRANCH  10  11
HETATM   11  C   UNL     1     -41.443 -52.438  11.994  1.00  0.00     0.160 C 
BRANCH  11  12
HETATM   12  O   UNL     1     -40.525 -53.403  11.466  1.00  0.00    -0.392 OA
HETATM   13  H   UNL     1     -40.221 -53.051  10.607  1.00  0.00     0.210 HD
ENDBRANCH  11  12
BRANCH  11  14
HETATM   14  C   UNL     1     -40.698 -51.457  12.904  1.00  0.00     0.164 C 
BRANCH  14  15
HETATM   15  N   UNL     1     -40.439 -50.191  12.250  1.00  0.00    -0.339 N 
HETATM   16  C   UNL     1     -39.214 -49.788  11.791  1.00  0.00     0.184 A 
HETATM   17  N   UNL     1     -39.272 -48.609  11.221  1.00  0.00    -0.350 N 
HETATM   18  C   UNL     1     -40.590 -48.231  11.315  1.00  0.00     0.060 A 
ATOM     19  HN  UNL     1     -38.505 -48.085  10.798  1.00  0.00     0.166 HD
HETATM   20  C   UNL     1     -41.213 -47.066  10.848  1.00  0.00     0.032 A 
HETATM   21  C   UNL     1     -41.345 -49.196  11.981  1.00  0.00     0.062 A 
HETATM   22  C   UNL     1     -42.583 -46.896  11.077  1.00  0.00     0.002 A 
HETATM   23  C   UNL     1     -43.317 -47.866  11.763  1.00  0.00     0.002 A 
HETATM   24  C   UNL     1     -42.716 -49.041  12.229  1.00  0.00     0.032 A 
ENDBRANCH  14  15
ENDBRANCH  11  14
ENDBRANCH  10  11
ENDBRANCH   9  10
ENDBRANCH   1   9
TORSDOF 6
ENDMDL
MODEL 2
REMARK VINA RESULT:      -6.6      2.416      4.695
REMARK  6 active torsions:
REMARK  status: ('A' for Active; 'I' for Inactive)
REMARK    1  A    between atoms: O_1  and  C_2 
REMARK    2  A    between atoms: C_2  and  C_3 
REMARK    3  A    between atoms: C_2  and  C_13 
REMARK    4  A    between atoms: C_3  and  O_4 
REMARK    5  A    between atoms: O_4  and  C_5 
REMARK    6  A    between atoms: C_13  and  N_14 
ROOT
HETATM    1  C   UNL     1     -44.239 -51.240  13.550  1.00  0.00     0.069 A 
HETATM    2  C   UNL     1     -44.035 -50.856  14.878  1.00  0.00     0.038 A 
HETATM    3  C   UNL     1     -45.090 -50.885  15.790  1.00  0.00     0.025 A 
HETATM    4  C   UNL     1     -46.364 -51.277  15.373  1.00  0.00     0.044 A 
HETATM    5  C   UNL     1     -47.430 -51.348  16.326  1.00  0.00     0.099 C 
HETATM    6  N   UNL     1     -48.280 -51.413  17.114  1.00  0.00    -0.191 NA
HETATM    7  C   UNL     1     -46.584 -51.608  14.032  1.00  0.00     0.025 A 
HETATM    8  C   UNL     1     -45.523 -51.582  13.121  1.00  0.00     0.038 A 
ENDROOT
BRANCH   1   9
HETATM    9  O   UNL     1     -43.241 -51.287  12.611  1.00  0.00    -0.349 OA
BRANCH   9  10
HETATM   10  C   UNL     1     -42.075 -50.541  12.997  1.00  0.00     0.209 C 
BRANCH  10  11
HETATM   11  C   UNL     1     -40.847 -51.106  12.279  1.00  0.00     0.160 C 
BRANCH  11  12
HETATM   12  O   UNL     1     -40.768 -50.514  10.977  1.00  0.00    -0.392 OA
HETATM   13  H   UNL     1     -40.898 -51.240  10.337  1.00  0.00     0.210 HD
ENDBRANCH  11  12
BRANCH  11  14
HETATM   14  C   UNL     1     -40.989 -52.625  12.150  1.00  0.00     0.164 C 
BRANCH  14  15
HETATM   15  N   UNL     1     -40.592 -53.318  13.359  1.00  0.00    -0.339 N 
HETATM   16  C   UNL     1     -39.330 -53.299  13.888  1.00  0.00     0.184 A 
HETATM   17  N   UNL     1     -39.259 -53.993  14.999  1.00  0.00    -0.350 N 
HETATM   18  C   UNL     1     -40.528 -54.482  15.197  1.00  0.00     0.060 A 
ATOM     19  HN  UNL     1     -38.439 -54.138  15.588  1.00  0.00     0.166 HD
HETATM   20  C   UNL     1     -41.020 -55.270  16.246  1.00  0.00     0.032 A 
HETATM   21  C   UNL     1     -41.385 -54.095  14.167  1.00  0.00     0.062 A 
HETATM   22  C   UNL     1     -42.363 -55.661  16.223  1.00  0.00     0.002 A 
HETATM   23  C   UNL     1     -43.200 -55.278  15.172  1.00  0.00     0.002 A 
HETATM   24  C   UNL     1     -42.730 -54.483  14.119  1.00  0.00     0.032 A 
ENDBRANCH  14  15
ENDBRANCH  11  14
ENDBRANCH  10  11
ENDBRANCH   9  10
ENDBRANCH   1   9
TORSDOF 6
ENDMDL
MODEL 3
REMARK VINA RESULT:      -6.5      2.899      4.857
REMARK  6 active torsions:
REMARK  status: ('A' for Active; 'I' for Inactive)
REMARK    1  A    between atoms: O_1  and  C_2 
REMARK    2  A    between atoms: C_2  and  C_3 
REMARK    3  A    between atoms: C_2  and  C_13 
REMARK    4  A    between atoms: C_3  and  O_4 
REMARK    5  A    between atoms: O_4  and  C_5 
REMARK    6  A    between atoms: C_13  and  N_14 
ROOT
HETATM    1  C   UNL     1     -44.139 -50.811  13.738  1.00  0.00     0.069 A 
HETATM    2  C   UNL     1     -44.019 -50.490  15.093  1.00  0.00     0.038 A 
HETATM    3  C   UNL     1     -45.109 -50.640  15.951  1.00  0.00     0.025 A 
HETATM    4  C   UNL     1     -46.334 -51.090  15.453  1.00  0.00     0.044 A 
HETATM    5  C   UNL     1     -47.434 -51.285  16.349  1.00  0.00     0.099 C 
HETATM    6  N   UNL     1     -48.311 -51.449  17.091  1.00  0.00    -0.191 NA
HETATM    7  C   UNL     1     -46.472 -51.358  14.087  1.00  0.00     0.025 A 
HETATM    8  C   UNL     1     -45.376 -51.210  13.230  1.00  0.00     0.038 A 
ENDROOT
BRANCH   1   9
HETATM    9  O   UNL     1     -43.099 -50.739  12.846  1.00  0.00    -0.349 OA
BRANCH   9  10
HETATM   10  C   UNL     1     -41.867 -51.250  13.380  1.00  0.00     0.209 C 
BRANCH  10  11
HETATM   11  C   UNL     1     -41.305 -52.316  12.437  1.00  0.00     0.160 C 
BRANCH  11  12
HETATM   12  O   UNL     1     -42.247 -52.533  11.380  1.00  0.00    -0.392 OA
HETATM   13  H   UNL     1     -41.989 -51.931  10.655  1.00  0.00     0.210 HD
ENDBRANCH  11  12
BRANCH  11  14
HETATM   14  C   UNL     1     -41.089 -53.617  13.215  1.00  0.00     0.164 C 
BRANCH  14  15
HETATM   15  N   UNL     1     -41.980 -53.733  14.351  1.00  0.00    -0.339 N 
HETATM   16  C   UNL     1     -41.636 -53.444  15.644  1.00  0.00     0.184 A 
HETATM   17  N   UNL     1     -42.644 -53.614  16.465  1.00  0.00    -0.350 N 
HETATM   18  C   UNL     1     -43.685 -54.032  15.671  1.00  0.00     0.060 A 
ATOM     19  HN  UNL     1     -42.653 -53.469  17.475  1.00  0.00     0.166 HD
HETATM   20  C   UNL     1     -45.004 -54.337  16.029  1.00  0.00     0.032 A 
HETATM   21  C   UNL     1     -43.291 -54.140  14.337  1.00  0.00     0.062 A 
HETATM   22  C   UNL     1     -45.893 -54.760  15.033  1.00  0.00     0.002 A 
HETATM   23  C   UNL     1     -45.473 -54.879  13.707  1.00  0.00     0.002 A 
HETATM   24  C   UNL     1     -44.161 -54.570  13.326  1.00  0.00     0.032 A 
ENDBRANCH  14  15
ENDBRANCH  11  14
ENDBRANCH  10  11
ENDBRANCH   9  10
ENDBRANCH   1   9
TORSDOF 6
ENDMDL
MODEL 4
REMARK VINA RESULT:      -6.5      2.214      6.336
REMARK  6 active torsions:
REMARK  status: ('A' for Active; 'I' for Inactive)
REMARK    1  A    between atoms: O_1  and  C_2 
REMARK    2  A    between atoms: C_2  and  C_3 
REMARK    3  A    between atoms: C_2  and  C_13 
REMARK    4  A    between atoms: C_3  and  O_4 
REMARK    5  A    between atoms: O_4  and  C_5 
REMARK    6  A    between atoms: C_13  and  N_14 
ROOT
HETATM    1  C   UNL     1     -41.722 -49.201  12.248  1.00  0.00     0.069 A 
HETATM    2  C   UNL     1     -43.075 -48.853  12.231  1.00  0.00     0.038 A 
HETATM    3  C   UNL     1     -43.528 -47.826  11.403  1.00  0.00     0.025 A 
HETATM    4  C   UNL     1     -42.625 -47.123  10.603  1.00  0.00     0.044 A 
HETATM    5  C   UNL     1     -43.106 -46.102   9.722  1.00  0.00     0.099 C 
HETATM    6  N   UNL     1     -43.514 -45.286   9.004  1.00  0.00    -0.191 NA
HETATM    7  C   UNL     1     -41.262 -47.431  10.660  1.00  0.00     0.025 A 
HETATM    8  C   UNL     1     -40.812 -48.464  11.488  1.00  0.00     0.038 A 
ENDROOT
BRANCH   1   9
HETATM    9  O   UNL     1     -41.212 -50.231  12.996  1.00  0.00    -0.349 OA
BRANCH   9  10
HETATM   10  C   UNL     1     -40.519 -51.209  12.203  1.00  0.00     0.209 C 
BRANCH  10  11
HETATM   11  C   UNL     1     -41.116 -52.594  12.464  1.00  0.00     0.160 C 
BRANCH  11  12
HETATM   12  O   UNL     1     -40.502 -53.530  11.570  1.00  0.00    -0.392 OA
HETATM   13  H   UNL     1     -39.731 -53.896  12.045  1.00  0.00     0.210 HD
ENDBRANCH  11  12
BRANCH  11  14
HETATM   14  C   UNL     1     -42.626 -52.550  12.212  1.00  0.00     0.164 C 
BRANCH  14  15
HETATM   15  N   UNL     1     -43.386 -53.022  13.351  1.00  0.00    -0.339 N 
HETATM   16  C   UNL     1     -42.989 -54.028  14.190  1.00  0.00     0.184 A 
HETATM   17  N   UNL     1     -43.858 -54.232  15.150  1.00  0.00    -0.350 N 
HETATM   18  C   UNL     1     -44.861 -53.320  14.925  1.00  0.00     0.060 A 
ATOM     19  HN  UNL     1     -43.802 -54.920  15.902  1.00  0.00     0.166 HD
HETATM   20  C   UNL     1     -46.028 -53.086  15.663  1.00  0.00     0.032 A 
HETATM   21  C   UNL     1     -44.604 -52.559  13.784  1.00  0.00     0.062 A 
HETATM   22  C   UNL     1     -46.918 -52.099  15.224  1.00  0.00     0.002 A 
HETATM   23  C   UNL     1     -46.651 -51.362  14.068  1.00  0.00     0.002 A 
HETATM   24  C   UNL     1     -45.485 -51.573  13.321  1.00  0.00     0.032 A 
ENDBRANCH  14  15
ENDBRANCH  11  14
ENDBRANCH  10  11
ENDBRANCH   9  10
ENDBRANCH   1   9
TORSDOF 6
ENDMDL
MODEL 5
REMARK VINA RESULT:      -6.4      2.619      4.275
REMARK  6 active torsions:
REMARK  status: ('A' for Active; 'I' for Inactive)
REMARK    1  A    between atoms: O_1  and  C_2 
REMARK    2  A    between atoms: C_2  and  C_3 
REMARK    3  A    between atoms: C_2  and  C_13 
REMARK    4  A    between atoms: C_3  and  O_4 
REMARK    5  A    between atoms: O_4  and  C_5 
REMARK    6  A    between atoms: C_13  and  N_14 
ROOT
HETATM    1  C   UNL     1     -42.824 -54.404  14.464  1.00  0.00     0.069 A 
HETATM    2  C   UNL     1     -44.177 -54.705  14.289  1.00  0.00     0.038 A 
HETATM    3  C   UNL     1     -45.067 -54.597  15.358  1.00  0.00     0.025 A 
HETATM    4  C   UNL     1     -44.603 -54.209  16.616  1.00  0.00     0.044 A 
HETATM    5  C   UNL     1     -45.531 -54.056  17.696  1.00  0.00     0.099 C 
HETATM    6  N   UNL     1     -46.298 -53.925  18.557  1.00  0.00    -0.191 NA
HETATM    7  C   UNL     1     -43.240 -53.962  16.809  1.00  0.00     0.025 A 
HETATM    8  C   UNL     1     -42.351 -54.068  15.733  1.00  0.00     0.038 A 
ENDROOT
BRANCH   1   9
HETATM    9  O   UNL     1     -41.901 -54.438  13.449  1.00  0.00    -0.349 OA
BRANCH   9  10
HETATM   10  C   UNL     1     -41.253 -53.173  13.241  1.00  0.00     0.209 C 
BRANCH  10  11
HETATM   11  C   UNL     1     -42.008 -52.383  12.169  1.00  0.00     0.160 C 
BRANCH  11  12
HETATM   12  O   UNL     1     -41.255 -52.434  10.951  1.00  0.00    -0.392 OA
HETATM   13  H   UNL     1     -40.888 -51.538  10.819  1.00  0.00     0.210 HD
ENDBRANCH  11  12
BRANCH  11  14
HETATM   14  C   UNL     1     -42.161 -50.929  12.625  1.00  0.00     0.164 C 
BRANCH  14  15
HETATM   15  N   UNL     1     -42.926 -50.815  13.849  1.00  0.00    -0.339 N 
HETATM   16  C   UNL     1     -42.410 -50.426  15.056  1.00  0.00     0.184 A 
HETATM   17  N   UNL     1     -43.332 -50.386  15.988  1.00  0.00    -0.350 N 
HETATM   18  C   UNL     1     -44.493 -50.766  15.359  1.00  0.00     0.060 A 
ATOM     19  HN  UNL     1     -43.212 -50.130  16.968  1.00  0.00     0.166 HD
HETATM   20  C   UNL     1     -45.788 -50.875  15.881  1.00  0.00     0.032 A 
HETATM   21  C   UNL     1     -44.265 -51.067  14.016  1.00  0.00     0.062 A 
HETATM   22  C   UNL     1     -46.822 -51.301  15.039  1.00  0.00     0.002 A 
HETATM   23  C   UNL     1     -46.568 -51.615  13.701  1.00  0.00     0.002 A 
HETATM   24  C   UNL     1     -45.282 -51.502  13.157  1.00  0.00     0.032 A 
ENDBRANCH  14  15
ENDBRANCH  11  14
ENDBRANCH  10  11
ENDBRANCH   9  10
ENDBRANCH   1   9
TORSDOF 6
ENDMDL
MODEL 6
REMARK VINA RESULT:      -6.4      2.588      4.219
REMARK  6 active torsions:
REMARK  status: ('A' for Active; 'I' for Inactive)
REMARK    1  A    between atoms: O_1  and  C_2 
REMARK    2  A    between atoms: C_2  and  C_3 
REMARK    3  A    between atoms: C_2  and  C_13 
REMARK    4  A    between atoms: C_3  and  O_4 
REMARK    5  A    between atoms: O_4  and  C_5 
REMARK    6  A    between atoms: C_13  and  N_14 
ROOT
HETATM    1  C   UNL     1     -40.504 -53.914  13.777  1.00  0.00     0.069 A 
HETATM    2  C   UNL     1     -41.471 -53.767  12.778  1.00  0.00     0.038 A 
HETATM    3  C   UNL     1     -42.815 -54.021  13.056  1.00  0.00     0.025 A 
HETATM    4  C   UNL     1     -43.197 -54.447  14.330  1.00  0.00     0.044 A 
HETATM    5  C   UNL     1     -44.582 -54.661  14.619  1.00  0.00     0.099 C 
HETATM    6  N   UNL     1     -45.712 -54.817  14.840  1.00  0.00    -0.191 NA
HETATM    7  C   UNL     1     -42.225 -54.649  15.315  1.00  0.00     0.025 A 
HETATM    8  C   UNL     1     -40.879 -54.389  15.034  1.00  0.00     0.038 A 
ENDROOT
BRANCH   1   9
HETATM    9  O   UNL     1     -39.174 -53.633  13.593  1.00  0.00    -0.349 OA
BRANCH   9  10
HETATM   10  C   UNL     1     -38.756 -52.437  14.269  1.00  0.00     0.209 C 
BRANCH  10  11
HETATM   11  C   UNL     1     -38.580 -51.309  13.249  1.00  0.00     0.160 C 
BRANCH  11  12
HETATM   12  O   UNL     1     -37.188 -50.983  13.165  1.00  0.00    -0.392 OA
HETATM   13  H   UNL     1     -36.892 -51.271  12.280  1.00  0.00     0.210 HD
ENDBRANCH  11  12
BRANCH  11  14
HETATM   14  C   UNL     1     -39.374 -50.082  13.709  1.00  0.00     0.164 C 
BRANCH  14  15
HETATM   15  N   UNL     1     -40.739 -50.099  13.227  1.00  0.00    -0.339 N 
HETATM   16  C   UNL     1     -41.115 -49.816  11.941  1.00  0.00     0.184 A 
HETATM   17  N   UNL     1     -42.410 -49.930  11.777  1.00  0.00    -0.350 N 
HETATM   18  C   UNL     1     -42.895 -50.302  13.008  1.00  0.00     0.060 A 
ATOM     19  HN  UNL     1     -42.944 -49.776  10.921  1.00  0.00     0.166 HD
HETATM   20  C   UNL     1     -44.213 -50.582  13.393  1.00  0.00     0.032 A 
HETATM   21  C   UNL     1     -41.869 -50.392  13.949  1.00  0.00     0.062 A 
HETATM   22  C   UNL     1     -44.467 -50.932  14.725  1.00  0.00     0.002 A 
HETATM   23  C   UNL     1     -43.427 -50.998  15.655  1.00  0.00     0.002 A 
HETATM   24  C   UNL     1     -42.102 -50.732  15.288  1.00  0.00     0.032 A 
ENDBRANCH  14  15
ENDBRANCH  11  14
ENDBRANCH  10  11
ENDBRANCH   9  10
ENDBRANCH   1   9
TORSDOF 6
ENDMDL
MODEL 7
REMARK VINA RESULT:      -6.4      3.220      4.326
REMARK  6 active torsions:
REMARK  status: ('A' for Active; 'I' for Inactive)
REMARK    1  A    between atoms: O_1  and  C_2 
REMARK    2  A    between atoms: C_2  and  C_3 
REMARK    3  A    between atoms: C_2  and  C_13 
REMARK    4  A    between atoms: C_3  and  O_4 
REMARK    5  A    between atoms: O_4  and  C_5 
REMARK    6  A    between atoms: C_13  and  N_14 
ROOT
HETATM    1  C   UNL     1     -45.621 -52.968  13.164  1.00  0.00     0.069 A 
HETATM    2  C   UNL     1     -46.185 -51.690  13.204  1.00  0.00     0.038 A 
HETATM    3  C   UNL     1     -46.885 -51.264  14.333  1.00  0.00     0.025 A 
HETATM    4  C   UNL     1     -47.046 -52.123  15.421  1.00  0.00     0.044 A 
HETATM    5  C   UNL     1     -47.727 -51.661  16.593  1.00  0.00     0.099 C 
HETATM    6  N   UNL     1     -48.270 -51.266  17.540  1.00  0.00    -0.191 NA
HETATM    7  C   UNL     1     -46.533 -53.423  15.362  1.00  0.00     0.025 A 
HETATM    8  C   UNL     1     -45.827 -53.846  14.230  1.00  0.00     0.038 A 
ENDROOT
BRANCH   1   9
HETATM    9  O   UNL     1     -44.877 -53.438  12.112  1.00  0.00    -0.349 OA
BRANCH   9  10
HETATM   10  C   UNL     1     -43.544 -53.814  12.494  1.00  0.00     0.209 C 
BRANCH  10  11
HETATM   11  C   UNL     1     -42.654 -52.569  12.536  1.00  0.00     0.160 C 
BRANCH  11  12
HETATM   12  O   UNL     1     -41.935 -52.481  11.300  1.00  0.00    -0.392 OA
HETATM   13  H   UNL     1     -42.609 -52.419  10.595  1.00  0.00     0.210 HD
ENDBRANCH  11  12
BRANCH  11  14
HETATM   14  C   UNL     1     -41.669 -52.690  13.702  1.00  0.00     0.164 C 
BRANCH  14  15
HETATM   15  N   UNL     1     -42.340 -52.752  14.984  1.00  0.00    -0.339 N 
HETATM   16  C   UNL     1     -42.382 -53.858  15.789  1.00  0.00     0.184 A 
HETATM   17  N   UNL     1     -43.036 -53.625  16.901  1.00  0.00    -0.350 N 
HETATM   18  C   UNL     1     -43.435 -52.313  16.813  1.00  0.00     0.060 A 
ATOM     19  HN  UNL     1     -43.211 -54.277  17.667  1.00  0.00     0.166 HD
HETATM   20  C   UNL     1     -44.150 -51.541  17.738  1.00  0.00     0.032 A 
HETATM   21  C   UNL     1     -43.033 -51.743  15.606  1.00  0.00     0.062 A 
HETATM   22  C   UNL     1     -44.456 -50.214  17.416  1.00  0.00     0.002 A 
HETATM   23  C   UNL     1     -44.059 -49.668  16.193  1.00  0.00     0.002 A 
HETATM   24  C   UNL     1     -43.336 -50.420  15.259  1.00  0.00     0.032 A 
ENDBRANCH  14  15
ENDBRANCH  11  14
ENDBRANCH  10  11
ENDBRANCH   9  10
ENDBRANCH   1   9
TORSDOF 6
ENDMDL
MODEL 8
REMARK VINA RESULT:      -6.4      1.661      2.108
REMARK  6 active torsions:
REMARK  status: ('A' for Active; 'I' for Inactive)
REMARK    1  A    between atoms: O_1  and  C_2 
REMARK    2  A    between atoms: C_2  and  C_3 
REMARK    3  A    between atoms: C_2  and  C_13 
REMARK    4  A    between atoms: C_3  and  O_4 
REMARK    5  A    between atoms: O_4  and  C_5 
REMARK    6  A    between atoms: C_13  and  N_14 
ROOT
HETATM    1  C   UNL     1     -44.260 -51.156  13.603  1.00  0.00     0.069 A 
HETATM    2  C   UNL     1     -44.063 -50.807  14.941  1.00  0.00     0.038 A 
HETATM    3  C   UNL     1     -45.122 -50.866  15.848  1.00  0.00     0.025 A 
HETATM    4  C   UNL     1     -46.392 -51.252  15.415  1.00  0.00     0.044 A 
HETATM    5  C   UNL     1     -47.462 -51.354  16.362  1.00  0.00     0.099 C 
HETATM    6  N   UNL     1     -48.314 -51.444  17.144  1.00  0.00    -0.191 NA
HETATM    7  C   UNL     1     -46.606 -51.546  14.065  1.00  0.00     0.025 A 
HETATM    8  C   UNL     1     -45.540 -51.490  13.159  1.00  0.00     0.038 A 
ENDROOT
BRANCH   1   9
HETATM    9  O   UNL     1     -43.258 -51.172  12.667  1.00  0.00    -0.349 OA
BRANCH   9  10
HETATM   10  C   UNL     1     -42.322 -52.243  12.867  1.00  0.00     0.209 C 
BRANCH  10  11
HETATM   11  C   UNL     1     -41.139 -52.074  11.911  1.00  0.00     0.160 C 
BRANCH  11  12
HETATM   12  O   UNL     1     -40.623 -53.372  11.591  1.00  0.00    -0.392 OA
HETATM   13  H   UNL     1     -41.039 -53.630  10.745  1.00  0.00     0.210 HD
ENDBRANCH  11  12
BRANCH  11  14
HETATM   14  C   UNL     1     -40.053 -51.237  12.593  1.00  0.00     0.164 C 
BRANCH  14  15
HETATM   15  N   UNL     1     -40.105 -49.844  12.200  1.00  0.00    -0.339 N 
HETATM   16  C   UNL     1     -40.646 -49.385  11.030  1.00  0.00     0.184 A 
HETATM   17  N   UNL     1     -40.580 -48.079  10.944  1.00  0.00    -0.350 N 
HETATM   18  C   UNL     1     -39.971 -47.674  12.107  1.00  0.00     0.060 A 
ATOM     19  HN  UNL     1     -40.910 -47.489  10.179  1.00  0.00     0.166 HD
HETATM   20  C   UNL     1     -39.671 -46.377  12.545  1.00  0.00     0.032 A 
HETATM   21  C   UNL     1     -39.636 -48.766  12.908  1.00  0.00     0.062 A 
HETATM   22  C   UNL     1     -39.025 -46.214  13.776  1.00  0.00     0.002 A 
HETATM   23  C   UNL     1     -38.683 -47.322  14.554  1.00  0.00     0.002 A 
HETATM   24  C   UNL     1     -38.983 -48.625  14.139  1.00  0.00     0.032 A 
ENDBRANCH  14  15
ENDBRANCH  11  14
ENDBRANCH  10  11
ENDBRANCH   9  10
ENDBRANCH   1   9
TORSDOF 6
ENDMDL
MODEL 9
REMARK VINA RESULT:      -6.3      2.489      4.653
REMARK  6 active torsions:
REMARK  status: ('A' for Active; 'I' for Inactive)
REMARK    1  A    between atoms: O_1  and  C_2 
REMARK    2  A    between atoms: C_2  and  C_3 
REMARK    3  A    between atoms: C_2  and  C_13 
REMARK    4  A    between atoms: C_3  and  O_4 
REMARK    5  A    between atoms: O_4  and  C_5 
REMARK    6  A    between atoms: C_13  and  N_14 
ROOT
HETATM    1  C   UNL     1     -42.625 -50.303  14.506  1.00  0.00     0.069 A 
HETATM    2  C   UNL     1     -42.306 -50.852  15.751  1.00  0.00     0.038 A 
HETATM    3  C   UNL     1     -43.281 -51.513  16.499  1.00  0.00     0.025 A 
HETATM    4  C   UNL     1     -44.587 -51.609  16.016  1.00  0.00     0.044 A 
HETATM    5  C   UNL     1     -45.569 -52.329  16.769  1.00  0.00     0.099 C 
HETATM    6  N   UNL     1     -46.350 -52.927  17.386  1.00  0.00    -0.191 NA
HETATM    7  C   UNL     1     -44.923 -51.010  14.797  1.00  0.00     0.025 A 
HETATM    8  C   UNL     1     -43.942 -50.352  14.048  1.00  0.00     0.038 A 
ENDROOT
BRANCH   1   9
HETATM    9  O   UNL     1     -41.709 -49.684  13.693  1.00  0.00    -0.349 OA
BRANCH   9  10
HETATM   10  C   UNL     1     -41.920 -49.965  12.300  1.00  0.00     0.209 C 
BRANCH  10  11
HETATM   11  C   UNL     1     -40.775 -50.836  11.776  1.00  0.00     0.160 C 
BRANCH  11  12
HETATM   12  O   UNL     1     -40.257 -50.237  10.582  1.00  0.00    -0.392 OA
HETATM   13  H   UNL     1     -40.557 -50.800   9.841  1.00  0.00     0.210 HD
ENDBRANCH  11  12
BRANCH  11  14
HETATM   14  C   UNL     1     -41.306 -52.238  11.465  1.00  0.00     0.164 C 
BRANCH  14  15
HETATM   15  N   UNL     1     -41.433 -53.053  12.656  1.00  0.00    -0.339 N 
HETATM   16  C   UNL     1     -40.413 -53.322  13.528  1.00  0.00     0.184 A 
HETATM   17  N   UNL     1     -40.814 -54.065  14.531  1.00  0.00    -0.350 N 
HETATM   18  C   UNL     1     -42.150 -54.289  14.298  1.00  0.00     0.060 A 
ATOM     19  HN  UNL     1     -40.256 -54.404  15.315  1.00  0.00     0.166 HD
HETATM   20  C   UNL     1     -43.076 -55.004  15.069  1.00  0.00     0.032 A 
HETATM   21  C   UNL     1     -42.564 -53.685  13.111  1.00  0.00     0.062 A 
HETATM   22  C   UNL     1     -44.396 -55.107  14.614  1.00  0.00     0.002 A 
HETATM   23  C   UNL     1     -44.785 -54.511  13.413  1.00  0.00     0.002 A 
HETATM   24  C   UNL     1     -43.877 -53.782  12.633  1.00  0.00     0.032 A 
ENDBRANCH  14  15
ENDBRANCH  11  14
ENDBRANCH  10  11
ENDBRANCH   9  10
ENDBRANCH   1   9
TORSDOF 6
ENDMDL
