MODEL 1
REMARK VINA RESULT:      -6.0      0.000      0.000
REMARK  4 active torsions:
REMARK  status: ('A' for Active; 'I' for Inactive)
REMARK    1  A    between atoms: N_4  and  C_5 
REMARK    2  A    between atoms: C_5  and  C_6 
REMARK    3  A    between atoms: C_6  and  N_7 
REMARK       I    between atoms: N_7  and  C_8 
REMARK       I    between atoms: C_8  and  N_10 
REMARK    4  A    between atoms: N_10  and  C_11 
ROOT
HETATM    1  N   UNL     1     -40.614 -51.140  11.375  1.00  0.00    -0.341 N 
HETATM    2  C   UNL     1     -40.986 -49.821  11.602  1.00  0.00     0.322 C 
HETATM    3  O   UNL     1     -41.015 -49.343  12.728  1.00  0.00    -0.247 OA
HETATM    4  N   UNL     1     -41.228 -49.164  10.424  1.00  0.00    -0.289 N 
HETATM    5  H   UNL     1     -41.122 -51.604  10.637  1.00  0.00     0.164 HD
HETATM    6  H   UNL     1     -40.925 -49.575   9.560  1.00  0.00     0.172 HD
ENDROOT
BRANCH   1   7
HETATM    7  C   UNL     1     -40.264 -51.949  12.532  1.00  0.00     0.154 C 
BRANCH   7   8
HETATM    8  C   UNL     1     -41.121 -53.220  12.666  1.00  0.00     0.292 C 
BRANCH   8   9
HETATM    9  N   UNL     1     -42.529 -52.943  13.011  1.00  0.00     0.095 N 
HETATM   10  C   UNL     1     -42.654 -52.182  14.276  1.00  0.00     0.303 C 
HETATM   11  C   UNL     1     -44.125 -51.921  14.663  1.00  0.00     0.146 C 
HETATM   12  C   UNL     1     -44.807 -50.920  13.731  1.00  0.00     0.041 C 
HETATM   13  O   UNL     1     -44.860 -53.151  14.751  1.00  0.00    -0.378 OA
HETATM   14  C   UNL     1     -44.762 -53.940  13.555  1.00  0.00     0.146 C 
HETATM   15  C   UNL     1     -43.288 -54.205  13.168  1.00  0.00     0.303 C 
HETATM   16  C   UNL     1     -45.500 -55.246  13.822  1.00  0.00     0.041 C 
ENDBRANCH   8   9
ENDBRANCH   7   8
ENDBRANCH   1   7
BRANCH   4  17
HETATM   17  C   UNL     1     -41.503 -47.822  10.414  1.00  0.00     0.152 A 
HETATM   18  N   UNL     1     -40.688 -46.809  10.543  1.00  0.00    -0.346 N 
HETATM   19  C   UNL     1     -41.387 -45.632  10.383  1.00  0.00     0.097 A 
ATOM     20  HN  UNL     1     -39.688 -46.878  10.732  1.00  0.00     0.167 HD
HETATM   21  C   UNL     1     -42.739 -45.774  10.158  1.00  0.00     0.070 A 
HETATM   22  S   UNL     1     -43.153 -47.442  10.175  1.00  0.00    -0.064 SA
ENDBRANCH   4  17
TORSDOF 4
ENDMDL
MODEL 2
REMARK VINA RESULT:      -5.8      1.623      1.981
REMARK  4 active torsions:
REMARK  status: ('A' for Active; 'I' for Inactive)
REMARK    1  A    between atoms: N_4  and  C_5 
REMARK    2  A    between atoms: C_5  and  C_6 
REMARK    3  A    between atoms: C_6  and  N_7 
REMARK       I    between atoms: N_7  and  C_8 
REMARK       I    between atoms: C_8  and  N_10 
REMARK    4  A    between atoms: N_10  and  C_11 
ROOT
HETATM    1  N   UNL     1     -40.117 -51.060  11.786  1.00  0.00    -0.341 N 
HETATM    2  C   UNL     1     -41.088 -50.072  11.683  1.00  0.00     0.322 C 
HETATM    3  O   UNL     1     -41.954 -49.927  12.536  1.00  0.00    -0.247 OA
HETATM    4  N   UNL     1     -40.886 -49.291  10.576  1.00  0.00    -0.289 N 
HETATM    5  H   UNL     1     -39.850 -51.488  10.911  1.00  0.00     0.164 HD
HETATM    6  H   UNL     1     -40.006 -49.338  10.095  1.00  0.00     0.172 HD
ENDROOT
BRANCH   1   7
HETATM    7  C   UNL     1     -40.164 -51.934  12.948  1.00  0.00     0.154 C 
BRANCH   7   8
HETATM    8  C   UNL     1     -40.936 -53.240  12.696  1.00  0.00     0.292 C 
BRANCH   8   9
HETATM    9  N   UNL     1     -41.893 -53.572  13.770  1.00  0.00     0.095 N 
HETATM   10  C   UNL     1     -41.357 -54.594  14.699  1.00  0.00     0.303 C 
HETATM   11  C   UNL     1     -42.366 -54.972  15.803  1.00  0.00     0.146 C 
HETATM   12  C   UNL     1     -42.584 -53.844  16.811  1.00  0.00     0.041 C 
HETATM   13  O   UNL     1     -43.605 -55.423  15.235  1.00  0.00    -0.378 OA
HETATM   14  C   UNL     1     -44.166 -54.477  14.311  1.00  0.00     0.146 C 
HETATM   15  C   UNL     1     -43.156 -54.098  13.202  1.00  0.00     0.303 C 
HETATM   16  C   UNL     1     -45.413 -55.120  13.718  1.00  0.00     0.041 C 
ENDBRANCH   8   9
ENDBRANCH   7   8
ENDBRANCH   1   7
BRANCH   4  17
HETATM   17  C   UNL     1     -41.666 -48.190  10.345  1.00  0.00     0.152 A 
HETATM   18  N   UNL     1     -42.864 -48.117   9.826  1.00  0.00    -0.346 N 
HETATM   19  C   UNL     1     -43.303 -46.811   9.862  1.00  0.00     0.097 A 
ATOM     20  HN  UNL     1     -43.392 -48.905   9.452  1.00  0.00     0.167 HD
HETATM   21  C   UNL     1     -42.412 -45.902  10.392  1.00  0.00     0.070 A 
HETATM   22  S   UNL     1     -40.961 -46.711  10.834  1.00  0.00    -0.064 SA
ENDBRANCH   4  17
TORSDOF 4
ENDMDL
MODEL 3
REMARK VINA RESULT:      -5.7      0.735      1.798
REMARK  4 active torsions:
REMARK  status: ('A' for Active; 'I' for Inactive)
REMARK    1  A    between atoms: N_4  and  C_5 
REMARK    2  A    between atoms: C_5  and  C_6 
REMARK    3  A    between atoms: C_6  and  N_7 
REMARK       I    between atoms: N_7  and  C_8 
REMARK       I    between atoms: C_8  and  N_10 
REMARK    4  A    between atoms: N_10  and  C_11 
ROOT
HETATM    1  N   UNL     1     -40.820 -51.333  11.494  1.00  0.00    -0.341 N 
HETATM    2  C   UNL     1     -41.102 -49.988  11.694  1.00  0.00     0.322 C 
HETATM    3  O   UNL     1     -41.148 -49.497  12.814  1.00  0.00    -0.247 OA
HETATM    4  N   UNL     1     -41.241 -49.327  10.502  1.00  0.00    -0.289 N 
HETATM    5  H   UNL     1     -41.327 -51.766  10.736  1.00  0.00     0.164 HD
HETATM    6  H   UNL     1     -40.931 -49.769   9.655  1.00  0.00     0.172 HD
ENDROOT
BRANCH   1   7
HETATM    7  C   UNL     1     -40.585 -52.154  12.671  1.00  0.00     0.154 C 
BRANCH   7   8
HETATM    8  C   UNL     1     -41.243 -53.542  12.585  1.00  0.00     0.292 C 
BRANCH   8   9
HETATM    9  N   UNL     1     -42.512 -53.635  13.335  1.00  0.00     0.095 N 
HETATM   10  C   UNL     1     -43.694 -53.500  12.452  1.00  0.00     0.303 C 
HETATM   11  C   UNL     1     -45.022 -53.560  13.233  1.00  0.00     0.146 C 
HETATM   12  C   UNL     1     -45.314 -54.953  13.789  1.00  0.00     0.041 C 
HETATM   13  O   UNL     1     -45.059 -52.560  14.262  1.00  0.00    -0.378 OA
HETATM   14  C   UNL     1     -43.926 -52.631  15.143  1.00  0.00     0.146 C 
HETATM   15  C   UNL     1     -42.593 -52.569  14.361  1.00  0.00     0.303 C 
HETATM   16  C   UNL     1     -44.044 -51.464  16.115  1.00  0.00     0.041 C 
ENDBRANCH   8   9
ENDBRANCH   7   8
ENDBRANCH   1   7
BRANCH   4  17
HETATM   17  C   UNL     1     -41.414 -47.969  10.470  1.00  0.00     0.152 A 
HETATM   18  N   UNL     1     -40.529 -47.018  10.611  1.00  0.00    -0.346 N 
HETATM   19  C   UNL     1     -41.134 -45.794  10.419  1.00  0.00     0.097 A 
ATOM     20  HN  UNL     1     -39.543 -47.159  10.829  1.00  0.00     0.167 HD
HETATM   21  C   UNL     1     -42.486 -45.838  10.156  1.00  0.00     0.070 A 
HETATM   22  S   UNL     1     -43.024 -47.470  10.178  1.00  0.00    -0.064 SA
ENDBRANCH   4  17
TORSDOF 4
ENDMDL
MODEL 4
REMARK VINA RESULT:      -5.6      2.073      2.882
REMARK  4 active torsions:
REMARK  status: ('A' for Active; 'I' for Inactive)
REMARK    1  A    between atoms: N_4  and  C_5 
REMARK    2  A    between atoms: C_5  and  C_6 
REMARK    3  A    between atoms: C_6  and  N_7 
REMARK       I    between atoms: N_7  and  C_8 
REMARK       I    between atoms: C_8  and  N_10 
REMARK    4  A    between atoms: N_10  and  C_11 
ROOT
HETATM    1  N   UNL     1     -40.708 -49.027  10.684  1.00  0.00    -0.341 N 
HETATM    2  C   UNL     1     -42.022 -48.578  10.720  1.00  0.00     0.322 C 
HETATM    3  O   UNL     1     -42.658 -48.528  11.765  1.00  0.00    -0.247 OA
HETATM    4  N   UNL     1     -42.437 -48.158   9.484  1.00  0.00    -0.289 N 
HETATM    5  H   UNL     1     -40.463 -49.562   9.863  1.00  0.00     0.164 HD
HETATM    6  H   UNL     1     -41.756 -48.004   8.762  1.00  0.00     0.172 HD
ENDROOT
BRANCH   1   7
HETATM    7  C   UNL     1     -40.105 -49.450  11.938  1.00  0.00     0.154 C 
BRANCH   7   8
HETATM    8  C   UNL     1     -39.891 -50.971  12.028  1.00  0.00     0.292 C 
BRANCH   8   9
HETATM    9  N   UNL     1     -40.821 -51.638  12.961  1.00  0.00     0.095 N 
HETATM   10  C   UNL     1     -40.193 -52.794  13.643  1.00  0.00     0.303 C 
HETATM   11  C   UNL     1     -41.169 -53.519  14.592  1.00  0.00     0.146 C 
HETATM   12  C   UNL     1     -41.513 -52.687  15.827  1.00  0.00     0.041 C 
HETATM   13  O   UNL     1     -42.349 -53.941  13.892  1.00  0.00    -0.378 OA
HETATM   14  C   UNL     1     -42.994 -52.863  13.195  1.00  0.00     0.146 C 
HETATM   15  C   UNL     1     -42.016 -52.137  12.242  1.00  0.00     0.303 C 
HETATM   16  C   UNL     1     -44.161 -53.467  12.425  1.00  0.00     0.041 C 
ENDBRANCH   8   9
ENDBRANCH   7   8
ENDBRANCH   1   7
BRANCH   4  17
HETATM   17  C   UNL     1     -43.666 -47.576   9.319  1.00  0.00     0.152 A 
HETATM   18  N   UNL     1     -44.854 -48.076   9.530  1.00  0.00    -0.346 N 
HETATM   19  C   UNL     1     -45.808 -47.103   9.314  1.00  0.00     0.097 A 
ATOM     20  HN  UNL     1     -45.047 -49.037   9.810  1.00  0.00     0.167 HD
HETATM   21  C   UNL     1     -45.321 -45.876   8.917  1.00  0.00     0.070 A 
HETATM   22  S   UNL     1     -43.609 -45.954   8.781  1.00  0.00    -0.064 SA
ENDBRANCH   4  17
TORSDOF 4
ENDMDL
MODEL 5
REMARK VINA RESULT:      -5.6      1.596      2.370
REMARK  4 active torsions:
REMARK  status: ('A' for Active; 'I' for Inactive)
REMARK    1  A    between atoms: N_4  and  C_5 
REMARK    2  A    between atoms: C_5  and  C_6 
REMARK    3  A    between atoms: C_6  and  N_7 
REMARK       I    between atoms: N_7  and  C_8 
REMARK       I    between atoms: C_8  and  N_10 
REMARK    4  A    between atoms: N_10  and  C_11 
ROOT
HETATM    1  N   UNL     1     -41.870 -49.765  11.461  1.00  0.00    -0.341 N 
HETATM    2  C   UNL     1     -41.096 -48.619  11.587  1.00  0.00     0.322 C 
HETATM    3  O   UNL     1     -40.044 -48.615  12.213  1.00  0.00    -0.247 OA
HETATM    4  N   UNL     1     -41.634 -47.576  10.879  1.00  0.00    -0.289 N 
HETATM    5  H   UNL     1     -42.868 -49.610  11.476  1.00  0.00     0.164 HD
HETATM    6  H   UNL     1     -42.351 -47.760  10.200  1.00  0.00     0.172 HD
ENDROOT
BRANCH   1   7
HETATM    7  C   UNL     1     -41.392 -50.976  12.109  1.00  0.00     0.154 C 
BRANCH   7   8
HETATM    8  C   UNL     1     -41.911 -51.140  13.548  1.00  0.00     0.292 C 
BRANCH   8   9
HETATM    9  N   UNL     1     -43.078 -52.039  13.650  1.00  0.00     0.095 N 
HETATM   10  C   UNL     1     -42.937 -53.236  12.788  1.00  0.00     0.303 C 
HETATM   11  C   UNL     1     -44.169 -54.162  12.861  1.00  0.00     0.146 C 
HETATM   12  C   UNL     1     -44.293 -54.869  14.210  1.00  0.00     0.041 C 
HETATM   13  O   UNL     1     -45.368 -53.449  12.523  1.00  0.00    -0.378 OA
HETATM   14  C   UNL     1     -45.551 -52.267  13.317  1.00  0.00     0.146 C 
HETATM   15  C   UNL     1     -44.317 -51.337  13.243  1.00  0.00     0.303 C 
HETATM   16  C   UNL     1     -46.796 -51.565  12.791  1.00  0.00     0.041 C 
ENDBRANCH   8   9
ENDBRANCH   7   8
ENDBRANCH   1   7
BRANCH   4  17
HETATM   17  C   UNL     1     -40.972 -46.382  10.779  1.00  0.00     0.152 A 
HETATM   18  N   UNL     1     -39.809 -46.123  10.242  1.00  0.00    -0.346 N 
HETATM   19  C   UNL     1     -39.572 -44.765  10.288  1.00  0.00     0.097 A 
ATOM     20  HN  UNL     1     -39.173 -46.817   9.850  1.00  0.00     0.167 HD
HETATM   21  C   UNL     1     -40.561 -44.013  10.886  1.00  0.00     0.070 A 
HETATM   22  S   UNL     1     -41.817 -45.049  11.436  1.00  0.00    -0.064 SA
ENDBRANCH   4  17
TORSDOF 4
ENDMDL
MODEL 6
REMARK VINA RESULT:      -5.3      2.534      3.178
REMARK  4 active torsions:
REMARK  status: ('A' for Active; 'I' for Inactive)
REMARK    1  A    between atoms: N_4  and  C_5 
REMARK    2  A    between atoms: C_5  and  C_6 
REMARK    3  A    between atoms: C_6  and  N_7 
REMARK       I    between atoms: N_7  and  C_8 
REMARK       I    between atoms: C_8  and  N_10 
REMARK    4  A    between atoms: N_10  and  C_11 
ROOT
HETATM    1  N   UNL     1     -40.920 -51.198  11.407  1.00  0.00    -0.341 N 
HETATM    2  C   UNL     1     -41.027 -49.829  11.618  1.00  0.00     0.322 C 
HETATM    3  O   UNL     1     -40.595 -49.296  12.632  1.00  0.00    -0.247 OA
HETATM    4  N   UNL     1     -41.594 -49.203  10.539  1.00  0.00    -0.289 N 
HETATM    5  H   UNL     1     -41.709 -51.620  10.940  1.00  0.00     0.164 HD
HETATM    6  H   UNL     1     -41.671 -49.697   9.668  1.00  0.00     0.172 HD
ENDROOT
BRANCH   1   7
HETATM    7  C   UNL     1     -40.279 -51.991  12.443  1.00  0.00     0.154 C 
BRANCH   7   8
HETATM    8  C   UNL     1     -41.185 -53.099  13.008  1.00  0.00     0.292 C 
BRANCH   8   9
HETATM    9  N   UNL     1     -40.738 -53.609  14.320  1.00  0.00     0.095 N 
HETATM   10  C   UNL     1     -39.395 -54.230  14.249  1.00  0.00     0.303 C 
HETATM   11  C   UNL     1     -38.937 -54.798  15.608  1.00  0.00     0.146 C 
HETATM   12  C   UNL     1     -38.625 -53.702  16.627  1.00  0.00     0.041 C 
HETATM   13  O   UNL     1     -39.890 -55.742  16.118  1.00  0.00    -0.378 OA
HETATM   14  C   UNL     1     -41.218 -55.200  16.195  1.00  0.00     0.146 C 
HETATM   15  C   UNL     1     -41.679 -54.632  14.832  1.00  0.00     0.303 C 
HETATM   16  C   UNL     1     -42.133 -56.328  16.655  1.00  0.00     0.041 C 
ENDBRANCH   8   9
ENDBRANCH   7   8
ENDBRANCH   1   7
BRANCH   4  17
HETATM   17  C   UNL     1     -41.693 -47.838  10.494  1.00  0.00     0.152 A 
HETATM   18  N   UNL     1     -40.746 -46.938  10.520  1.00  0.00    -0.346 N 
HETATM   19  C   UNL     1     -41.297 -45.684  10.364  1.00  0.00     0.097 A 
ATOM     20  HN  UNL     1     -39.752 -47.133  10.639  1.00  0.00     0.167 HD
HETATM   21  C   UNL     1     -42.670 -45.653  10.243  1.00  0.00     0.070 A 
HETATM   22  S   UNL     1     -43.293 -47.251  10.360  1.00  0.00    -0.064 SA
ENDBRANCH   4  17
TORSDOF 4
ENDMDL
MODEL 7
REMARK VINA RESULT:      -5.3      2.802      3.696
REMARK  4 active torsions:
REMARK  status: ('A' for Active; 'I' for Inactive)
REMARK    1  A    between atoms: N_4  and  C_5 
REMARK    2  A    between atoms: C_5  and  C_6 
REMARK    3  A    between atoms: C_6  and  N_7 
REMARK       I    between atoms: N_7  and  C_8 
REMARK       I    between atoms: C_8  and  N_10 
REMARK    4  A    between atoms: N_10  and  C_11 
ROOT
HETATM    1  N   UNL     1     -42.943 -52.832  11.677  1.00  0.00    -0.341 N 
HETATM    2  C   UNL     1     -42.005 -52.082  12.374  1.00  0.00     0.322 C 
HETATM    3  O   UNL     1     -41.960 -52.079  13.597  1.00  0.00    -0.247 OA
HETATM    4  N   UNL     1     -41.145 -51.443  11.519  1.00  0.00    -0.289 N 
HETATM    5  H   UNL     1     -43.300 -52.395  10.839  1.00  0.00     0.164 HD
HETATM    6  H   UNL     1     -41.114 -51.720  10.555  1.00  0.00     0.172 HD
ENDROOT
BRANCH   1   7
HETATM    7  C   UNL     1     -43.889 -53.618  12.453  1.00  0.00     0.154 C 
BRANCH   7   8
HETATM    8  C   UNL     1     -45.254 -52.929  12.625  1.00  0.00     0.292 C 
BRANCH   8   9
HETATM    9  N   UNL     1     -45.649 -52.758  14.037  1.00  0.00     0.095 N 
HETATM   10  C   UNL     1     -45.538 -51.348  14.481  1.00  0.00     0.303 C 
HETATM   11  C   UNL     1     -45.913 -51.167  15.966  1.00  0.00     0.146 C 
HETATM   12  C   UNL     1     -47.406 -51.367  16.222  1.00  0.00     0.041 C 
HETATM   13  O   UNL     1     -45.113 -52.013  16.805  1.00  0.00    -0.378 OA
HETATM   14  C   UNL     1     -45.168 -53.394  16.413  1.00  0.00     0.146 C 
HETATM   15  C   UNL     1     -44.790 -53.577  14.924  1.00  0.00     0.303 C 
HETATM   16  C   UNL     1     -44.207 -54.153  17.318  1.00  0.00     0.041 C 
ENDBRANCH   8   9
ENDBRANCH   7   8
ENDBRANCH   1   7
BRANCH   4  17
HETATM   17  C   UNL     1     -40.075 -50.736  12.001  1.00  0.00     0.152 A 
HETATM   18  N   UNL     1     -39.052 -51.156  12.697  1.00  0.00    -0.346 N 
HETATM   19  C   UNL     1     -38.169 -50.115  12.890  1.00  0.00     0.097 A 
ATOM     20  HN  UNL     1     -38.926 -52.106  13.044  1.00  0.00     0.167 HD
HETATM   21  C   UNL     1     -38.554 -48.906  12.351  1.00  0.00     0.070 A 
HETATM   22  S   UNL     1     -40.091 -49.074  11.601  1.00  0.00    -0.064 SA
ENDBRANCH   4  17
TORSDOF 4
ENDMDL
MODEL 8
REMARK VINA RESULT:      -5.2      2.771      7.105
REMARK  4 active torsions:
REMARK  status: ('A' for Active; 'I' for Inactive)
REMARK    1  A    between atoms: N_4  and  C_5 
REMARK    2  A    between atoms: C_5  and  C_6 
REMARK    3  A    between atoms: C_6  and  N_7 
REMARK       I    between atoms: N_7  and  C_8 
REMARK       I    between atoms: C_8  and  N_10 
REMARK    4  A    between atoms: N_10  and  C_11 
ROOT
HETATM    1  N   UNL     1     -40.573 -51.223  11.335  1.00  0.00    -0.341 N 
HETATM    2  C   UNL     1     -41.678 -51.610  12.081  1.00  0.00     0.322 C 
HETATM    3  O   UNL     1     -42.500 -50.798  12.487  1.00  0.00    -0.247 OA
HETATM    4  N   UNL     1     -41.733 -52.972  12.218  1.00  0.00    -0.289 N 
HETATM    5  H   UNL     1     -39.728 -51.743  11.524  1.00  0.00     0.164 HD
HETATM    6  H   UNL     1     -41.157 -53.549  11.632  1.00  0.00     0.172 HD
ENDROOT
BRANCH   1   7
HETATM    7  C   UNL     1     -40.413 -49.805  11.053  1.00  0.00     0.154 C 
BRANCH   7   8
HETATM    8  C   UNL     1     -39.386 -49.115  11.967  1.00  0.00     0.292 C 
BRANCH   8   9
HETATM    9  N   UNL     1     -39.605 -47.661  12.101  1.00  0.00     0.095 N 
HETATM   10  C   UNL     1     -39.885 -47.266  13.501  1.00  0.00     0.303 C 
HETATM   11  C   UNL     1     -40.152 -45.753  13.643  1.00  0.00     0.146 C 
HETATM   12  C   UNL     1     -38.895 -44.913  13.419  1.00  0.00     0.041 C 
HETATM   13  O   UNL     1     -41.227 -45.338  12.788  1.00  0.00    -0.378 OA
HETATM   14  C   UNL     1     -41.018 -45.709  11.416  1.00  0.00     0.146 C 
HETATM   15  C   UNL     1     -40.753 -47.226  11.272  1.00  0.00     0.303 C 
HETATM   16  C   UNL     1     -42.268 -45.298  10.648  1.00  0.00     0.041 C 
ENDBRANCH   8   9
ENDBRANCH   7   8
ENDBRANCH   1   7
BRANCH   4  17
HETATM   17  C   UNL     1     -42.803 -53.573  12.826  1.00  0.00     0.152 A 
HETATM   18  N   UNL     1     -44.029 -53.713  12.396  1.00  0.00    -0.346 N 
HETATM   19  C   UNL     1     -44.752 -54.461  13.300  1.00  0.00     0.097 A 
ATOM     20  HN  UNL     1     -44.394 -53.329  11.525  1.00  0.00     0.167 HD
HETATM   21  C   UNL     1     -44.061 -54.859  14.425  1.00  0.00     0.070 A 
HETATM   22  S   UNL     1     -42.455 -54.249  14.357  1.00  0.00    -0.064 SA
ENDBRANCH   4  17
TORSDOF 4
ENDMDL
MODEL 9
REMARK VINA RESULT:      -5.2      3.245      7.428
REMARK  4 active torsions:
REMARK  status: ('A' for Active; 'I' for Inactive)
REMARK    1  A    between atoms: N_4  and  C_5 
REMARK    2  A    between atoms: C_5  and  C_6 
REMARK    3  A    between atoms: C_6  and  N_7 
REMARK       I    between atoms: N_7  and  C_8 
REMARK       I    between atoms: C_8  and  N_10 
REMARK    4  A    between atoms: N_10  and  C_11 
ROOT
HETATM    1  N   UNL     1     -40.897 -49.051  10.643  1.00  0.00    -0.341 N 
HETATM    2  C   UNL     1     -41.476 -49.909  11.570  1.00  0.00     0.322 C 
HETATM    3  O   UNL     1     -42.253 -49.507  12.425  1.00  0.00    -0.247 OA
HETATM    4  N   UNL     1     -41.113 -51.209  11.337  1.00  0.00    -0.289 N 
HETATM    5  H   UNL     1     -39.942 -49.269  10.399  1.00  0.00     0.164 HD
HETATM    6  H   UNL     1     -40.684 -51.451  10.462  1.00  0.00     0.172 HD
ENDROOT
BRANCH   1   7
HETATM    7  C   UNL     1     -41.240 -47.640  10.725  1.00  0.00     0.154 C 
BRANCH   7   8
HETATM    8  C   UNL     1     -40.033 -46.739  11.038  1.00  0.00     0.292 C 
BRANCH   8   9
HETATM    9  N   UNL     1     -40.240 -45.871  12.215  1.00  0.00     0.095 N 
HETATM   10  C   UNL     1     -39.672 -44.517  12.017  1.00  0.00     0.303 C 
HETATM   11  C   UNL     1     -39.851 -43.617  13.257  1.00  0.00     0.146 C 
HETATM   12  C   UNL     1     -41.308 -43.219  13.487  1.00  0.00     0.041 C 
HETATM   13  O   UNL     1     -39.277 -44.227  14.423  1.00  0.00    -0.378 OA
HETATM   14  C   UNL     1     -39.779 -45.553  14.657  1.00  0.00     0.146 C 
HETATM   15  C   UNL     1     -39.598 -46.457  13.416  1.00  0.00     0.303 C 
HETATM   16  C   UNL     1     -39.020 -46.111  15.855  1.00  0.00     0.041 C 
ENDBRANCH   8   9
ENDBRANCH   7   8
ENDBRANCH   1   7
BRANCH   4  17
HETATM   17  C   UNL     1     -41.658 -52.231  12.068  1.00  0.00     0.152 A 
HETATM   18  N   UNL     1     -42.881 -52.693  12.061  1.00  0.00    -0.346 N 
HETATM   19  C   UNL     1     -42.964 -53.788  12.895  1.00  0.00     0.097 A 
ATOM     20  HN  UNL     1     -43.654 -52.304  11.522  1.00  0.00     0.167 HD
HETATM   21  C   UNL     1     -41.796 -54.126  13.544  1.00  0.00     0.070 A 
HETATM   22  S   UNL     1     -40.557 -53.014  13.115  1.00  0.00    -0.064 SA
ENDBRANCH   4  17
TORSDOF 4
ENDMDL
