MODEL 1
REMARK VINA RESULT:      -4.9      0.000      0.000
REMARK  3 active torsions:
REMARK  status: ('A' for Active; 'I' for Inactive)
REMARK    1  A    between atoms: N_11  and  C_12 
REMARK    2  A    between atoms: C_12  and  C_13 
REMARK    3  A    between atoms: C_13  and  O_14 
ROOT
HETATM    1  C   UNL     1     -40.128 -51.296  12.115  1.00  0.00     0.089 C 
HETATM    2  C   UNL     1     -41.247 -52.156  12.576  1.00  0.00     0.080 A 
HETATM    3  N   UNL     1     -42.401 -52.290  11.954  1.00  0.00    -0.344 N 
ATOM      4  HN  UNL     1     -42.694 -51.821  11.097  1.00  0.00     0.167 HD
HETATM    5  C   UNL     1     -43.128 -53.185  12.693  1.00  0.00     0.060 A 
HETATM    6  C   UNL     1     -44.413 -53.695  12.461  1.00  0.00     0.032 A 
HETATM    7  C   UNL     1     -44.950 -54.613  13.371  1.00  0.00     0.002 A 
HETATM    8  C   UNL     1     -44.221 -55.012  14.492  1.00  0.00     0.002 A 
HETATM    9  C   UNL     1     -42.935 -54.515  14.739  1.00  0.00     0.032 A 
HETATM   10  C   UNL     1     -42.414 -53.602  13.813  1.00  0.00     0.062 A 
HETATM   11  N   UNL     1     -41.214 -52.931  13.716  1.00  0.00    -0.333 N 
ENDROOT
BRANCH  11  12
HETATM   12  C   UNL     1     -40.091 -53.072  14.627  1.00  0.00     0.156 C 
BRANCH  12  13
HETATM   13  C   UNL     1     -39.392 -54.424  14.517  1.00  0.00     0.184 C 
BRANCH  13  14
HETATM   14  O   UNL     1     -38.723 -54.577  13.271  1.00  0.00    -0.399 OA
HETATM   15  H   UNL     1     -39.307 -54.219  12.576  1.00  0.00     0.209 HD
ENDBRANCH  13  14
ENDBRANCH  12  13
ENDBRANCH  11  12
TORSDOF 3
ENDMDL
MODEL 2
REMARK VINA RESULT:      -4.7      2.912      4.530
REMARK  3 active torsions:
REMARK  status: ('A' for Active; 'I' for Inactive)
REMARK    1  A    between atoms: N_11  and  C_12 
REMARK    2  A    between atoms: C_12  and  C_13 
REMARK    3  A    between atoms: C_13  and  O_14 
ROOT
HETATM    1  C   UNL     1     -46.384 -51.527  13.986  1.00  0.00     0.089 C 
HETATM    2  C   UNL     1     -44.998 -51.910  13.615  1.00  0.00     0.080 A 
HETATM    3  N   UNL     1     -44.176 -51.167  12.902  1.00  0.00    -0.344 N 
ATOM      4  HN  UNL     1     -44.370 -50.251  12.497  1.00  0.00     0.167 HD
HETATM    5  C   UNL     1     -43.005 -51.874  12.816  1.00  0.00     0.060 A 
HETATM    6  C   UNL     1     -41.801 -51.526  12.188  1.00  0.00     0.032 A 
HETATM    7  C   UNL     1     -40.730 -52.426  12.237  1.00  0.00     0.002 A 
HETATM    8  C   UNL     1     -40.859 -53.650  12.896  1.00  0.00     0.002 A 
HETATM    9  C   UNL     1     -42.054 -54.012  13.530  1.00  0.00     0.032 A 
HETATM   10  C   UNL     1     -43.112 -53.095  13.474  1.00  0.00     0.062 A 
HETATM   11  N   UNL     1     -44.395 -53.095  13.978  1.00  0.00    -0.333 N 
ENDROOT
BRANCH  11  12
HETATM   12  C   UNL     1     -44.978 -54.140  14.802  1.00  0.00     0.156 C 
BRANCH  12  13
HETATM   13  C   UNL     1     -45.707 -55.209  13.993  1.00  0.00     0.184 C 
BRANCH  13  14
HETATM   14  O   UNL     1     -47.033 -55.421  14.463  1.00  0.00    -0.399 OA
HETATM   15  H   UNL     1     -47.186 -54.802  15.202  1.00  0.00     0.209 HD
ENDBRANCH  13  14
ENDBRANCH  12  13
ENDBRANCH  11  12
TORSDOF 3
ENDMDL
MODEL 3
REMARK VINA RESULT:      -4.6      2.448      3.384
REMARK  3 active torsions:
REMARK  status: ('A' for Active; 'I' for Inactive)
REMARK    1  A    between atoms: N_11  and  C_12 
REMARK    2  A    between atoms: C_12  and  C_13 
REMARK    3  A    between atoms: C_13  and  O_14 
ROOT
HETATM    1  C   UNL     1     -41.656 -53.122  16.248  1.00  0.00     0.089 C 
HETATM    2  C   UNL     1     -42.882 -52.817  15.468  1.00  0.00     0.080 A 
HETATM    3  N   UNL     1     -43.931 -52.172  15.936  1.00  0.00    -0.344 N 
ATOM      4  HN  UNL     1     -44.060 -51.812  16.882  1.00  0.00     0.167 HD
HETATM    5  C   UNL     1     -44.816 -52.083  14.894  1.00  0.00     0.060 A 
HETATM    6  C   UNL     1     -46.079 -51.475  14.848  1.00  0.00     0.032 A 
HETATM    7  C   UNL     1     -46.804 -51.514  13.652  1.00  0.00     0.002 A 
HETATM    8  C   UNL     1     -46.283 -52.151  12.525  1.00  0.00     0.002 A 
HETATM    9  C   UNL     1     -45.024 -52.763  12.552  1.00  0.00     0.032 A 
HETATM   10  C   UNL     1     -44.311 -52.707  13.758  1.00  0.00     0.062 A 
HETATM   11  N   UNL     1     -43.072 -53.168  14.149  1.00  0.00    -0.333 N 
ENDROOT
BRANCH  11  12
HETATM   12  C   UNL     1     -42.115 -53.848  13.293  1.00  0.00     0.156 C 
BRANCH  12  13
HETATM   13  C   UNL     1     -41.218 -52.891  12.513  1.00  0.00     0.184 C 
BRANCH  13  14
HETATM   14  O   UNL     1     -40.614 -53.523  11.391  1.00  0.00    -0.399 OA
HETATM   15  H   UNL     1     -40.382 -52.826  10.749  1.00  0.00     0.209 HD
ENDBRANCH  13  14
ENDBRANCH  12  13
ENDBRANCH  11  12
TORSDOF 3
ENDMDL
MODEL 4
REMARK VINA RESULT:      -4.6      2.210      2.865
REMARK  3 active torsions:
REMARK  status: ('A' for Active; 'I' for Inactive)
REMARK    1  A    between atoms: N_11  and  C_12 
REMARK    2  A    between atoms: C_12  and  C_13 
REMARK    3  A    between atoms: C_13  and  O_14 
ROOT
HETATM    1  C   UNL     1     -43.230 -49.587  13.582  1.00  0.00     0.089 C 
HETATM    2  C   UNL     1     -43.900 -50.899  13.766  1.00  0.00     0.080 A 
HETATM    3  N   UNL     1     -44.937 -51.112  14.551  1.00  0.00    -0.344 N 
ATOM      4  HN  UNL     1     -45.410 -50.430  15.143  1.00  0.00     0.167 HD
HETATM    5  C   UNL     1     -45.253 -52.438  14.408  1.00  0.00     0.060 A 
HETATM    6  C   UNL     1     -46.287 -53.175  15.002  1.00  0.00     0.032 A 
HETATM    7  C   UNL     1     -46.409 -54.535  14.696  1.00  0.00     0.002 A 
HETATM    8  C   UNL     1     -45.515 -55.149  13.818  1.00  0.00     0.002 A 
HETATM    9  C   UNL     1     -44.477 -54.429  13.215  1.00  0.00     0.032 A 
HETATM   10  C   UNL     1     -44.376 -53.067  13.530  1.00  0.00     0.062 A 
HETATM   11  N   UNL     1     -43.520 -52.063  13.132  1.00  0.00    -0.333 N 
ENDROOT
BRANCH  11  12
HETATM   12  C   UNL     1     -42.448 -52.202  12.161  1.00  0.00     0.156 C 
BRANCH  12  13
HETATM   13  C   UNL     1     -41.224 -52.924  12.716  1.00  0.00     0.184 C 
BRANCH  13  14
HETATM   14  O   UNL     1     -40.466 -53.554  11.689  1.00  0.00    -0.399 OA
HETATM   15  H   UNL     1     -40.125 -54.395  12.048  1.00  0.00     0.209 HD
ENDBRANCH  13  14
ENDBRANCH  12  13
ENDBRANCH  11  12
TORSDOF 3
ENDMDL
MODEL 5
REMARK VINA RESULT:      -4.6      2.534      3.792
REMARK  3 active torsions:
REMARK  status: ('A' for Active; 'I' for Inactive)
REMARK    1  A    between atoms: N_11  and  C_12 
REMARK    2  A    between atoms: C_12  and  C_13 
REMARK    3  A    between atoms: C_13  and  O_14 
ROOT
HETATM    1  C   UNL     1     -42.383 -55.299  15.740  1.00  0.00     0.089 C 
HETATM    2  C   UNL     1     -43.437 -54.352  15.296  1.00  0.00     0.080 A 
HETATM    3  N   UNL     1     -44.397 -53.878  16.065  1.00  0.00    -0.344 N 
ATOM      4  HN  UNL     1     -44.563 -54.099  17.047  1.00  0.00     0.167 HD
HETATM    5  C   UNL     1     -45.127 -53.027  15.278  1.00  0.00     0.060 A 
HETATM    6  C   UNL     1     -46.243 -52.246  15.609  1.00  0.00     0.032 A 
HETATM    7  C   UNL     1     -46.824 -51.444  14.619  1.00  0.00     0.002 A 
HETATM    8  C   UNL     1     -46.304 -51.425  13.324  1.00  0.00     0.002 A 
HETATM    9  C   UNL     1     -45.189 -52.198  12.976  1.00  0.00     0.032 A 
HETATM   10  C   UNL     1     -44.619 -52.989  13.983  1.00  0.00     0.062 A 
HETATM   11  N   UNL     1     -43.538 -53.843  14.019  1.00  0.00    -0.333 N 
ENDROOT
BRANCH  11  12
HETATM   12  C   UNL     1     -42.631 -54.105  12.914  1.00  0.00     0.156 C 
BRANCH  12  13
HETATM   13  C   UNL     1     -41.496 -53.090  12.813  1.00  0.00     0.184 C 
BRANCH  13  14
HETATM   14  O   UNL     1     -40.660 -53.337  11.688  1.00  0.00    -0.399 OA
HETATM   15  H   UNL     1     -39.735 -53.234  11.980  1.00  0.00     0.209 HD
ENDBRANCH  13  14
ENDBRANCH  12  13
ENDBRANCH  11  12
TORSDOF 3
ENDMDL
MODEL 6
REMARK VINA RESULT:      -4.5      1.708      2.934
REMARK  3 active torsions:
REMARK  status: ('A' for Active; 'I' for Inactive)
REMARK    1  A    between atoms: N_11  and  C_12 
REMARK    2  A    between atoms: C_12  and  C_13 
REMARK    3  A    between atoms: C_13  and  O_14 
ROOT
HETATM    1  C   UNL     1     -39.258 -53.896  14.148  1.00  0.00     0.089 C 
HETATM    2  C   UNL     1     -40.731 -54.008  14.001  1.00  0.00     0.080 A 
HETATM    3  N   UNL     1     -41.530 -54.619  14.854  1.00  0.00    -0.344 N 
ATOM      4  HN  UNL     1     -41.258 -55.106  15.708  1.00  0.00     0.167 HD
HETATM    5  C   UNL     1     -42.798 -54.467  14.359  1.00  0.00     0.060 A 
HETATM    6  C   UNL     1     -44.019 -54.906  14.891  1.00  0.00     0.032 A 
HETATM    7  C   UNL     1     -45.200 -54.625  14.194  1.00  0.00     0.002 A 
HETATM    8  C   UNL     1     -45.163 -53.923  12.989  1.00  0.00     0.002 A 
HETATM    9  C   UNL     1     -43.953 -53.475  12.443  1.00  0.00     0.032 A 
HETATM   10  C   UNL     1     -42.784 -53.762  13.160  1.00  0.00     0.062 A 
HETATM   11  N   UNL     1     -41.451 -53.478  12.952  1.00  0.00    -0.333 N 
ENDROOT
BRANCH  11  12
HETATM   12  C   UNL     1     -40.915 -52.700  11.848  1.00  0.00     0.156 C 
BRANCH  12  13
HETATM   13  C   UNL     1     -41.027 -51.194  12.062  1.00  0.00     0.184 C 
BRANCH  13  14
HETATM   14  O   UNL     1     -40.646 -50.461  10.903  1.00  0.00    -0.399 OA
HETATM   15  H   UNL     1     -41.463 -50.182  10.449  1.00  0.00     0.209 HD
ENDBRANCH  13  14
ENDBRANCH  12  13
ENDBRANCH  11  12
TORSDOF 3
ENDMDL
MODEL 7
REMARK VINA RESULT:      -4.4      2.395      3.555
REMARK  3 active torsions:
REMARK  status: ('A' for Active; 'I' for Inactive)
REMARK    1  A    between atoms: N_11  and  C_12 
REMARK    2  A    between atoms: C_12  and  C_13 
REMARK    3  A    between atoms: C_13  and  O_14 
ROOT
HETATM    1  C   UNL     1     -41.003 -48.796  11.039  1.00  0.00     0.089 C 
HETATM    2  C   UNL     1     -40.950 -50.096  11.755  1.00  0.00     0.080 A 
HETATM    3  N   UNL     1     -41.925 -50.983  11.779  1.00  0.00    -0.344 N 
ATOM      4  HN  UNL     1     -42.840 -50.902  11.336  1.00  0.00     0.167 HD
HETATM    5  C   UNL     1     -41.459 -52.036  12.521  1.00  0.00     0.060 A 
HETATM    6  C   UNL     1     -42.088 -53.249  12.837  1.00  0.00     0.032 A 
HETATM    7  C   UNL     1     -41.399 -54.183  13.621  1.00  0.00     0.002 A 
HETATM    8  C   UNL     1     -40.111 -53.910  14.083  1.00  0.00     0.002 A 
HETATM    9  C   UNL     1     -39.468 -52.705  13.777  1.00  0.00     0.032 A 
HETATM   10  C   UNL     1     -40.172 -51.786  12.987  1.00  0.00     0.062 A 
HETATM   11  N   UNL     1     -39.867 -50.540  12.483  1.00  0.00    -0.333 N 
ENDROOT
BRANCH  11  12
HETATM   12  C   UNL     1     -38.598 -49.851  12.643  1.00  0.00     0.156 C 
BRANCH  12  13
HETATM   13  C   UNL     1     -37.490 -50.416  11.759  1.00  0.00     0.184 C 
BRANCH  13  14
HETATM   14  O   UNL     1     -37.652 -50.039  10.397  1.00  0.00    -0.399 OA
HETATM   15  H   UNL     1     -38.288 -50.660   9.993  1.00  0.00     0.209 HD
ENDBRANCH  13  14
ENDBRANCH  12  13
ENDBRANCH  11  12
TORSDOF 3
ENDMDL
MODEL 8
REMARK VINA RESULT:      -4.3      5.677      7.152
REMARK  3 active torsions:
REMARK  status: ('A' for Active; 'I' for Inactive)
REMARK    1  A    between atoms: N_11  and  C_12 
REMARK    2  A    between atoms: C_12  and  C_13 
REMARK    3  A    between atoms: C_13  and  O_14 
ROOT
HETATM    1  C   UNL     1     -42.584 -47.806   9.684  1.00  0.00     0.089 C 
HETATM    2  C   UNL     1     -41.457 -48.228  10.552  1.00  0.00     0.080 A 
HETATM    3  N   UNL     1     -40.925 -49.434  10.564  1.00  0.00    -0.344 N 
ATOM      4  HN  UNL     1     -41.213 -50.237  10.005  1.00  0.00     0.167 HD
HETATM    5  C   UNL     1     -39.907 -49.390  11.479  1.00  0.00     0.060 A 
HETATM    6  C   UNL     1     -39.008 -50.396  11.859  1.00  0.00     0.032 A 
HETATM    7  C   UNL     1     -38.040 -50.107  12.829  1.00  0.00     0.002 A 
HETATM    8  C   UNL     1     -37.973 -48.840  13.409  1.00  0.00     0.002 A 
HETATM    9  C   UNL     1     -38.862 -47.822  13.041  1.00  0.00     0.032 A 
HETATM   10  C   UNL     1     -39.819 -48.131  12.065  1.00  0.00     0.062 A 
HETATM   11  N   UNL     1     -40.820 -47.405  11.456  1.00  0.00    -0.333 N 
ENDROOT
BRANCH  11  12
HETATM   12  C   UNL     1     -41.103 -45.998  11.686  1.00  0.00     0.156 C 
BRANCH  12  13
HETATM   13  C   UNL     1     -40.612 -45.093  10.561  1.00  0.00     0.184 C 
BRANCH  13  14
HETATM   14  O   UNL     1     -39.465 -45.626   9.911  1.00  0.00    -0.399 OA
HETATM   15  H   UNL     1     -38.845 -45.923  10.603  1.00  0.00     0.209 HD
ENDBRANCH  13  14
ENDBRANCH  12  13
ENDBRANCH  11  12
TORSDOF 3
ENDMDL
MODEL 9
REMARK VINA RESULT:      -4.2      1.785      3.108
REMARK  3 active torsions:
REMARK  status: ('A' for Active; 'I' for Inactive)
REMARK    1  A    between atoms: N_11  and  C_12 
REMARK    2  A    between atoms: C_12  and  C_13 
REMARK    3  A    between atoms: C_13  and  O_14 
ROOT
HETATM    1  C   UNL     1     -40.788 -55.340  17.386  1.00  0.00     0.089 C 
HETATM    2  C   UNL     1     -41.670 -55.028  16.234  1.00  0.00     0.080 A 
HETATM    3  N   UNL     1     -42.929 -55.404  16.125  1.00  0.00    -0.344 N 
ATOM      4  HN  UNL     1     -43.462 -55.964  16.790  1.00  0.00     0.167 HD
HETATM    5  C   UNL     1     -43.376 -54.889  14.936  1.00  0.00     0.060 A 
HETATM    6  C   UNL     1     -44.647 -54.975  14.351  1.00  0.00     0.032 A 
HETATM    7  C   UNL     1     -44.864 -54.358  13.114  1.00  0.00     0.002 A 
HETATM    8  C   UNL     1     -43.833 -53.672  12.471  1.00  0.00     0.002 A 
HETATM    9  C   UNL     1     -42.557 -53.575  13.040  1.00  0.00     0.032 A 
HETATM   10  C   UNL     1     -42.362 -54.195  14.282  1.00  0.00     0.062 A 
HETATM   11  N   UNL     1     -41.282 -54.296  15.132  1.00  0.00    -0.333 N 
ENDROOT
BRANCH  11  12
HETATM   12  C   UNL     1     -39.982 -53.681  14.923  1.00  0.00     0.156 C 
BRANCH  12  13
HETATM   13  C   UNL     1     -39.063 -54.504  14.026  1.00  0.00     0.184 C 
BRANCH  13  14
HETATM   14  O   UNL     1     -38.468 -55.590  14.727  1.00  0.00    -0.399 OA
HETATM   15  H   UNL     1     -39.158 -56.266  14.864  1.00  0.00     0.209 HD
ENDBRANCH  13  14
ENDBRANCH  12  13
ENDBRANCH  11  12
TORSDOF 3
ENDMDL
