MODEL 1
REMARK VINA RESULT:      -6.1      0.000      0.000
REMARK  3 active torsions:
REMARK  status: ('A' for Active; 'I' for Inactive)
REMARK    1  A    between atoms: C_6  and  N_7 
REMARK       I    between atoms: N_7  and  C_8 
REMARK       I    between atoms: C_8  and  N_10 
REMARK    2  A    between atoms: N_10  and  C_11 
REMARK    3  A    between atoms: C_11  and  C_12 
REMARK       I    between atoms: C_12  and  N_14 
ROOT
HETATM    1  N   UNL     1     -41.385 -47.582  10.306  1.00  0.00    -0.289 N 
HETATM    2  C   UNL     1     -40.850 -48.580  11.058  1.00  0.00     0.322 C 
HETATM    3  O   UNL     1     -39.749 -48.419  11.591  1.00  0.00    -0.247 OA
HETATM    4  N   UNL     1     -41.521 -49.761  11.092  1.00  0.00    -0.334 N 
HETATM    5  H   UNL     1     -40.806 -46.770  10.171  1.00  0.00     0.172 HD
HETATM    6  H   UNL     1     -42.523 -49.720  10.918  1.00  0.00     0.164 HD
ENDROOT
BRANCH   1   7
HETATM    7  C   UNL     1     -42.559 -47.666   9.618  1.00  0.00     0.152 A 
HETATM    8  N   UNL     1     -42.737 -47.975   8.356  1.00  0.00    -0.345 N 
HETATM    9  C   UNL     1     -44.082 -47.893   8.059  1.00  0.00     0.104 A 
ATOM     10  HN  UNL     1     -42.000 -48.234   7.700  1.00  0.00     0.167 HD
HETATM   11  C   UNL     1     -44.897 -47.483   9.098  1.00  0.00    -0.003 A 
HETATM   12  C   UNL     1     -46.356 -47.222   9.101  1.00  0.00     0.058 C 
HETATM   13  S   UNL     1     -43.952 -47.285  10.518  1.00  0.00    -0.058 SA
ENDBRANCH   1   7
BRANCH   4  14
HETATM   14  C   UNL     1     -40.983 -50.926  11.747  1.00  0.00     0.227 C 
BRANCH  14  15
HETATM   15  C   UNL     1     -41.947 -51.567  12.751  1.00  0.00     0.237 C 
HETATM   16  O   UNL     1     -43.121 -51.207  12.859  1.00  0.00    -0.272 OA
HETATM   17  N   UNL     1     -41.447 -52.660  13.439  1.00  0.00    -0.351 N 
HETATM   18  C   UNL     1     -42.275 -53.414  14.357  1.00  0.00     0.126 C 
HETATM   19  C   UNL     1     -40.045 -52.964  13.631  1.00  0.00     0.126 C 
HETATM   20  C   UNL     1     -41.349 -54.449  14.990  1.00  0.00     0.021 C 
HETATM   21  C   UNL     1     -40.046 -54.365  14.204  1.00  0.00     0.021 C 
ENDBRANCH  14  15
ENDBRANCH   4  14
TORSDOF 3
ENDMDL
MODEL 2
REMARK VINA RESULT:      -6.0      2.939      4.377
REMARK  3 active torsions:
REMARK  status: ('A' for Active; 'I' for Inactive)
REMARK    1  A    between atoms: C_6  and  N_7 
REMARK       I    between atoms: N_7  and  C_8 
REMARK       I    between atoms: C_8  and  N_10 
REMARK    2  A    between atoms: N_10  and  C_11 
REMARK    3  A    between atoms: C_11  and  C_12 
REMARK       I    between atoms: C_12  and  N_14 
ROOT
HETATM    1  N   UNL     1     -40.250 -51.101  11.678  1.00  0.00    -0.289 N 
HETATM    2  C   UNL     1     -41.041 -52.160  11.995  1.00  0.00     0.322 C 
HETATM    3  O   UNL     1     -40.544 -53.283  12.104  1.00  0.00    -0.247 OA
HETATM    4  N   UNL     1     -42.380 -51.936  12.068  1.00  0.00    -0.334 N 
HETATM    5  H   UNL     1     -39.285 -51.312  11.483  1.00  0.00     0.172 HD
HETATM    6  H   UNL     1     -42.670 -50.984  12.284  1.00  0.00     0.164 HD
ENDROOT
BRANCH   1   7
HETATM    7  C   UNL     1     -40.693 -49.829  11.467  1.00  0.00     0.152 A 
HETATM    8  N   UNL     1     -41.135 -49.300  10.351  1.00  0.00    -0.345 N 
HETATM    9  C   UNL     1     -41.434 -47.972  10.571  1.00  0.00     0.104 A 
ATOM     10  HN  UNL     1     -41.240 -49.792   9.464  1.00  0.00     0.167 HD
HETATM   11  C   UNL     1     -41.174 -47.506  11.847  1.00  0.00    -0.003 A 
HETATM   12  C   UNL     1     -41.307 -46.135  12.392  1.00  0.00     0.058 C 
HETATM   13  S   UNL     1     -40.625 -48.806  12.825  1.00  0.00    -0.058 SA
ENDBRANCH   1   7
BRANCH   4  14
HETATM   14  C   UNL     1     -43.324 -53.005  12.265  1.00  0.00     0.227 C 
BRANCH  14  15
HETATM   15  C   UNL     1     -43.685 -53.243  13.736  1.00  0.00     0.237 C 
HETATM   16  O   UNL     1     -42.940 -53.852  14.507  1.00  0.00    -0.272 OA
HETATM   17  N   UNL     1     -44.844 -52.622  14.170  1.00  0.00    -0.351 N 
HETATM   18  C   UNL     1     -45.261 -52.692  15.555  1.00  0.00     0.126 C 
HETATM   19  C   UNL     1     -45.926 -52.171  13.321  1.00  0.00     0.126 C 
HETATM   20  C   UNL     1     -46.617 -51.994  15.610  1.00  0.00     0.021 C 
HETATM   21  C   UNL     1     -46.800 -51.349  14.242  1.00  0.00     0.021 C 
ENDBRANCH  14  15
ENDBRANCH   4  14
TORSDOF 3
ENDMDL
MODEL 3
REMARK VINA RESULT:      -5.9      4.381      6.355
REMARK  3 active torsions:
REMARK  status: ('A' for Active; 'I' for Inactive)
REMARK    1  A    between atoms: C_6  and  N_7 
REMARK       I    between atoms: N_7  and  C_8 
REMARK       I    between atoms: C_8  and  N_10 
REMARK    2  A    between atoms: N_10  and  C_11 
REMARK    3  A    between atoms: C_11  and  C_12 
REMARK       I    between atoms: C_12  and  N_14 
ROOT
HETATM    1  N   UNL     1     -41.387 -47.979  10.481  1.00  0.00    -0.289 N 
HETATM    2  C   UNL     1     -40.499 -46.979  10.721  1.00  0.00     0.322 C 
HETATM    3  O   UNL     1     -39.538 -47.181  11.467  1.00  0.00    -0.247 OA
HETATM    4  N   UNL     1     -40.784 -45.755  10.201  1.00  0.00    -0.334 N 
HETATM    5  H   UNL     1     -41.240 -48.834  10.991  1.00  0.00     0.172 HD
HETATM    6  H   UNL     1     -41.374 -45.740   9.373  1.00  0.00     0.164 HD
ENDROOT
BRANCH   1   7
HETATM    7  C   UNL     1     -42.518 -47.856   9.728  1.00  0.00     0.152 A 
HETATM    8  N   UNL     1     -42.642 -47.977   8.428  1.00  0.00    -0.345 N 
HETATM    9  C   UNL     1     -43.952 -47.726   8.077  1.00  0.00     0.104 A 
ATOM     10  HN  UNL     1     -41.891 -48.218   7.781  1.00  0.00     0.167 HD
HETATM   11  C   UNL     1     -44.792 -47.379   9.119  1.00  0.00    -0.003 A 
HETATM   12  C   UNL     1     -46.218 -46.979   9.083  1.00  0.00     0.058 C 
HETATM   13  S   UNL     1     -43.926 -47.463  10.599  1.00  0.00    -0.058 SA
ENDBRANCH   1   7
BRANCH   4  14
HETATM   14  C   UNL     1     -39.985 -44.594  10.500  1.00  0.00     0.227 C 
BRANCH  14  15
HETATM   15  C   UNL     1     -40.748 -43.501  11.256  1.00  0.00     0.237 C 
HETATM   16  O   UNL     1     -41.477 -42.689  10.682  1.00  0.00    -0.272 OA
HETATM   17  N   UNL     1     -40.662 -43.563  12.636  1.00  0.00    -0.351 N 
HETATM   18  C   UNL     1     -41.399 -42.644  13.478  1.00  0.00     0.126 C 
HETATM   19  C   UNL     1     -39.623 -44.238  13.385  1.00  0.00     0.126 C 
HETATM   20  C   UNL     1     -40.959 -42.955  14.907  1.00  0.00     0.021 C 
HETATM   21  C   UNL     1     -40.129 -44.229  14.811  1.00  0.00     0.021 C 
ENDBRANCH  14  15
ENDBRANCH   4  14
TORSDOF 3
ENDMDL
MODEL 4
REMARK VINA RESULT:      -5.7      2.609      6.109
REMARK  3 active torsions:
REMARK  status: ('A' for Active; 'I' for Inactive)
REMARK    1  A    between atoms: C_6  and  N_7 
REMARK       I    between atoms: N_7  and  C_8 
REMARK       I    between atoms: C_8  and  N_10 
REMARK    2  A    between atoms: N_10  and  C_11 
REMARK    3  A    between atoms: C_11  and  C_12 
REMARK       I    between atoms: C_12  and  N_14 
ROOT
HETATM    1  N   UNL     1     -41.689 -52.646  12.946  1.00  0.00    -0.289 N 
HETATM    2  C   UNL     1     -40.879 -51.785  12.276  1.00  0.00     0.322 C 
HETATM    3  O   UNL     1     -39.656 -51.857  12.423  1.00  0.00    -0.247 OA
HETATM    4  N   UNL     1     -41.478 -50.804  11.550  1.00  0.00    -0.334 N 
HETATM    5  H   UNL     1     -41.234 -53.270  13.593  1.00  0.00     0.172 HD
HETATM    6  H   UNL     1     -42.422 -50.994  11.222  1.00  0.00     0.164 HD
ENDROOT
BRANCH   1   7
HETATM    7  C   UNL     1     -43.052 -52.622  12.914  1.00  0.00     0.152 A 
HETATM    8  N   UNL     1     -43.850 -53.167  12.027  1.00  0.00    -0.345 N 
HETATM    9  C   UNL     1     -45.155 -52.858  12.349  1.00  0.00     0.104 A 
ATOM     10  HN  UNL     1     -43.554 -53.728  11.229  1.00  0.00     0.167 HD
HETATM   11  C   UNL     1     -45.320 -52.047  13.457  1.00  0.00    -0.003 A 
HETATM   12  C   UNL     1     -46.562 -51.474  14.026  1.00  0.00     0.058 C 
HETATM   13  S   UNL     1     -43.789 -51.742  14.171  1.00  0.00    -0.058 SA
ENDBRANCH   1   7
BRANCH   4  14
HETATM   14  C   UNL     1     -40.722 -49.760  10.908  1.00  0.00     0.227 C 
BRANCH  14  15
HETATM   15  C   UNL     1     -40.857 -48.394  11.590  1.00  0.00     0.237 C 
HETATM   16  O   UNL     1     -40.248 -48.110  12.623  1.00  0.00    -0.272 OA
HETATM   17  N   UNL     1     -41.612 -47.459  10.901  1.00  0.00    -0.351 N 
HETATM   18  C   UNL     1     -41.755 -46.102  11.387  1.00  0.00     0.126 C 
HETATM   19  C   UNL     1     -42.602 -47.758   9.888  1.00  0.00     0.126 C 
HETATM   20  C   UNL     1     -42.735 -45.426  10.432  1.00  0.00     0.021 C 
HETATM   21  C   UNL     1     -42.932 -46.410   9.285  1.00  0.00     0.021 C 
ENDBRANCH  14  15
ENDBRANCH   4  14
TORSDOF 3
ENDMDL
MODEL 5
REMARK VINA RESULT:      -5.6      3.390      5.989
REMARK  3 active torsions:
REMARK  status: ('A' for Active; 'I' for Inactive)
REMARK    1  A    between atoms: C_6  and  N_7 
REMARK       I    between atoms: N_7  and  C_8 
REMARK       I    between atoms: C_8  and  N_10 
REMARK    2  A    between atoms: N_10  and  C_11 
REMARK    3  A    between atoms: C_11  and  C_12 
REMARK       I    between atoms: C_12  and  N_14 
ROOT
HETATM    1  N   UNL     1     -42.568 -53.208  12.639  1.00  0.00    -0.289 N 
HETATM    2  C   UNL     1     -41.601 -52.393  12.141  1.00  0.00     0.322 C 
HETATM    3  O   UNL     1     -40.447 -52.812  12.030  1.00  0.00    -0.247 OA
HETATM    4  N   UNL     1     -41.944 -51.101  11.890  1.00  0.00    -0.334 N 
HETATM    5  H   UNL     1     -42.264 -54.113  12.957  1.00  0.00     0.172 HD
HETATM    6  H   UNL     1     -42.928 -50.922  11.698  1.00  0.00     0.164 HD
ENDROOT
BRANCH   1   7
HETATM    7  C   UNL     1     -43.861 -52.838  12.867  1.00  0.00     0.152 A 
HETATM    8  N   UNL     1     -44.845 -52.762  12.004  1.00  0.00    -0.345 N 
HETATM    9  C   UNL     1     -45.973 -52.299  12.650  1.00  0.00     0.104 A 
ATOM     10  HN  UNL     1     -44.787 -53.006  11.016  1.00  0.00     0.167 HD
HETATM   11  C   UNL     1     -45.810 -51.994  13.989  1.00  0.00    -0.003 A 
HETATM   12  C   UNL     1     -46.782 -51.414  14.945  1.00  0.00     0.058 C 
HETATM   13  S   UNL     1     -44.211 -52.392  14.472  1.00  0.00    -0.058 SA
ENDBRANCH   1   7
BRANCH   4  14
HETATM   14  C   UNL     1     -40.973 -50.118  11.487  1.00  0.00     0.227 C 
BRANCH  14  15
HETATM   15  C   UNL     1     -40.557 -49.166  12.614  1.00  0.00     0.237 C 
HETATM   16  O   UNL     1     -40.362 -49.556  13.767  1.00  0.00    -0.272 OA
HETATM   17  N   UNL     1     -40.295 -47.863  12.225  1.00  0.00    -0.351 N 
HETATM   18  C   UNL     1     -39.813 -46.878  13.171  1.00  0.00     0.126 C 
HETATM   19  C   UNL     1     -40.780 -47.233  11.016  1.00  0.00     0.126 C 
HETATM   20  C   UNL     1     -39.756 -45.562  12.399  1.00  0.00     0.021 C 
HETATM   21  C   UNL     1     -40.010 -45.933  10.942  1.00  0.00     0.021 C 
ENDBRANCH  14  15
ENDBRANCH   4  14
TORSDOF 3
ENDMDL
MODEL 6
REMARK VINA RESULT:      -5.6      3.233      4.816
REMARK  3 active torsions:
REMARK  status: ('A' for Active; 'I' for Inactive)
REMARK    1  A    between atoms: C_6  and  N_7 
REMARK       I    between atoms: N_7  and  C_8 
REMARK       I    between atoms: C_8  and  N_10 
REMARK    2  A    between atoms: N_10  and  C_11 
REMARK    3  A    between atoms: C_11  and  C_12 
REMARK       I    between atoms: C_12  and  N_14 
ROOT
HETATM    1  N   UNL     1     -39.767 -51.891  12.353  1.00  0.00    -0.289 N 
HETATM    2  C   UNL     1     -40.492 -52.874  12.949  1.00  0.00     0.322 C 
HETATM    3  O   UNL     1     -39.974 -53.974  13.158  1.00  0.00    -0.247 OA
HETATM    4  N   UNL     1     -41.805 -52.620  13.188  1.00  0.00    -0.334 N 
HETATM    5  H   UNL     1     -38.841 -52.145  12.049  1.00  0.00     0.172 HD
HETATM    6  H   UNL     1     -42.067 -51.642  13.293  1.00  0.00     0.164 HD
ENDROOT
BRANCH   1   7
HETATM    7  C   UNL     1     -40.248 -50.661  12.013  1.00  0.00     0.152 A 
HETATM    8  N   UNL     1     -40.861 -50.309  10.909  1.00  0.00    -0.345 N 
HETATM    9  C   UNL     1     -41.134 -48.957  10.959  1.00  0.00     0.104 A 
ATOM     10  HN  UNL     1     -41.098 -50.933  10.138  1.00  0.00     0.167 HD
HETATM   11  C   UNL     1     -40.684 -48.300  12.089  1.00  0.00    -0.003 A 
HETATM   12  C   UNL     1     -40.744 -46.858  12.423  1.00  0.00     0.058 C 
HETATM   13  S   UNL     1     -39.980 -49.438  13.165  1.00  0.00    -0.058 SA
ENDBRANCH   1   7
BRANCH   4  14
HETATM   14  C   UNL     1     -42.699 -53.631  13.694  1.00  0.00     0.227 C 
BRANCH  14  15
HETATM   15  C   UNL     1     -44.131 -53.507  13.163  1.00  0.00     0.237 C 
HETATM   16  O   UNL     1     -44.548 -54.192  12.226  1.00  0.00    -0.272 OA
HETATM   17  N   UNL     1     -44.960 -52.665  13.884  1.00  0.00    -0.351 N 
HETATM   18  C   UNL     1     -46.361 -52.517  13.545  1.00  0.00     0.126 C 
HETATM   19  C   UNL     1     -44.522 -51.604  14.766  1.00  0.00     0.126 C 
HETATM   20  C   UNL     1     -46.897 -51.438  14.482  1.00  0.00     0.021 C 
HETATM   21  C   UNL     1     -45.782 -51.179  15.487  1.00  0.00     0.021 C 
ENDBRANCH  14  15
ENDBRANCH   4  14
TORSDOF 3
ENDMDL
MODEL 7
REMARK VINA RESULT:      -5.4      2.735      3.836
REMARK  3 active torsions:
REMARK  status: ('A' for Active; 'I' for Inactive)
REMARK    1  A    between atoms: C_6  and  N_7 
REMARK       I    between atoms: N_7  and  C_8 
REMARK       I    between atoms: C_8  and  N_10 
REMARK    2  A    between atoms: N_10  and  C_11 
REMARK    3  A    between atoms: C_11  and  C_12 
REMARK       I    between atoms: C_12  and  N_14 
ROOT
HETATM    1  N   UNL     1     -40.729 -50.676  11.047  1.00  0.00    -0.289 N 
HETATM    2  C   UNL     1     -41.063 -51.470  12.098  1.00  0.00     0.322 C 
HETATM    3  O   UNL     1     -40.886 -52.688  12.023  1.00  0.00    -0.247 OA
HETATM    4  N   UNL     1     -41.685 -50.878  13.152  1.00  0.00    -0.334 N 
HETATM    5  H   UNL     1     -40.407 -51.149  10.219  1.00  0.00     0.172 HD
HETATM    6  H   UNL     1     -41.507 -49.885  13.285  1.00  0.00     0.164 HD
ENDROOT
BRANCH   1   7
HETATM    7  C   UNL     1     -40.937 -49.329  10.988  1.00  0.00     0.152 A 
HETATM    8  N   UNL     1     -41.945 -48.689  10.446  1.00  0.00    -0.345 N 
HETATM    9  C   UNL     1     -41.731 -47.332  10.567  1.00  0.00     0.104 A 
ATOM     10  HN  UNL     1     -42.755 -49.124  10.006  1.00  0.00     0.167 HD
HETATM   11  C   UNL     1     -40.540 -46.967  11.167  1.00  0.00    -0.003 A 
HETATM   12  C   UNL     1     -39.972 -45.616  11.384  1.00  0.00     0.058 C 
HETATM   13  S   UNL     1     -39.706 -48.378  11.678  1.00  0.00    -0.058 SA
ENDBRANCH   1   7
BRANCH   4  14
HETATM   14  C   UNL     1     -42.200 -51.640  14.261  1.00  0.00     0.227 C 
BRANCH  14  15
HETATM   15  C   UNL     1     -43.728 -51.606  14.373  1.00  0.00     0.237 C 
HETATM   16  O   UNL     1     -44.361 -50.549  14.422  1.00  0.00    -0.272 OA
HETATM   17  N   UNL     1     -44.357 -52.837  14.291  1.00  0.00    -0.351 N 
HETATM   18  C   UNL     1     -45.801 -52.945  14.299  1.00  0.00     0.126 C 
HETATM   19  C   UNL     1     -43.736 -54.118  14.549  1.00  0.00     0.126 C 
HETATM   20  C   UNL     1     -46.100 -54.442  14.308  1.00  0.00     0.021 C 
HETATM   21  C   UNL     1     -44.758 -55.127  14.074  1.00  0.00     0.021 C 
ENDBRANCH  14  15
ENDBRANCH   4  14
TORSDOF 3
ENDMDL
MODEL 8
REMARK VINA RESULT:      -5.4      4.370      6.455
REMARK  3 active torsions:
REMARK  status: ('A' for Active; 'I' for Inactive)
REMARK    1  A    between atoms: C_6  and  N_7 
REMARK       I    between atoms: N_7  and  C_8 
REMARK       I    between atoms: C_8  and  N_10 
REMARK    2  A    between atoms: N_10  and  C_11 
REMARK    3  A    between atoms: C_11  and  C_12 
REMARK       I    between atoms: C_12  and  N_14 
ROOT
HETATM    1  N   UNL     1     -43.305 -53.191  11.948  1.00  0.00    -0.289 N 
HETATM    2  C   UNL     1     -44.113 -53.754  12.883  1.00  0.00     0.322 C 
HETATM    3  O   UNL     1     -44.972 -54.569  12.538  1.00  0.00    -0.247 OA
HETATM    4  N   UNL     1     -44.001 -53.298  14.159  1.00  0.00    -0.334 N 
HETATM    5  H   UNL     1     -43.502 -53.431  10.990  1.00  0.00     0.172 HD
HETATM    6  H   UNL     1     -43.103 -52.895  14.419  1.00  0.00     0.164 HD
ENDROOT
BRANCH   1   7
HETATM    7  C   UNL     1     -42.366 -52.234  12.199  1.00  0.00     0.152 A 
HETATM    8  N   UNL     1     -42.505 -50.931  12.147  1.00  0.00    -0.345 N 
HETATM    9  C   UNL     1     -41.291 -50.339  12.427  1.00  0.00     0.104 A 
ATOM     10  HN  UNL     1     -43.371 -50.436  11.934  1.00  0.00     0.167 HD
HETATM   11  C   UNL     1     -40.240 -51.210  12.648  1.00  0.00    -0.003 A 
HETATM   12  C   UNL     1     -38.810 -50.913  12.897  1.00  0.00     0.058 C 
HETATM   13  S   UNL     1     -40.820 -52.825  12.594  1.00  0.00    -0.058 SA
ENDBRANCH   1   7
BRANCH   4  14
HETATM   14  C   UNL     1     -44.893 -53.726  15.205  1.00  0.00     0.227 C 
BRANCH  14  15
HETATM   15  C   UNL     1     -46.197 -52.923  15.267  1.00  0.00     0.237 C 
HETATM   16  O   UNL     1     -47.124 -53.109  14.475  1.00  0.00    -0.272 OA
HETATM   17  N   UNL     1     -46.314 -52.064  16.347  1.00  0.00    -0.351 N 
HETATM   18  C   UNL     1     -47.527 -51.306  16.576  1.00  0.00     0.126 C 
HETATM   19  C   UNL     1     -45.214 -51.539  17.128  1.00  0.00     0.126 C 
HETATM   20  C   UNL     1     -47.228 -50.408  17.774  1.00  0.00     0.021 C 
HETATM   21  C   UNL     1     -45.884 -50.883  18.315  1.00  0.00     0.021 C 
ENDBRANCH  14  15
ENDBRANCH   4  14
TORSDOF 3
ENDMDL
MODEL 9
REMARK VINA RESULT:      -5.2      2.585      3.465
REMARK  3 active torsions:
REMARK  status: ('A' for Active; 'I' for Inactive)
REMARK    1  A    between atoms: C_6  and  N_7 
REMARK       I    between atoms: N_7  and  C_8 
REMARK       I    between atoms: C_8  and  N_10 
REMARK    2  A    between atoms: N_10  and  C_11 
REMARK    3  A    between atoms: C_11  and  C_12 
REMARK       I    between atoms: C_12  and  N_14 
ROOT
HETATM    1  N   UNL     1     -39.759 -48.471  11.311  1.00  0.00    -0.289 N 
HETATM    2  C   UNL     1     -39.969 -49.520  12.148  1.00  0.00     0.322 C 
HETATM    3  O   UNL     1     -39.082 -50.363  12.305  1.00  0.00    -0.247 OA
HETATM    4  N   UNL     1     -41.208 -49.644  12.692  1.00  0.00    -0.334 N 
HETATM    5  H   UNL     1     -38.890 -48.475  10.803  1.00  0.00     0.172 HD
HETATM    6  H   UNL     1     -41.752 -48.789  12.783  1.00  0.00     0.164 HD
ENDROOT
BRANCH   1   7
HETATM    7  C   UNL     1     -40.684 -47.515  11.008  1.00  0.00     0.152 A 
HETATM    8  N   UNL     1     -41.567 -47.522  10.038  1.00  0.00    -0.345 N 
HETATM    9  C   UNL     1     -42.271 -46.336  10.065  1.00  0.00     0.104 A 
ATOM     10  HN  UNL     1     -41.710 -48.281   9.372  1.00  0.00     0.167 HD
HETATM   11  C   UNL     1     -41.880 -45.432  11.035  1.00  0.00    -0.003 A 
HETATM   12  C   UNL     1     -42.368 -44.056  11.289  1.00  0.00     0.058 C 
HETATM   13  S   UNL     1     -40.650 -46.135  12.004  1.00  0.00    -0.058 SA
ENDBRANCH   1   7
BRANCH   4  14
HETATM   14  C   UNL     1     -41.583 -50.786  13.487  1.00  0.00     0.227 C 
BRANCH  14  15
HETATM   15  C   UNL     1     -42.387 -51.836  12.713  1.00  0.00     0.237 C 
HETATM   16  O   UNL     1     -41.852 -52.649  11.956  1.00  0.00    -0.272 OA
HETATM   17  N   UNL     1     -43.737 -51.892  13.016  1.00  0.00    -0.351 N 
HETATM   18  C   UNL     1     -44.600 -52.891  12.422  1.00  0.00     0.126 C 
HETATM   19  C   UNL     1     -44.509 -50.825  13.618  1.00  0.00     0.126 C 
HETATM   20  C   UNL     1     -46.008 -52.558  12.909  1.00  0.00     0.021 C 
HETATM   21  C   UNL     1     -45.829 -51.477  13.969  1.00  0.00     0.021 C 
ENDBRANCH  14  15
ENDBRANCH   4  14
TORSDOF 3
ENDMDL
