MODEL 1
REMARK VINA RESULT:      -6.4      0.000      0.000
REMARK  5 active torsions:
REMARK  status: ('A' for Active; 'I' for Inactive)
REMARK    1  A    between atoms: C_8  and  N_9 
REMARK       I    between atoms: N_9  and  C_10 
REMARK       I    between atoms: C_10  and  N_12 
REMARK    2  A    between atoms: N_12  and  C_13 
REMARK    3  A    between atoms: C_13  and  C_14 
REMARK    4  A    between atoms: C_14  and  C_15 
REMARK    5  A    between atoms: C_15  and  N_16 
ROOT
HETATM    1  N   UNL     1     -42.657 -52.525  11.853  1.00  0.00    -0.307 N 
HETATM    2  C   UNL     1     -42.013 -51.370  12.254  1.00  0.00     0.320 C 
HETATM    3  O   UNL     1     -42.117 -50.840  13.354  1.00  0.00    -0.247 OA
HETATM    4  N   UNL     1     -41.179 -50.827  11.297  1.00  0.00    -0.343 N 
HETATM    5  H   UNL     1     -42.399 -52.910  10.959  1.00  0.00     0.170 HD
HETATM    6  H   UNL     1     -41.416 -50.995  10.331  1.00  0.00     0.164 HD
ENDROOT
BRANCH   1   7
HETATM    7  C   UNL     1     -43.591 -53.254  12.651  1.00  0.00     0.057 A 
HETATM    8  C   UNL     1     -43.161 -54.162  13.639  1.00  0.00    -0.033 A 
HETATM    9  C   UNL     1     -41.719 -54.453  13.941  1.00  0.00     0.050 C 
HETATM   10  C   UNL     1     -44.134 -54.857  14.387  1.00  0.00     0.026 A 
HETATM   11  C   UNL     1     -45.480 -54.635  14.147  1.00  0.00     0.088 A 
HETATM   12  N   UNL     1     -45.926 -53.775  13.225  1.00  0.00    -0.373 N 
HETATM   13  C   UNL     1     -44.979 -53.113  12.510  1.00  0.00     0.117 A 
ATOM     14  HN  UNL     1     -46.922 -53.624  13.067  1.00  0.00     0.164 HD
ENDBRANCH   1   7
BRANCH   4  15
HETATM   15  C   UNL     1     -40.556 -49.558  11.656  1.00  0.00     0.126 C 
BRANCH  15  16
HETATM   16  C   UNL     1     -40.974 -48.349  10.837  1.00  0.00     0.039 C 
BRANCH  16  17
HETATM   17  C   UNL     1     -42.240 -47.675  11.372  1.00  0.00     0.127 C 
BRANCH  17  18
HETATM   18  N   UNL     1     -43.087 -47.206  10.288  1.00  0.00    -0.352 N 
HETATM   19  C   UNL     1     -44.412 -47.727  10.074  1.00  0.00     0.126 C 
HETATM   20  C   UNL     1     -45.029 -46.814   9.030  1.00  0.00     0.029 C 
HETATM   21  C   UNL     1     -44.160 -45.564   9.007  1.00  0.00     0.104 C 
HETATM   22  C   UNL     1     -42.882 -45.974   9.687  1.00  0.00     0.219 C 
HETATM   23  O   UNL     1     -41.875 -45.291   9.769  1.00  0.00    -0.273 OA
ENDBRANCH  17  18
ENDBRANCH  16  17
ENDBRANCH  15  16
ENDBRANCH   4  15
TORSDOF 5
ENDMDL
MODEL 2
REMARK VINA RESULT:      -6.4      3.090      5.156
REMARK  5 active torsions:
REMARK  status: ('A' for Active; 'I' for Inactive)
REMARK    1  A    between atoms: C_8  and  N_9 
REMARK       I    between atoms: N_9  and  C_10 
REMARK       I    between atoms: C_10  and  N_12 
REMARK    2  A    between atoms: N_12  and  C_13 
REMARK    3  A    between atoms: C_13  and  C_14 
REMARK    4  A    between atoms: C_14  and  C_15 
REMARK    5  A    between atoms: C_15  and  N_16 
ROOT
HETATM    1  N   UNL     1     -42.202 -52.878  12.133  1.00  0.00    -0.307 N 
HETATM    2  C   UNL     1     -41.853 -51.540  12.136  1.00  0.00     0.320 C 
HETATM    3  O   UNL     1     -42.406 -50.661  12.785  1.00  0.00    -0.247 OA
HETATM    4  N   UNL     1     -40.769 -51.237  11.336  1.00  0.00    -0.343 N 
HETATM    5  H   UNL     1     -41.596 -53.511  11.636  1.00  0.00     0.170 HD
HETATM    6  H   UNL     1     -40.611 -51.826  10.533  1.00  0.00     0.164 HD
ENDROOT
BRANCH   1   7
HETATM    7  C   UNL     1     -43.303 -53.433  12.853  1.00  0.00     0.057 A 
HETATM    8  C   UNL     1     -43.106 -54.202  14.018  1.00  0.00    -0.033 A 
HETATM    9  C   UNL     1     -41.757 -54.513  14.600  1.00  0.00     0.050 C 
HETATM   10  C   UNL     1     -44.236 -54.729  14.677  1.00  0.00     0.026 A 
HETATM   11  C   UNL     1     -45.506 -54.481  14.182  1.00  0.00     0.088 A 
HETATM   12  N   UNL     1     -45.732 -53.749  13.086  1.00  0.00    -0.373 N 
HETATM   13  C   UNL     1     -44.636 -53.249  12.458  1.00  0.00     0.117 A 
ATOM     14  HN  UNL     1     -46.675 -53.575  12.740  1.00  0.00     0.164 HD
ENDBRANCH   1   7
BRANCH   4  15
HETATM   15  C   UNL     1     -40.433 -49.821  11.247  1.00  0.00     0.126 C 
BRANCH  15  16
HETATM   16  C   UNL     1     -39.167 -49.385  11.962  1.00  0.00     0.039 C 
BRANCH  16  17
HETATM   17  C   UNL     1     -38.149 -50.517  12.120  1.00  0.00     0.127 C 
BRANCH  17  18
HETATM   18  N   UNL     1     -38.027 -50.929  13.508  1.00  0.00    -0.352 N 
HETATM   19  C   UNL     1     -37.671 -50.003  14.551  1.00  0.00     0.126 C 
HETATM   20  C   UNL     1     -37.896 -50.764  15.845  1.00  0.00     0.029 C 
HETATM   21  C   UNL     1     -38.768 -51.957  15.478  1.00  0.00     0.104 C 
HETATM   22  C   UNL     1     -38.647 -52.074  13.983  1.00  0.00     0.219 C 
HETATM   23  O   UNL     1     -39.103 -52.980  13.307  1.00  0.00    -0.273 OA
ENDBRANCH  17  18
ENDBRANCH  16  17
ENDBRANCH  15  16
ENDBRANCH   4  15
TORSDOF 5
ENDMDL
MODEL 3
REMARK VINA RESULT:      -6.3      3.004      6.759
REMARK  5 active torsions:
REMARK  status: ('A' for Active; 'I' for Inactive)
REMARK    1  A    between atoms: C_8  and  N_9 
REMARK       I    between atoms: N_9  and  C_10 
REMARK       I    between atoms: C_10  and  N_12 
REMARK    2  A    between atoms: N_12  and  C_13 
REMARK    3  A    between atoms: C_13  and  C_14 
REMARK    4  A    between atoms: C_14  and  C_15 
REMARK    5  A    between atoms: C_15  and  N_16 
ROOT
HETATM    1  N   UNL     1     -41.956 -51.421  11.875  1.00  0.00    -0.307 N 
HETATM    2  C   UNL     1     -41.900 -52.343  12.904  1.00  0.00     0.320 C 
HETATM    3  O   UNL     1     -41.291 -52.202  13.957  1.00  0.00    -0.247 OA
HETATM    4  N   UNL     1     -42.632 -53.491  12.672  1.00  0.00    -0.343 N 
HETATM    5  H   UNL     1     -42.580 -51.619  11.111  1.00  0.00     0.170 HD
HETATM    6  H   UNL     1     -42.755 -53.773  11.712  1.00  0.00     0.164 HD
ENDROOT
BRANCH   1   7
HETATM    7  C   UNL     1     -41.261 -50.172  11.865  1.00  0.00     0.057 A 
HETATM    8  C   UNL     1     -41.831 -49.010  12.423  1.00  0.00    -0.033 A 
HETATM    9  C   UNL     1     -43.189 -48.966  13.062  1.00  0.00     0.050 C 
HETATM   10  C   UNL     1     -41.096 -47.808  12.371  1.00  0.00     0.026 A 
HETATM   11  C   UNL     1     -39.841 -47.787  11.787  1.00  0.00     0.088 A 
HETATM   12  N   UNL     1     -39.265 -48.871  11.256  1.00  0.00    -0.373 N 
HETATM   13  C   UNL     1     -39.983 -50.023  11.309  1.00  0.00     0.117 A 
ATOM     14  HN  UNL     1     -38.337 -48.835  10.833  1.00  0.00     0.164 HD
ENDBRANCH   1   7
BRANCH   4  15
HETATM   15  C   UNL     1     -42.520 -54.522  13.697  1.00  0.00     0.126 C 
BRANCH  15  16
HETATM   16  C   UNL     1     -43.671 -54.616  14.684  1.00  0.00     0.039 C 
BRANCH  16  17
HETATM   17  C   UNL     1     -45.023 -54.843  14.004  1.00  0.00     0.127 C 
BRANCH  17  18
HETATM   18  N   UNL     1     -45.894 -53.690  14.160  1.00  0.00    -0.352 N 
HETATM   19  C   UNL     1     -46.311 -53.216  15.453  1.00  0.00     0.126 C 
HETATM   20  C   UNL     1     -46.983 -51.882  15.185  1.00  0.00     0.029 C 
HETATM   21  C   UNL     1     -46.545 -51.471  13.786  1.00  0.00     0.104 C 
HETATM   22  C   UNL     1     -46.019 -52.735  13.163  1.00  0.00     0.219 C 
HETATM   23  O   UNL     1     -45.677 -52.859  11.999  1.00  0.00    -0.273 OA
ENDBRANCH  17  18
ENDBRANCH  16  17
ENDBRANCH  15  16
ENDBRANCH   4  15
TORSDOF 5
ENDMDL
MODEL 4
REMARK VINA RESULT:      -6.3      3.892      6.870
REMARK  5 active torsions:
REMARK  status: ('A' for Active; 'I' for Inactive)
REMARK    1  A    between atoms: C_8  and  N_9 
REMARK       I    between atoms: N_9  and  C_10 
REMARK       I    between atoms: C_10  and  N_12 
REMARK    2  A    between atoms: N_12  and  C_13 
REMARK    3  A    between atoms: C_13  and  C_14 
REMARK    4  A    between atoms: C_14  and  C_15 
REMARK    5  A    between atoms: C_15  and  N_16 
ROOT
HETATM    1  N   UNL     1     -41.094 -51.413  13.194  1.00  0.00    -0.307 N 
HETATM    2  C   UNL     1     -41.483 -52.736  13.092  1.00  0.00     0.320 C 
HETATM    3  O   UNL     1     -40.832 -53.632  12.570  1.00  0.00    -0.247 OA
HETATM    4  N   UNL     1     -42.708 -53.010  13.666  1.00  0.00    -0.343 N 
HETATM    5  H   UNL     1     -41.677 -50.802  13.743  1.00  0.00     0.170 HD
HETATM    6  H   UNL     1     -43.381 -52.259  13.696  1.00  0.00     0.164 HD
ENDROOT
BRANCH   1   7
HETATM    7  C   UNL     1     -39.885 -50.877  12.654  1.00  0.00     0.057 A 
HETATM    8  C   UNL     1     -38.672 -50.934  13.369  1.00  0.00    -0.033 A 
HETATM    9  C   UNL     1     -38.532 -51.541  14.735  1.00  0.00     0.050 C 
HETATM   10  C   UNL     1     -37.517 -50.377  12.783  1.00  0.00     0.026 A 
HETATM   11  C   UNL     1     -37.588 -49.797  11.527  1.00  0.00     0.088 A 
HETATM   12  N   UNL     1     -38.718 -49.733  10.815  1.00  0.00    -0.373 N 
HETATM   13  C   UNL     1     -39.825 -50.270  11.391  1.00  0.00     0.117 A 
ATOM     14  HN  UNL     1     -38.747 -49.305   9.890  1.00  0.00     0.164 HD
ENDBRANCH   1   7
BRANCH   4  15
HETATM   15  C   UNL     1     -43.188 -54.376  13.496  1.00  0.00     0.126 C 
BRANCH  15  16
HETATM   16  C   UNL     1     -44.175 -54.876  14.536  1.00  0.00     0.039 C 
BRANCH  16  17
HETATM   17  C   UNL     1     -45.618 -54.906  14.025  1.00  0.00     0.127 C 
BRANCH  17  18
HETATM   18  N   UNL     1     -46.265 -53.616  14.190  1.00  0.00    -0.352 N 
HETATM   19  C   UNL     1     -46.518 -53.048  15.489  1.00  0.00     0.126 C 
HETATM   20  C   UNL     1     -46.964 -51.624  15.215  1.00  0.00     0.029 C 
HETATM   21  C   UNL     1     -46.541 -51.325  13.783  1.00  0.00     0.104 C 
HETATM   22  C   UNL     1     -46.280 -52.675  13.173  1.00  0.00     0.219 C 
HETATM   23  O   UNL     1     -46.033 -52.882  11.996  1.00  0.00    -0.273 OA
ENDBRANCH  17  18
ENDBRANCH  16  17
ENDBRANCH  15  16
ENDBRANCH   4  15
TORSDOF 5
ENDMDL
MODEL 5
REMARK VINA RESULT:      -6.2      1.578      2.288
REMARK  5 active torsions:
REMARK  status: ('A' for Active; 'I' for Inactive)
REMARK    1  A    between atoms: C_8  and  N_9 
REMARK       I    between atoms: N_9  and  C_10 
REMARK       I    between atoms: C_10  and  N_12 
REMARK    2  A    between atoms: N_12  and  C_13 
REMARK    3  A    between atoms: C_13  and  C_14 
REMARK    4  A    between atoms: C_14  and  C_15 
REMARK    5  A    between atoms: C_15  and  N_16 
ROOT
HETATM    1  N   UNL     1     -42.645 -52.694  11.951  1.00  0.00    -0.307 N 
HETATM    2  C   UNL     1     -42.014 -51.504  12.262  1.00  0.00     0.320 C 
HETATM    3  O   UNL     1     -42.202 -50.839  13.274  1.00  0.00    -0.247 OA
HETATM    4  N   UNL     1     -41.088 -51.094  11.323  1.00  0.00    -0.343 N 
HETATM    5  H   UNL     1     -42.318 -53.191  11.138  1.00  0.00     0.170 HD
HETATM    6  H   UNL     1     -41.243 -51.379  10.368  1.00  0.00     0.164 HD
ENDROOT
BRANCH   1   7
HETATM    7  C   UNL     1     -43.660 -53.307  12.747  1.00  0.00     0.057 A 
HETATM    8  C   UNL     1     -43.337 -54.177  13.808  1.00  0.00    -0.033 A 
HETATM    9  C   UNL     1     -41.932 -54.541  14.195  1.00  0.00     0.050 C 
HETATM   10  C   UNL     1     -44.387 -54.757  14.549  1.00  0.00     0.026 A 
HETATM   11  C   UNL     1     -45.703 -54.464  14.231  1.00  0.00     0.088 A 
HETATM   12  N   UNL     1     -46.048 -53.637  13.239  1.00  0.00    -0.373 N 
HETATM   13  C   UNL     1     -45.028 -53.086  12.531  1.00  0.00     0.117 A 
ATOM     14  HN  UNL     1     -47.024 -53.431  13.024  1.00  0.00     0.164 HD
ENDBRANCH   1   7
BRANCH   4  15
HETATM   15  C   UNL     1     -40.472 -49.797  11.577  1.00  0.00     0.126 C 
BRANCH  15  16
HETATM   16  C   UNL     1     -41.020 -48.626  10.779  1.00  0.00     0.039 C 
BRANCH  16  17
HETATM   17  C   UNL     1     -41.800 -47.629  11.641  1.00  0.00     0.127 C 
BRANCH  17  18
HETATM   18  N   UNL     1     -41.142 -46.334  11.678  1.00  0.00    -0.352 N 
HETATM   19  C   UNL     1     -40.024 -46.070  12.546  1.00  0.00     0.126 C 
HETATM   20  C   UNL     1     -39.493 -44.719  12.102  1.00  0.00     0.029 C 
HETATM   21  C   UNL     1     -40.089 -44.473  10.722  1.00  0.00     0.104 C 
HETATM   22  C   UNL     1     -41.236 -45.441  10.623  1.00  0.00     0.219 C 
HETATM   23  O   UNL     1     -42.048 -45.481   9.714  1.00  0.00    -0.273 OA
ENDBRANCH  17  18
ENDBRANCH  16  17
ENDBRANCH  15  16
ENDBRANCH   4  15
TORSDOF 5
ENDMDL
MODEL 6
REMARK VINA RESULT:      -6.2      2.312      7.128
REMARK  5 active torsions:
REMARK  status: ('A' for Active; 'I' for Inactive)
REMARK    1  A    between atoms: C_8  and  N_9 
REMARK       I    between atoms: N_9  and  C_10 
REMARK       I    between atoms: C_10  and  N_12 
REMARK    2  A    between atoms: N_12  and  C_13 
REMARK    3  A    between atoms: C_13  and  C_14 
REMARK    4  A    between atoms: C_14  and  C_15 
REMARK    5  A    between atoms: C_15  and  N_16 
ROOT
HETATM    1  N   UNL     1     -40.806 -50.511  10.968  1.00  0.00    -0.307 N 
HETATM    2  C   UNL     1     -41.304 -51.279  12.005  1.00  0.00     0.320 C 
HETATM    3  O   UNL     1     -41.804 -50.847  13.036  1.00  0.00    -0.247 OA
HETATM    4  N   UNL     1     -41.221 -52.640  11.789  1.00  0.00    -0.343 N 
HETATM    5  H   UNL     1     -40.520 -50.994  10.132  1.00  0.00     0.170 HD
HETATM    6  H   UNL     1     -40.473 -52.968  11.196  1.00  0.00     0.164 HD
ENDROOT
BRANCH   1   7
HETATM    7  C   UNL     1     -40.752 -49.083  10.967  1.00  0.00     0.057 A 
HETATM    8  C   UNL     1     -39.715 -48.387  11.620  1.00  0.00    -0.033 A 
HETATM    9  C   UNL     1     -38.596 -49.056  12.366  1.00  0.00     0.050 C 
HETATM   10  C   UNL     1     -39.725 -46.977  11.589  1.00  0.00     0.026 A 
HETATM   11  C   UNL     1     -40.737 -46.307  10.922  1.00  0.00     0.088 A 
HETATM   12  N   UNL     1     -41.731 -46.933  10.284  1.00  0.00    -0.373 N 
HETATM   13  C   UNL     1     -41.712 -48.291  10.322  1.00  0.00     0.117 A 
ATOM     14  HN  UNL     1     -42.464 -46.419   9.795  1.00  0.00     0.164 HD
ENDBRANCH   1   7
BRANCH   4  15
HETATM   15  C   UNL     1     -41.653 -53.478  12.901  1.00  0.00     0.126 C 
BRANCH  15  16
HETATM   16  C   UNL     1     -43.118 -53.880  12.909  1.00  0.00     0.039 C 
BRANCH  16  17
HETATM   17  C   UNL     1     -43.678 -54.066  14.321  1.00  0.00     0.127 C 
BRANCH  17  18
HETATM   18  N   UNL     1     -44.779 -53.152  14.578  1.00  0.00    -0.352 N 
HETATM   19  C   UNL     1     -45.041 -52.015  13.734  1.00  0.00     0.126 C 
HETATM   20  C   UNL     1     -46.389 -51.489  14.192  1.00  0.00     0.029 C 
HETATM   21  C   UNL     1     -47.018 -52.611  15.006  1.00  0.00     0.104 C 
HETATM   22  C   UNL     1     -45.873 -53.529  15.339  1.00  0.00     0.219 C 
HETATM   23  O   UNL     1     -45.936 -54.493  16.084  1.00  0.00    -0.273 OA
ENDBRANCH  17  18
ENDBRANCH  16  17
ENDBRANCH  15  16
ENDBRANCH   4  15
TORSDOF 5
ENDMDL
MODEL 7
REMARK VINA RESULT:      -6.0      2.077      6.931
REMARK  5 active torsions:
REMARK  status: ('A' for Active; 'I' for Inactive)
REMARK    1  A    between atoms: C_8  and  N_9 
REMARK       I    between atoms: N_9  and  C_10 
REMARK       I    between atoms: C_10  and  N_12 
REMARK    2  A    between atoms: N_12  and  C_13 
REMARK    3  A    between atoms: C_13  and  C_14 
REMARK    4  A    between atoms: C_14  and  C_15 
REMARK    5  A    between atoms: C_15  and  N_16 
ROOT
HETATM    1  N   UNL     1     -41.105 -48.872  10.568  1.00  0.00    -0.307 N 
HETATM    2  C   UNL     1     -41.137 -49.778  11.612  1.00  0.00     0.320 C 
HETATM    3  O   UNL     1     -41.319 -49.502  12.791  1.00  0.00    -0.247 OA
HETATM    4  N   UNL     1     -40.964 -51.092  11.223  1.00  0.00    -0.343 N 
HETATM    5  H   UNL     1     -41.053 -49.245   9.634  1.00  0.00     0.170 HD
HETATM    6  H   UNL     1     -40.419 -51.258  10.392  1.00  0.00     0.164 HD
ENDROOT
BRANCH   1   7
HETATM    7  C   UNL     1     -41.229 -47.456  10.717  1.00  0.00     0.057 A 
HETATM    8  C   UNL     1     -42.469 -46.806  10.553  1.00  0.00    -0.033 A 
HETATM    9  C   UNL     1     -43.747 -47.514  10.208  1.00  0.00     0.050 C 
HETATM   10  C   UNL     1     -42.521 -45.405  10.704  1.00  0.00     0.026 A 
HETATM   11  C   UNL     1     -41.371 -44.698  11.014  1.00  0.00     0.088 A 
HETATM   12  N   UNL     1     -40.180 -45.281  11.187  1.00  0.00    -0.373 N 
HETATM   13  C   UNL     1     -40.141 -46.631  11.036  1.00  0.00     0.117 A 
ATOM     14  HN  UNL     1     -39.346 -44.742  11.419  1.00  0.00     0.164 HD
ENDBRANCH   1   7
BRANCH   4  15
HETATM   15  C   UNL     1     -40.902 -52.063  12.309  1.00  0.00     0.126 C 
BRANCH  15  16
HETATM   16  C   UNL     1     -42.147 -52.904  12.530  1.00  0.00     0.039 C 
BRANCH  16  17
HETATM   17  C   UNL     1     -42.923 -52.504  13.787  1.00  0.00     0.127 C 
BRANCH  17  18
HETATM   18  N   UNL     1     -44.275 -52.081  13.462  1.00  0.00    -0.352 N 
HETATM   19  C   UNL     1     -45.106 -52.817  12.545  1.00  0.00     0.126 C 
HETATM   20  C   UNL     1     -46.484 -52.197  12.680  1.00  0.00     0.029 C 
HETATM   21  C   UNL     1     -46.456 -51.403  13.979  1.00  0.00     0.104 C 
HETATM   22  C   UNL     1     -44.995 -51.244  14.299  1.00  0.00     0.219 C 
HETATM   23  O   UNL     1     -44.541 -50.564  15.203  1.00  0.00    -0.273 OA
ENDBRANCH  17  18
ENDBRANCH  16  17
ENDBRANCH  15  16
ENDBRANCH   4  15
TORSDOF 5
ENDMDL
MODEL 8
REMARK VINA RESULT:      -5.7      2.041      2.563
REMARK  5 active torsions:
REMARK  status: ('A' for Active; 'I' for Inactive)
REMARK    1  A    between atoms: C_8  and  N_9 
REMARK       I    between atoms: N_9  and  C_10 
REMARK       I    between atoms: C_10  and  N_12 
REMARK    2  A    between atoms: N_12  and  C_13 
REMARK    3  A    between atoms: C_13  and  C_14 
REMARK    4  A    between atoms: C_14  and  C_15 
REMARK    5  A    between atoms: C_15  and  N_16 
ROOT
HETATM    1  N   UNL     1     -42.519 -52.631  11.851  1.00  0.00    -0.307 N 
HETATM    2  C   UNL     1     -41.919 -51.425  12.158  1.00  0.00     0.320 C 
HETATM    3  O   UNL     1     -42.103 -50.776  13.180  1.00  0.00    -0.247 OA
HETATM    4  N   UNL     1     -41.030 -50.977  11.201  1.00  0.00    -0.343 N 
HETATM    5  H   UNL     1     -42.197 -53.110  11.025  1.00  0.00     0.170 HD
HETATM    6  H   UNL     1     -41.200 -51.258  10.247  1.00  0.00     0.164 HD
ENDROOT
BRANCH   1   7
HETATM    7  C   UNL     1     -43.495 -53.285  12.665  1.00  0.00     0.057 A 
HETATM    8  C   UNL     1     -43.117 -54.149  13.713  1.00  0.00    -0.033 A 
HETATM    9  C   UNL     1     -41.692 -54.466  14.066  1.00  0.00     0.050 C 
HETATM   10  C   UNL     1     -44.130 -54.770  14.473  1.00  0.00     0.026 A 
HETATM   11  C   UNL     1     -45.462 -54.520  14.188  1.00  0.00     0.088 A 
HETATM   12  N   UNL     1     -45.857 -53.700  13.209  1.00  0.00    -0.373 N 
HETATM   13  C   UNL     1     -44.874 -53.109  12.481  1.00  0.00     0.117 A 
ATOM     14  HN  UNL     1     -46.844 -53.527  13.018  1.00  0.00     0.164 HD
ENDBRANCH   1   7
BRANCH   4  15
HETATM   15  C   UNL     1     -40.450 -49.663  11.452  1.00  0.00     0.126 C 
BRANCH  15  16
HETATM   16  C   UNL     1     -41.131 -48.487  10.774  1.00  0.00     0.039 C 
BRANCH  16  17
HETATM   17  C   UNL     1     -40.608 -47.133  11.259  1.00  0.00     0.127 C 
BRANCH  17  18
HETATM   18  N   UNL     1     -41.357 -46.658  12.411  1.00  0.00    -0.352 N 
HETATM   19  C   UNL     1     -42.791 -46.537  12.393  1.00  0.00     0.126 C 
HETATM   20  C   UNL     1     -43.180 -46.259  13.833  1.00  0.00     0.029 C 
HETATM   21  C   UNL     1     -41.970 -46.648  14.672  1.00  0.00     0.104 C 
HETATM   22  C   UNL     1     -40.830 -46.712  13.692  1.00  0.00     0.219 C 
HETATM   23  O   UNL     1     -39.657 -46.877  13.983  1.00  0.00    -0.273 OA
ENDBRANCH  17  18
ENDBRANCH  16  17
ENDBRANCH  15  16
ENDBRANCH   4  15
TORSDOF 5
ENDMDL
MODEL 9
REMARK VINA RESULT:      -5.7      3.749      5.067
REMARK  5 active torsions:
REMARK  status: ('A' for Active; 'I' for Inactive)
REMARK    1  A    between atoms: C_8  and  N_9 
REMARK       I    between atoms: N_9  and  C_10 
REMARK       I    between atoms: C_10  and  N_12 
REMARK    2  A    between atoms: N_12  and  C_13 
REMARK    3  A    between atoms: C_13  and  C_14 
REMARK    4  A    between atoms: C_14  and  C_15 
REMARK    5  A    between atoms: C_15  and  N_16 
ROOT
HETATM    1  N   UNL     1     -43.248 -53.571  13.021  1.00  0.00    -0.307 N 
HETATM    2  C   UNL     1     -42.171 -54.014  13.766  1.00  0.00     0.320 C 
HETATM    3  O   UNL     1     -42.202 -54.324  14.951  1.00  0.00    -0.247 OA
HETATM    4  N   UNL     1     -40.994 -54.115  13.052  1.00  0.00    -0.343 N 
HETATM    5  H   UNL     1     -43.107 -53.452  12.031  1.00  0.00     0.170 HD
HETATM    6  H   UNL     1     -40.877 -53.493  12.267  1.00  0.00     0.164 HD
ENDROOT
BRANCH   1   7
HETATM    7  C   UNL     1     -44.562 -53.355  13.540  1.00  0.00     0.057 A 
HETATM    8  C   UNL     1     -45.038 -52.058  13.819  1.00  0.00    -0.033 A 
HETATM    9  C   UNL     1     -44.233 -50.807  13.613  1.00  0.00     0.050 C 
HETATM   10  C   UNL     1     -46.341 -51.916  14.339  1.00  0.00     0.026 A 
HETATM   11  C   UNL     1     -47.126 -53.035  14.558  1.00  0.00     0.088 A 
HETATM   12  N   UNL     1     -46.712 -54.280  14.296  1.00  0.00    -0.373 N 
HETATM   13  C   UNL     1     -45.455 -54.405  13.798  1.00  0.00     0.117 A 
ATOM     14  HN  UNL     1     -47.309 -55.091  14.461  1.00  0.00     0.164 HD
ENDBRANCH   1   7
BRANCH   4  15
HETATM   15  C   UNL     1     -39.820 -54.492  13.830  1.00  0.00     0.126 C 
BRANCH  15  16
HETATM   16  C   UNL     1     -38.764 -53.416  14.017  1.00  0.00     0.039 C 
BRANCH  16  17
HETATM   17  C   UNL     1     -39.339 -52.104  14.558  1.00  0.00     0.127 C 
BRANCH  17  18
HETATM   18  N   UNL     1     -39.059 -50.995  13.661  1.00  0.00    -0.352 N 
HETATM   19  C   UNL     1     -37.763 -50.372  13.598  1.00  0.00     0.126 C 
HETATM   20  C   UNL     1     -37.827 -49.454  12.391  1.00  0.00     0.029 C 
HETATM   21  C   UNL     1     -39.032 -49.917  11.582  1.00  0.00     0.104 C 
HETATM   22  C   UNL     1     -39.835 -50.756  12.538  1.00  0.00     0.219 C 
HETATM   23  O   UNL     1     -40.940 -51.219  12.313  1.00  0.00    -0.273 OA
ENDBRANCH  17  18
ENDBRANCH  16  17
ENDBRANCH  15  16
ENDBRANCH   4  15
TORSDOF 5
ENDMDL
