MODEL 1
REMARK VINA RESULT:      -6.3      0.000      0.000
REMARK  5 active torsions:
REMARK  status: ('A' for Active; 'I' for Inactive)
REMARK    1  A    between atoms: O_2  and  C_3 
REMARK    2  A    between atoms: C_6  and  N_7 
REMARK       I    between atoms: N_7  and  C_8 
REMARK       I    between atoms: C_8  and  N_10 
REMARK    3  A    between atoms: N_10  and  C_11 
REMARK    4  A    between atoms: C_15  and  C_16 
REMARK    5  A    between atoms: C_16  and  C_17 
ROOT
HETATM    1  N   UNL     1     -41.179 -50.958  11.641  1.00  0.00    -0.307 N 
HETATM    2  C   UNL     1     -42.000 -49.951  12.102  1.00  0.00     0.321 C 
HETATM    3  O   UNL     1     -42.465 -49.870  13.230  1.00  0.00    -0.247 OA
HETATM    4  N   UNL     1     -42.209 -48.976  11.145  1.00  0.00    -0.338 N 
HETATM    5  H   UNL     1     -41.065 -51.026  10.642  1.00  0.00     0.170 HD
HETATM    6  H   UNL     1     -42.281 -49.310  10.196  1.00  0.00     0.164 HD
ENDROOT
BRANCH   1   7
HETATM    7  C   UNL     1     -40.613 -51.985  12.440  1.00  0.00     0.058 A 
HETATM    8  C   UNL     1     -41.198 -53.253  12.530  1.00  0.00     0.036 A 
HETATM    9  C   UNL     1     -40.625 -54.244  13.325  1.00  0.00     0.058 A 
HETATM   10  C   UNL     1     -39.483 -53.932  14.033  1.00  0.00     0.141 A 
HETATM   11  N   UNL     1     -38.903 -52.716  14.002  1.00  0.00    -0.339 N 
HETATM   12  C   UNL     1     -39.454 -51.765  13.200  1.00  0.00     0.034 A 
ATOM     13  HN  UNL     1     -38.075 -52.515  14.563  1.00  0.00     0.168 HD
HETATM   14  C   UNL     1     -38.686 -50.477  13.184  1.00  0.00     0.070 C 
BRANCH  10  15
HETATM   15  O   UNL     1     -38.918 -54.944  14.779  1.00  0.00    -0.341 OA
HETATM   16  C   UNL     1     -39.661 -55.246  15.955  1.00  0.00     0.211 C 
ENDBRANCH  10  15
ENDBRANCH   1   7
BRANCH   4  17
HETATM   17  C   UNL     1     -42.958 -47.752  11.472  1.00  0.00     0.090 C 
HETATM   18  C   UNL     1     -43.936 -47.384  10.351  1.00  0.00     0.051 C 
HETATM   19  C   UNL     1     -43.204 -46.849   9.123  1.00  0.00     0.170 C 
HETATM   20  O   UNL     1     -42.317 -45.778   9.457  1.00  0.00    -0.386 OA
HETATM   21  C   UNL     1     -41.321 -46.184  10.410  1.00  0.00     0.123 C 
HETATM   22  C   UNL     1     -42.032 -46.550  11.712  1.00  0.00     0.057 C 
BRANCH  21  23
HETATM   23  C   UNL     1     -40.313 -45.040  10.587  1.00  0.00     0.035 C 
BRANCH  23  24
HETATM   24  C   UNL     1     -40.557 -44.147  11.824  1.00  0.00    -0.020 C 
HETATM   25  C   UNL     1     -39.332 -44.065  12.739  1.00  0.00     0.009 C 
HETATM   26  C   UNL     1     -40.978 -42.743  11.388  1.00  0.00     0.009 C 
ENDBRANCH  23  24
ENDBRANCH  21  23
ENDBRANCH   4  17
TORSDOF 5
ENDMDL
MODEL 2
REMARK VINA RESULT:      -6.3      3.255      8.059
REMARK  5 active torsions:
REMARK  status: ('A' for Active; 'I' for Inactive)
REMARK    1  A    between atoms: O_2  and  C_3 
REMARK    2  A    between atoms: C_6  and  N_7 
REMARK       I    between atoms: N_7  and  C_8 
REMARK       I    between atoms: C_8  and  N_10 
REMARK    3  A    between atoms: N_10  and  C_11 
REMARK    4  A    between atoms: C_15  and  C_16 
REMARK    5  A    between atoms: C_16  and  C_17 
ROOT
HETATM    1  N   UNL     1     -41.934 -49.302  11.064  1.00  0.00    -0.307 N 
HETATM    2  C   UNL     1     -41.868 -49.974  12.266  1.00  0.00     0.321 C 
HETATM    3  O   UNL     1     -41.400 -49.532  13.306  1.00  0.00    -0.247 OA
HETATM    4  N   UNL     1     -42.455 -51.223  12.192  1.00  0.00    -0.338 N 
HETATM    5  H   UNL     1     -42.122 -49.857  10.245  1.00  0.00     0.170 HD
HETATM    6  H   UNL     1     -42.327 -51.710  11.318  1.00  0.00     0.164 HD
ENDROOT
BRANCH   1   7
HETATM    7  C   UNL     1     -41.611 -47.934  10.871  1.00  0.00     0.058 A 
HETATM    8  C   UNL     1     -40.332 -47.435  11.141  1.00  0.00     0.036 A 
HETATM    9  C   UNL     1     -40.040 -46.086  10.947  1.00  0.00     0.058 A 
HETATM   10  C   UNL     1     -41.050 -45.259  10.505  1.00  0.00     0.141 A 
HETATM   11  N   UNL     1     -42.305 -45.687  10.263  1.00  0.00    -0.339 N 
HETATM   12  C   UNL     1     -42.572 -47.011  10.428  1.00  0.00     0.034 A 
ATOM     13  HN  UNL     1     -43.033 -45.038   9.966  1.00  0.00     0.168 HD
HETATM   14  C   UNL     1     -43.975 -47.390  10.059  1.00  0.00     0.070 C 
BRANCH  10  15
HETATM   15  O   UNL     1     -40.721 -43.938  10.285  1.00  0.00    -0.341 OA
HETATM   16  C   UNL     1     -40.331 -43.259  11.475  1.00  0.00     0.211 C 
ENDBRANCH  10  15
ENDBRANCH   1   7
BRANCH   4  17
HETATM   17  C   UNL     1     -42.598 -52.056  13.397  1.00  0.00     0.090 C 
HETATM   18  C   UNL     1     -42.719 -53.540  13.033  1.00  0.00     0.051 C 
HETATM   19  C   UNL     1     -44.076 -53.855  12.408  1.00  0.00     0.170 C 
HETATM   20  O   UNL     1     -45.157 -53.396  13.224  1.00  0.00    -0.386 OA
HETATM   21  C   UNL     1     -45.100 -51.976  13.440  1.00  0.00     0.123 C 
HETATM   22  C   UNL     1     -43.829 -51.667  14.229  1.00  0.00     0.057 C 
BRANCH  21  23
HETATM   23  C   UNL     1     -46.375 -51.538  14.175  1.00  0.00     0.035 C 
BRANCH  23  24
HETATM   24  C   UNL     1     -46.360 -51.782  15.700  1.00  0.00    -0.020 C 
HETATM   25  C   UNL     1     -47.487 -51.041  16.424  1.00  0.00     0.009 C 
HETATM   26  C   UNL     1     -46.446 -53.279  15.998  1.00  0.00     0.009 C 
ENDBRANCH  23  24
ENDBRANCH  21  23
ENDBRANCH   4  17
TORSDOF 5
ENDMDL
MODEL 3
REMARK VINA RESULT:      -6.2      3.641      8.073
REMARK  5 active torsions:
REMARK  status: ('A' for Active; 'I' for Inactive)
REMARK    1  A    between atoms: O_2  and  C_3 
REMARK    2  A    between atoms: C_6  and  N_7 
REMARK       I    between atoms: N_7  and  C_8 
REMARK       I    between atoms: C_8  and  N_10 
REMARK    3  A    between atoms: N_10  and  C_11 
REMARK    4  A    between atoms: C_15  and  C_16 
REMARK    5  A    between atoms: C_16  and  C_17 
ROOT
HETATM    1  N   UNL     1     -42.531 -50.328  12.284  1.00  0.00    -0.307 N 
HETATM    2  C   UNL     1     -42.132 -50.780  13.524  1.00  0.00     0.321 C 
HETATM    3  O   UNL     1     -41.361 -50.205  14.279  1.00  0.00    -0.247 OA
HETATM    4  N   UNL     1     -42.756 -51.965  13.867  1.00  0.00    -0.338 N 
HETATM    5  H   UNL     1     -42.973 -51.001  11.679  1.00  0.00     0.170 HD
HETATM    6  H   UNL     1     -42.911 -52.608  13.106  1.00  0.00     0.164 HD
ENDROOT
BRANCH   1   7
HETATM    7  C   UNL     1     -42.235 -49.051  11.743  1.00  0.00     0.058 A 
HETATM    8  C   UNL     1     -43.175 -48.014  11.748  1.00  0.00     0.036 A 
HETATM    9  C   UNL     1     -42.862 -46.768  11.207  1.00  0.00     0.058 A 
HETATM   10  C   UNL     1     -41.612 -46.596  10.652  1.00  0.00     0.141 A 
HETATM   11  N   UNL     1     -40.685 -47.572  10.597  1.00  0.00    -0.339 N 
HETATM   12  C   UNL     1     -40.991 -48.776  11.153  1.00  0.00     0.034 A 
ATOM     13  HN  UNL     1     -39.781 -47.415  10.151  1.00  0.00     0.168 HD
HETATM   14  C   UNL     1     -39.863 -49.763  11.102  1.00  0.00     0.070 C 
BRANCH  10  15
HETATM   15  O   UNL     1     -41.317 -45.342  10.162  1.00  0.00    -0.341 OA
HETATM   16  C   UNL     1     -39.932 -45.022  10.255  1.00  0.00     0.211 C 
ENDBRANCH  10  15
ENDBRANCH   1   7
BRANCH   4  17
HETATM   17  C   UNL     1     -42.561 -52.556  15.201  1.00  0.00     0.090 C 
HETATM   18  C   UNL     1     -42.223 -54.047  15.103  1.00  0.00     0.051 C 
HETATM   19  C   UNL     1     -43.440 -54.872  14.693  1.00  0.00     0.170 C 
HETATM   20  O   UNL     1     -44.566 -54.615  15.537  1.00  0.00    -0.386 OA
HETATM   21  C   UNL     1     -44.952 -53.231  15.509  1.00  0.00     0.123 C 
HETATM   22  C   UNL     1     -43.805 -52.406  16.090  1.00  0.00     0.057 C 
BRANCH  21  23
HETATM   23  C   UNL     1     -46.259 -53.068  16.299  1.00  0.00     0.035 C 
BRANCH  23  24
HETATM   24  C   UNL     1     -47.284 -52.104  15.662  1.00  0.00    -0.020 C 
HETATM   25  C   UNL     1     -47.778 -51.040  16.645  1.00  0.00     0.009 C 
HETATM   26  C   UNL     1     -46.684 -51.433  14.426  1.00  0.00     0.009 C 
ENDBRANCH  23  24
ENDBRANCH  21  23
ENDBRANCH   4  17
TORSDOF 5
ENDMDL
MODEL 4
REMARK VINA RESULT:      -5.7      2.303      2.613
REMARK  5 active torsions:
REMARK  status: ('A' for Active; 'I' for Inactive)
REMARK    1  A    between atoms: O_2  and  C_3 
REMARK    2  A    between atoms: C_6  and  N_7 
REMARK       I    between atoms: N_7  and  C_8 
REMARK       I    between atoms: C_8  and  N_10 
REMARK    3  A    between atoms: N_10  and  C_11 
REMARK    4  A    between atoms: C_15  and  C_16 
REMARK    5  A    between atoms: C_16  and  C_17 
ROOT
HETATM    1  N   UNL     1     -42.800 -51.973  12.557  1.00  0.00    -0.307 N 
HETATM    2  C   UNL     1     -43.239 -50.707  12.883  1.00  0.00     0.321 C 
HETATM    3  O   UNL     1     -43.817 -50.396  13.914  1.00  0.00    -0.247 OA
HETATM    4  N   UNL     1     -42.898 -49.778  11.918  1.00  0.00    -0.338 N 
HETATM    5  H   UNL     1     -42.557 -52.133  11.593  1.00  0.00     0.170 HD
HETATM    6  H   UNL     1     -42.933 -50.110  10.966  1.00  0.00     0.164 HD
ENDROOT
BRANCH   1   7
HETATM    7  C   UNL     1     -42.810 -53.093  13.428  1.00  0.00     0.058 A 
HETATM    8  C   UNL     1     -43.978 -53.823  13.675  1.00  0.00     0.036 A 
HETATM    9  C   UNL     1     -43.963 -54.917  14.538  1.00  0.00     0.058 A 
HETATM   10  C   UNL     1     -42.774 -55.243  15.154  1.00  0.00     0.141 A 
HETATM   11  N   UNL     1     -41.632 -54.552  14.972  1.00  0.00    -0.339 N 
HETATM   12  C   UNL     1     -41.650 -53.503  14.106  1.00  0.00     0.034 A 
ATOM     13  HN  UNL     1     -40.779 -54.807  15.470  1.00  0.00     0.168 HD
HETATM   14  C   UNL     1     -40.311 -52.853  13.922  1.00  0.00     0.070 C 
BRANCH  10  15
HETATM   15  O   UNL     1     -42.781 -56.354  15.970  1.00  0.00    -0.341 OA
HETATM   16  C   UNL     1     -42.238 -56.096  17.262  1.00  0.00     0.211 C 
ENDBRANCH  10  15
ENDBRANCH   1   7
BRANCH   4  17
HETATM   17  C   UNL     1     -43.166 -48.346  12.128  1.00  0.00     0.090 C 
HETATM   18  C   UNL     1     -43.734 -47.697  10.860  1.00  0.00     0.051 C 
HETATM   19  C   UNL     1     -42.664 -47.546   9.782  1.00  0.00     0.170 C 
HETATM   20  O   UNL     1     -41.503 -46.872  10.275  1.00  0.00    -0.386 OA
HETATM   21  C   UNL     1     -40.906 -47.572  11.380  1.00  0.00     0.123 C 
HETATM   22  C   UNL     1     -41.904 -47.572  12.536  1.00  0.00     0.057 C 
BRANCH  21  23
HETATM   23  C   UNL     1     -39.581 -46.885  11.741  1.00  0.00     0.035 C 
BRANCH  23  24
HETATM   24  C   UNL     1     -39.504 -46.345  13.186  1.00  0.00    -0.020 C 
HETATM   25  C   UNL     1     -38.511 -47.124  14.051  1.00  0.00     0.009 C 
HETATM   26  C   UNL     1     -39.136 -44.861  13.177  1.00  0.00     0.009 C 
ENDBRANCH  23  24
ENDBRANCH  21  23
ENDBRANCH   4  17
TORSDOF 5
ENDMDL
MODEL 5
REMARK VINA RESULT:      -5.5      6.544      7.388
REMARK  5 active torsions:
REMARK  status: ('A' for Active; 'I' for Inactive)
REMARK    1  A    between atoms: O_2  and  C_3 
REMARK    2  A    between atoms: C_6  and  N_7 
REMARK       I    between atoms: N_7  and  C_8 
REMARK       I    between atoms: C_8  and  N_10 
REMARK    3  A    between atoms: N_10  and  C_11 
REMARK    4  A    between atoms: C_15  and  C_16 
REMARK    5  A    between atoms: C_16  and  C_17 
ROOT
HETATM    1  N   UNL     1     -41.450 -54.254  15.792  1.00  0.00    -0.307 N 
HETATM    2  C   UNL     1     -42.640 -54.913  15.563  1.00  0.00     0.321 C 
HETATM    3  O   UNL     1     -42.814 -56.120  15.642  1.00  0.00    -0.247 OA
HETATM    4  N   UNL     1     -43.670 -54.035  15.280  1.00  0.00    -0.338 N 
HETATM    5  H   UNL     1     -41.390 -53.303  15.466  1.00  0.00     0.170 HD
HETATM    6  H   UNL     1     -43.411 -53.227  14.735  1.00  0.00     0.164 HD
ENDROOT
BRANCH   1   7
HETATM    7  C   UNL     1     -40.270 -54.850  16.305  1.00  0.00     0.058 A 
HETATM    8  C   UNL     1     -40.162 -55.231  17.647  1.00  0.00     0.036 A 
HETATM    9  C   UNL     1     -38.990 -55.812  18.129  1.00  0.00     0.058 A 
HETATM   10  C   UNL     1     -37.938 -55.978  17.253  1.00  0.00     0.141 A 
HETATM   11  N   UNL     1     -37.984 -55.599  15.960  1.00  0.00    -0.339 N 
HETATM   12  C   UNL     1     -39.143 -55.060  15.493  1.00  0.00     0.034 A 
ATOM     13  HN  UNL     1     -37.175 -55.711  15.351  1.00  0.00     0.168 HD
HETATM   14  C   UNL     1     -39.109 -54.743  14.028  1.00  0.00     0.070 C 
BRANCH  10  15
HETATM   15  O   UNL     1     -36.807 -56.591  17.748  1.00  0.00    -0.341 OA
HETATM   16  C   UNL     1     -37.095 -57.553  18.758  1.00  0.00     0.211 C 
ENDBRANCH  10  15
ENDBRANCH   1   7
BRANCH   4  17
HETATM   17  C   UNL     1     -45.049 -54.524  15.123  1.00  0.00     0.090 C 
HETATM   18  C   UNL     1     -45.402 -54.721  13.644  1.00  0.00     0.051 C 
HETATM   19  C   UNL     1     -45.579 -53.385  12.928  1.00  0.00     0.170 C 
HETATM   20  O   UNL     1     -46.506 -52.535  13.609  1.00  0.00    -0.386 OA
HETATM   21  C   UNL     1     -46.085 -52.251  14.954  1.00  0.00     0.123 C 
HETATM   22  C   UNL     1     -46.079 -53.563  15.736  1.00  0.00     0.057 C 
BRANCH  21  23
HETATM   23  C   UNL     1     -47.034 -51.206  15.557  1.00  0.00     0.035 C 
BRANCH  23  24
HETATM   24  C   UNL     1     -46.947 -51.062  17.093  1.00  0.00    -0.020 C 
HETATM   25  C   UNL     1     -45.860 -50.077  17.529  1.00  0.00     0.009 C 
HETATM   26  C   UNL     1     -48.299 -50.631  17.661  1.00  0.00     0.009 C 
ENDBRANCH  23  24
ENDBRANCH  21  23
ENDBRANCH   4  17
TORSDOF 5
ENDMDL
MODEL 6
REMARK VINA RESULT:      -5.4      3.022      4.568
REMARK  5 active torsions:
REMARK  status: ('A' for Active; 'I' for Inactive)
REMARK    1  A    between atoms: O_2  and  C_3 
REMARK    2  A    between atoms: C_6  and  N_7 
REMARK       I    between atoms: N_7  and  C_8 
REMARK       I    between atoms: C_8  and  N_10 
REMARK    3  A    between atoms: N_10  and  C_11 
REMARK    4  A    between atoms: C_15  and  C_16 
REMARK    5  A    between atoms: C_16  and  C_17 
ROOT
HETATM    1  N   UNL     1     -41.300 -51.270  14.407  1.00  0.00    -0.307 N 
HETATM    2  C   UNL     1     -40.288 -50.900  13.547  1.00  0.00     0.321 C 
HETATM    3  O   UNL     1     -40.037 -51.427  12.473  1.00  0.00    -0.247 OA
HETATM    4  N   UNL     1     -39.595 -49.797  14.009  1.00  0.00    -0.338 N 
HETATM    5  H   UNL     1     -41.247 -50.913  15.348  1.00  0.00     0.170 HD
HETATM    6  H   UNL     1     -39.467 -49.754  15.008  1.00  0.00     0.164 HD
ENDROOT
BRANCH   1   7
HETATM    7  C   UNL     1     -42.312 -52.222  14.121  1.00  0.00     0.058 A 
HETATM    8  C   UNL     1     -42.124 -53.589  14.358  1.00  0.00     0.036 A 
HETATM    9  C   UNL     1     -43.132 -54.505  14.065  1.00  0.00     0.058 A 
HETATM   10  C   UNL     1     -44.305 -54.030  13.517  1.00  0.00     0.141 A 
HETATM   11  N   UNL     1     -44.519 -52.728  13.241  1.00  0.00    -0.339 N 
HETATM   12  C   UNL     1     -43.540 -51.839  13.558  1.00  0.00     0.034 A 
ATOM     13  HN  UNL     1     -45.389 -52.420  12.808  1.00  0.00     0.168 HD
HETATM   14  C   UNL     1     -43.913 -50.413  13.279  1.00  0.00     0.070 C 
BRANCH  10  15
HETATM   15  O   UNL     1     -45.298 -54.955  13.274  1.00  0.00    -0.341 OA
HETATM   16  C   UNL     1     -46.320 -54.943  14.266  1.00  0.00     0.211 C 
ENDBRANCH  10  15
ENDBRANCH   1   7
BRANCH   4  17
HETATM   17  C   UNL     1     -38.553 -49.166  13.183  1.00  0.00     0.090 C 
HETATM   18  C   UNL     1     -37.719 -48.177  14.003  1.00  0.00     0.051 C 
HETATM   19  C   UNL     1     -38.510 -46.912  14.328  1.00  0.00     0.170 C 
HETATM   20  O   UNL     1     -39.074 -46.321  13.155  1.00  0.00    -0.386 OA
HETATM   21  C   UNL     1     -39.961 -47.222  12.473  1.00  0.00     0.123 C 
HETATM   22  C   UNL     1     -39.141 -48.413  11.980  1.00  0.00     0.057 C 
BRANCH  21  23
HETATM   23  C   UNL     1     -40.651 -46.465  11.330  1.00  0.00     0.035 C 
BRANCH  23  24
HETATM   24  C   UNL     1     -42.171 -46.715  11.212  1.00  0.00    -0.020 C 
HETATM   25  C   UNL     1     -42.500 -47.920  10.327  1.00  0.00     0.009 C 
HETATM   26  C   UNL     1     -42.786 -46.904  12.599  1.00  0.00     0.009 C 
ENDBRANCH  23  24
ENDBRANCH  21  23
ENDBRANCH   4  17
TORSDOF 5
ENDMDL
MODEL 7
REMARK VINA RESULT:      -5.4      2.143      8.655
REMARK  5 active torsions:
REMARK  status: ('A' for Active; 'I' for Inactive)
REMARK    1  A    between atoms: O_2  and  C_3 
REMARK    2  A    between atoms: C_6  and  N_7 
REMARK       I    between atoms: N_7  and  C_8 
REMARK       I    between atoms: C_8  and  N_10 
REMARK    3  A    between atoms: N_10  and  C_11 
REMARK    4  A    between atoms: C_15  and  C_16 
REMARK    5  A    between atoms: C_16  and  C_17 
ROOT
HETATM    1  N   UNL     1     -40.203 -47.061  11.648  1.00  0.00    -0.307 N 
HETATM    2  C   UNL     1     -39.995 -47.595  12.902  1.00  0.00     0.321 C 
HETATM    3  O   UNL     1     -40.303 -47.069  13.961  1.00  0.00    -0.247 OA
HETATM    4  N   UNL     1     -39.433 -48.857  12.839  1.00  0.00    -0.338 N 
HETATM    5  H   UNL     1     -39.695 -47.483  10.887  1.00  0.00     0.170 HD
HETATM    6  H   UNL     1     -38.762 -48.995  12.099  1.00  0.00     0.164 HD
ENDROOT
BRANCH   1   7
HETATM    7  C   UNL     1     -40.946 -45.885  11.371  1.00  0.00     0.058 A 
HETATM    8  C   UNL     1     -40.357 -44.616  11.415  1.00  0.00     0.036 A 
HETATM    9  C   UNL     1     -41.109 -43.474  11.144  1.00  0.00     0.058 A 
HETATM   10  C   UNL     1     -42.447 -43.631  10.852  1.00  0.00     0.141 A 
HETATM   11  N   UNL     1     -43.065 -44.828  10.829  1.00  0.00    -0.339 N 
HETATM   12  C   UNL     1     -42.315 -45.939  11.067  1.00  0.00     0.034 A 
ATOM     13  HN  UNL     1     -44.064 -44.901  10.638  1.00  0.00     0.168 HD
HETATM   14  C   UNL     1     -43.085 -47.220  10.942  1.00  0.00     0.070 C 
BRANCH  10  15
HETATM   15  O   UNL     1     -43.156 -42.488  10.549  1.00  0.00    -0.341 OA
HETATM   16  C   UNL     1     -42.700 -41.347  11.268  1.00  0.00     0.211 C 
ENDBRANCH  10  15
ENDBRANCH   1   7
BRANCH   4  17
HETATM   17  C   UNL     1     -39.240 -49.653  14.062  1.00  0.00     0.090 C 
HETATM   18  C   UNL     1     -37.785 -50.113  14.200  1.00  0.00     0.051 C 
HETATM   19  C   UNL     1     -37.446 -51.208  13.191  1.00  0.00     0.170 C 
HETATM   20  O   UNL     1     -38.376 -52.292  13.249  1.00  0.00    -0.386 OA
HETATM   21  C   UNL     1     -39.721 -51.860  12.982  1.00  0.00     0.123 C 
HETATM   22  C   UNL     1     -40.140 -50.898  14.092  1.00  0.00     0.057 C 
BRANCH  21  23
HETATM   23  C   UNL     1     -40.628 -53.096  12.895  1.00  0.00     0.035 C 
BRANCH  23  24
HETATM   24  C   UNL     1     -41.272 -53.522  14.233  1.00  0.00    -0.020 C 
HETATM   25  C   UNL     1     -42.660 -54.139  14.046  1.00  0.00     0.009 C 
HETATM   26  C   UNL     1     -40.360 -54.503  14.971  1.00  0.00     0.009 C 
ENDBRANCH  23  24
ENDBRANCH  21  23
ENDBRANCH   4  17
TORSDOF 5
ENDMDL
MODEL 8
REMARK VINA RESULT:      -5.3      2.762      3.583
REMARK  5 active torsions:
REMARK  status: ('A' for Active; 'I' for Inactive)
REMARK    1  A    between atoms: O_2  and  C_3 
REMARK    2  A    between atoms: C_6  and  N_7 
REMARK       I    between atoms: N_7  and  C_8 
REMARK       I    between atoms: C_8  and  N_10 
REMARK    3  A    between atoms: N_10  and  C_11 
REMARK    4  A    between atoms: C_15  and  C_16 
REMARK    5  A    between atoms: C_16  and  C_17 
ROOT
HETATM    1  N   UNL     1     -42.353 -49.566  12.925  1.00  0.00    -0.307 N 
HETATM    2  C   UNL     1     -42.619 -48.489  12.107  1.00  0.00     0.321 C 
HETATM    3  O   UNL     1     -43.362 -48.496  11.137  1.00  0.00    -0.247 OA
HETATM    4  N   UNL     1     -41.983 -47.340  12.541  1.00  0.00    -0.338 N 
HETATM    5  H   UNL     1     -41.554 -49.485  13.533  1.00  0.00     0.170 HD
HETATM    6  H   UNL     1     -41.065 -47.478  12.936  1.00  0.00     0.164 HD
ENDROOT
BRANCH   1   7
HETATM    7  C   UNL     1     -43.014 -50.820  12.869  1.00  0.00     0.058 A 
HETATM    8  C   UNL     1     -44.331 -50.978  13.315  1.00  0.00     0.036 A 
HETATM    9  C   UNL     1     -44.958 -52.221  13.253  1.00  0.00     0.058 A 
HETATM   10  C   UNL     1     -44.237 -53.289  12.762  1.00  0.00     0.141 A 
HETATM   11  N   UNL     1     -42.957 -53.193  12.351  1.00  0.00    -0.339 N 
HETATM   12  C   UNL     1     -42.364 -51.969  12.389  1.00  0.00     0.034 A 
ATOM     13  HN  UNL     1     -42.448 -54.013  12.022  1.00  0.00     0.168 HD
HETATM   14  C   UNL     1     -40.969 -51.962  11.840  1.00  0.00     0.070 C 
BRANCH  10  15
HETATM   15  O   UNL     1     -44.896 -54.497  12.676  1.00  0.00    -0.341 OA
HETATM   16  C   UNL     1     -45.549 -54.859  13.889  1.00  0.00     0.211 C 
ENDBRANCH  10  15
ENDBRANCH   1   7
BRANCH   4  17
HETATM   17  C   UNL     1     -42.230 -46.050  11.879  1.00  0.00     0.090 C 
HETATM   18  C   UNL     1     -41.498 -45.968  10.535  1.00  0.00     0.051 C 
HETATM   19  C   UNL     1     -39.992 -45.811  10.726  1.00  0.00     0.170 C 
HETATM   20  O   UNL     1     -39.677 -44.719  11.594  1.00  0.00    -0.386 OA
HETATM   21  C   UNL     1     -40.262 -44.883  12.896  1.00  0.00     0.123 C 
HETATM   22  C   UNL     1     -41.782 -44.860  12.740  1.00  0.00     0.057 C 
BRANCH  21  23
HETATM   23  C   UNL     1     -39.743 -43.768  13.814  1.00  0.00     0.035 C 
BRANCH  23  24
HETATM   24  C   UNL     1     -40.549 -42.451  13.753  1.00  0.00    -0.020 C 
HETATM   25  C   UNL     1     -40.835 -41.874  15.141  1.00  0.00     0.009 C 
HETATM   26  C   UNL     1     -39.811 -41.418  12.901  1.00  0.00     0.009 C 
ENDBRANCH  23  24
ENDBRANCH  21  23
ENDBRANCH   4  17
TORSDOF 5
ENDMDL
MODEL 9
REMARK VINA RESULT:      -5.2     14.917     17.737
REMARK  5 active torsions:
REMARK  status: ('A' for Active; 'I' for Inactive)
REMARK    1  A    between atoms: O_2  and  C_3 
REMARK    2  A    between atoms: C_6  and  N_7 
REMARK       I    between atoms: N_7  and  C_8 
REMARK       I    between atoms: C_8  and  N_10 
REMARK    3  A    between atoms: N_10  and  C_11 
REMARK    4  A    between atoms: C_15  and  C_16 
REMARK    5  A    between atoms: C_16  and  C_17 
ROOT
HETATM    1  N   UNL     1     -49.244 -49.316  -1.457  1.00  0.00    -0.307 N 
HETATM    2  C   UNL     1     -48.436 -50.421  -1.294  1.00  0.00     0.321 C 
HETATM    3  O   UNL     1     -47.901 -50.767  -0.251  1.00  0.00    -0.247 OA
HETATM    4  N   UNL     1     -48.331 -51.160  -2.458  1.00  0.00    -0.338 N 
HETATM    5  H   UNL     1     -49.421 -49.021  -2.403  1.00  0.00     0.170 HD
HETATM    6  H   UNL     1     -48.309 -50.622  -3.311  1.00  0.00     0.164 HD
ENDROOT
BRANCH   1   7
HETATM    7  C   UNL     1     -49.714 -48.483  -0.409  1.00  0.00     0.058 A 
HETATM    8  C   UNL     1     -48.968 -47.393   0.055  1.00  0.00     0.036 A 
HETATM    9  C   UNL     1     -49.449 -46.592   1.088  1.00  0.00     0.058 A 
HETATM   10  C   UNL     1     -50.665 -46.916   1.652  1.00  0.00     0.141 A 
HETATM   11  N   UNL     1     -51.403 -47.974   1.261  1.00  0.00    -0.339 N 
HETATM   12  C   UNL     1     -50.938 -48.732   0.232  1.00  0.00     0.034 A 
ATOM     13  HN  UNL     1     -52.284 -48.199   1.723  1.00  0.00     0.168 HD
HETATM   14  C   UNL     1     -51.873 -49.835  -0.170  1.00  0.00     0.070 C 
BRANCH  10  15
HETATM   15  O   UNL     1     -51.133 -46.083   2.645  1.00  0.00    -0.341 OA
HETATM   16  C   UNL     1     -52.461 -45.629   2.406  1.00  0.00     0.211 C 
ENDBRANCH  10  15
ENDBRANCH   1   7
BRANCH   4  17
HETATM   17  C   UNL     1     -47.612 -52.444  -2.469  1.00  0.00     0.090 C 
HETATM   18  C   UNL     1     -47.094 -52.778  -3.872  1.00  0.00     0.051 C 
HETATM   19  C   UNL     1     -48.232 -53.176  -4.808  1.00  0.00     0.170 C 
HETATM   20  O   UNL     1     -49.037 -54.220  -4.254  1.00  0.00    -0.386 OA
HETATM   21  C   UNL     1     -49.625 -53.835  -3.000  1.00  0.00     0.123 C 
HETATM   22  C   UNL     1     -48.496 -53.608  -1.996  1.00  0.00     0.057 C 
BRANCH  21  23
HETATM   23  C   UNL     1     -50.602 -54.932  -2.555  1.00  0.00     0.035 C 
BRANCH  23  24
HETATM   24  C   UNL     1     -52.040 -54.444  -2.272  1.00  0.00    -0.020 C 
HETATM   25  C   UNL     1     -53.083 -55.546  -2.472  1.00  0.00     0.009 C 
HETATM   26  C   UNL     1     -52.139 -53.883  -0.853  1.00  0.00     0.009 C 
ENDBRANCH  23  24
ENDBRANCH  21  23
ENDBRANCH   4  17
TORSDOF 5
ENDMDL
