MODEL 1
REMARK VINA RESULT:      -5.3      0.000      0.000
REMARK  7 active torsions:
REMARK  status: ('A' for Active; 'I' for Inactive)
REMARK    1  A    between atoms: C_2  and  C_3 
REMARK    2  A    between atoms: C_6  and  O_7 
REMARK    3  A    between atoms: O_7  and  C_8 
REMARK    4  A    between atoms: C_8  and  C_9 
REMARK    5  A    between atoms: C_9  and  O_10 
REMARK    6  A    between atoms: C_9  and  C_11 
REMARK    7  A    between atoms: C_11  and  N_12 
ROOT
HETATM    1  C   UNL     1     -40.059 -53.907  13.712  1.00  0.00     0.161 C 
ENDROOT
BRANCH   1   2
HETATM    2  C   UNL     1     -40.207 -52.523  13.050  1.00  0.00     0.209 C 
BRANCH   2   3
HETATM    3  O   UNL     1     -41.246 -52.619  12.073  1.00  0.00    -0.349 OA
BRANCH   3   4
HETATM    4  C   UNL     1     -42.535 -52.490  12.501  1.00  0.00     0.068 A 
HETATM    5  C   UNL     1     -42.854 -51.234  13.023  1.00  0.00     0.037 A 
HETATM    6  C   UNL     1     -44.168 -50.924  13.378  1.00  0.00     0.010 A 
HETATM    7  C   UNL     1     -45.185 -51.866  13.203  1.00  0.00    -0.058 A 
HETATM    8  C   UNL     1     -44.854 -53.135  12.707  1.00  0.00     0.010 A 
HETATM    9  C   UNL     1     -43.534 -53.449  12.362  1.00  0.00     0.037 A 
BRANCH   7  10
HETATM   10  C   UNL     1     -46.621 -51.495  13.473  1.00  0.00     0.034 C 
HETATM   11  C   UNL     1     -46.879 -51.317  14.964  1.00  0.00     0.010 C 
ENDBRANCH   7  10
ENDBRANCH   3   4
ENDBRANCH   2   3
ENDBRANCH   1   2
BRANCH   1  12
HETATM   12  O   UNL     1     -38.790 -54.457  13.331  1.00  0.00    -0.392 OA
HETATM   13  H   UNL     1     -38.576 -54.199  12.410  1.00  0.00     0.210 HD
ENDBRANCH   1  12
BRANCH   1  14
HETATM   14  C   UNL     1     -40.234 -53.804  15.244  1.00  0.00     0.166 C 
BRANCH  14  15
HETATM   15  N   UNL     1     -41.638 -53.803  15.663  1.00  0.00    -0.307 N 
HETATM   16  C   UNL     1     -42.459 -54.866  15.405  1.00  0.00     0.186 C 
HETATM   17  N   UNL     1     -43.715 -54.922  15.701  1.00  0.00    -0.355 N 
HETATM   18  C   UNL     1     -44.254 -53.863  16.388  1.00  0.00     0.017 C 
ATOM     19  HN  UNL     1     -44.286 -55.725  15.435  1.00  0.00     0.166 HD
HETATM   20  C   UNL     1     -45.694 -54.040  16.792  1.00  0.00     0.069 C 
HETATM   21  C   UNL     1     -43.565 -52.750  16.701  1.00  0.00     0.028 C 
HETATM   22  C   UNL     1     -44.031 -51.599  17.535  1.00  0.00     0.056 C 
HETATM   23  C   UNL     1     -42.178 -52.651  16.185  1.00  0.00     0.256 C 
HETATM   24  O   UNL     1     -41.559 -51.588  16.238  1.00  0.00    -0.267 OA
ENDBRANCH  14  15
ENDBRANCH   1  14
TORSDOF 7
ENDMDL
MODEL 2
REMARK VINA RESULT:      -5.3      2.058      3.393
REMARK  7 active torsions:
REMARK  status: ('A' for Active; 'I' for Inactive)
REMARK    1  A    between atoms: C_2  and  C_3 
REMARK    2  A    between atoms: C_6  and  O_7 
REMARK    3  A    between atoms: O_7  and  C_8 
REMARK    4  A    between atoms: C_8  and  C_9 
REMARK    5  A    between atoms: C_9  and  O_10 
REMARK    6  A    between atoms: C_9  and  C_11 
REMARK    7  A    between atoms: C_11  and  N_12 
ROOT
HETATM    1  C   UNL     1     -39.712 -53.879  13.867  1.00  0.00     0.161 C 
ENDROOT
BRANCH   1   2
HETATM    2  C   UNL     1     -40.917 -54.133  12.940  1.00  0.00     0.209 C 
BRANCH   2   3
HETATM    3  O   UNL     1     -41.990 -54.623  13.748  1.00  0.00    -0.349 OA
BRANCH   3   4
HETATM    4  C   UNL     1     -43.177 -53.953  13.703  1.00  0.00     0.068 A 
HETATM    5  C   UNL     1     -43.859 -53.892  14.920  1.00  0.00     0.037 A 
HETATM    6  C   UNL     1     -45.021 -53.128  15.048  1.00  0.00     0.010 A 
HETATM    7  C   UNL     1     -45.509 -52.403  13.957  1.00  0.00    -0.058 A 
HETATM    8  C   UNL     1     -44.837 -52.492  12.730  1.00  0.00     0.010 A 
HETATM    9  C   UNL     1     -43.678 -53.267  12.601  1.00  0.00     0.037 A 
BRANCH   7  10
HETATM   10  C   UNL     1     -46.693 -51.486  14.122  1.00  0.00     0.034 C 
HETATM   11  C   UNL     1     -47.064 -51.313  15.590  1.00  0.00     0.010 C 
ENDBRANCH   7  10
ENDBRANCH   3   4
ENDBRANCH   2   3
ENDBRANCH   1   2
BRANCH   1  12
HETATM   12  O   UNL     1     -38.680 -54.818  13.535  1.00  0.00    -0.392 OA
HETATM   13  H   UNL     1     -38.474 -54.765  12.579  1.00  0.00     0.210 HD
ENDBRANCH   1  12
BRANCH   1  14
HETATM   14  C   UNL     1     -39.244 -52.410  13.767  1.00  0.00     0.166 C 
BRANCH  14  15
HETATM   15  N   UNL     1     -40.318 -51.488  13.387  1.00  0.00    -0.307 N 
HETATM   16  C   UNL     1     -40.473 -51.069  12.095  1.00  0.00     0.186 C 
HETATM   17  N   UNL     1     -41.364 -50.226  11.690  1.00  0.00    -0.355 N 
HETATM   18  C   UNL     1     -42.269 -49.766  12.614  1.00  0.00     0.017 C 
ATOM     19  HN  UNL     1     -41.395 -49.915  10.720  1.00  0.00     0.166 HD
HETATM   20  C   UNL     1     -43.342 -48.870  12.053  1.00  0.00     0.069 C 
HETATM   21  C   UNL     1     -42.230 -50.089  13.920  1.00  0.00     0.028 C 
HETATM   22  C   UNL     1     -43.229 -49.728  14.974  1.00  0.00     0.056 C 
HETATM   23  C   UNL     1     -41.086 -50.915  14.375  1.00  0.00     0.256 C 
HETATM   24  O   UNL     1     -40.857 -51.072  15.574  1.00  0.00    -0.267 OA
ENDBRANCH  14  15
ENDBRANCH   1  14
TORSDOF 7
ENDMDL
MODEL 3
REMARK VINA RESULT:      -5.3      2.680      4.048
REMARK  7 active torsions:
REMARK  status: ('A' for Active; 'I' for Inactive)
REMARK    1  A    between atoms: C_2  and  C_3 
REMARK    2  A    between atoms: C_6  and  O_7 
REMARK    3  A    between atoms: O_7  and  C_8 
REMARK    4  A    between atoms: C_8  and  C_9 
REMARK    5  A    between atoms: C_9  and  O_10 
REMARK    6  A    between atoms: C_9  and  C_11 
REMARK    7  A    between atoms: C_11  and  N_12 
ROOT
HETATM    1  C   UNL     1     -41.255 -52.693  12.278  1.00  0.00     0.161 C 
ENDROOT
BRANCH   1   2
HETATM    2  C   UNL     1     -40.195 -51.794  12.945  1.00  0.00     0.209 C 
BRANCH   2   3
HETATM    3  O   UNL     1     -40.859 -50.621  13.421  1.00  0.00    -0.349 OA
BRANCH   3   4
HETATM    4  C   UNL     1     -41.467 -49.818  12.503  1.00  0.00     0.068 A 
HETATM    5  C   UNL     1     -42.759 -49.413  12.845  1.00  0.00     0.037 A 
HETATM    6  C   UNL     1     -43.447 -48.486  12.060  1.00  0.00     0.010 A 
HETATM    7  C   UNL     1     -42.842 -47.942  10.923  1.00  0.00    -0.058 A 
HETATM    8  C   UNL     1     -41.557 -48.375  10.567  1.00  0.00     0.010 A 
HETATM    9  C   UNL     1     -40.873 -49.312  11.350  1.00  0.00     0.037 A 
BRANCH   7  10
HETATM   10  C   UNL     1     -43.533 -46.855  10.140  1.00  0.00     0.034 C 
HETATM   11  C   UNL     1     -44.735 -47.397   9.376  1.00  0.00     0.010 C 
ENDBRANCH   7  10
ENDBRANCH   3   4
ENDBRANCH   2   3
ENDBRANCH   1   2
BRANCH   1  12
HETATM   12  O   UNL     1     -40.615 -53.463  11.252  1.00  0.00    -0.392 OA
HETATM   13  H   UNL     1     -41.048 -53.297  10.389  1.00  0.00     0.210 HD
ENDBRANCH   1  12
BRANCH   1  14
HETATM   14  C   UNL     1     -41.971 -53.570  13.330  1.00  0.00     0.166 C 
BRANCH  14  15
HETATM   15  N   UNL     1     -43.217 -52.978  13.821  1.00  0.00    -0.307 N 
HETATM   16  C   UNL     1     -43.355 -52.585  15.123  1.00  0.00     0.186 C 
HETATM   17  N   UNL     1     -44.433 -52.097  15.641  1.00  0.00    -0.355 N 
HETATM   18  C   UNL     1     -45.503 -51.893  14.806  1.00  0.00     0.017 C 
ATOM     19  HN  UNL     1     -44.487 -51.871  16.634  1.00  0.00     0.166 HD
HETATM   20  C   UNL     1     -46.689 -51.226  15.452  1.00  0.00     0.069 C 
HETATM   21  C   UNL     1     -45.510 -52.239  13.506  1.00  0.00     0.028 C 
HETATM   22  C   UNL     1     -46.579 -51.960  12.498  1.00  0.00     0.056 C 
HETATM   23  C   UNL     1     -44.318 -52.960  12.995  1.00  0.00     0.256 C 
HETATM   24  O   UNL     1     -44.332 -53.499  11.889  1.00  0.00    -0.267 OA
ENDBRANCH  14  15
ENDBRANCH   1  14
TORSDOF 7
ENDMDL
MODEL 4
REMARK VINA RESULT:      -5.2      2.936      5.179
REMARK  7 active torsions:
REMARK  status: ('A' for Active; 'I' for Inactive)
REMARK    1  A    between atoms: C_2  and  C_3 
REMARK    2  A    between atoms: C_6  and  O_7 
REMARK    3  A    between atoms: O_7  and  C_8 
REMARK    4  A    between atoms: C_8  and  C_9 
REMARK    5  A    between atoms: C_9  and  O_10 
REMARK    6  A    between atoms: C_9  and  C_11 
REMARK    7  A    between atoms: C_11  and  N_12 
ROOT
HETATM    1  C   UNL     1     -40.963 -53.254  12.998  1.00  0.00     0.161 C 
ENDROOT
BRANCH   1   2
HETATM    2  C   UNL     1     -39.787 -53.491  13.966  1.00  0.00     0.209 C 
BRANCH   2   3
HETATM    3  O   UNL     1     -38.620 -52.907  13.382  1.00  0.00    -0.349 OA
BRANCH   3   4
HETATM    4  C   UNL     1     -38.430 -51.567  13.546  1.00  0.00     0.068 A 
HETATM    5  C   UNL     1     -38.408 -51.139  14.876  1.00  0.00     0.037 A 
HETATM    6  C   UNL     1     -38.093 -49.817  15.193  1.00  0.00     0.010 A 
HETATM    7  C   UNL     1     -37.785 -48.905  14.180  1.00  0.00    -0.058 A 
HETATM    8  C   UNL     1     -37.839 -49.332  12.845  1.00  0.00     0.010 A 
HETATM    9  C   UNL     1     -38.165 -50.656  12.528  1.00  0.00     0.037 A 
BRANCH   7  10
HETATM   10  C   UNL     1     -37.330 -47.510  14.524  1.00  0.00     0.034 C 
HETATM   11  C   UNL     1     -38.437 -46.489  14.291  1.00  0.00     0.010 C 
ENDBRANCH   7  10
ENDBRANCH   3   4
ENDBRANCH   2   3
ENDBRANCH   1   2
BRANCH   1  12
HETATM   12  O   UNL     1     -40.501 -53.488  11.660  1.00  0.00    -0.392 OA
HETATM   13  H   UNL     1     -40.483 -52.646  11.160  1.00  0.00     0.210 HD
ENDBRANCH   1  12
BRANCH   1  14
HETATM   14  C   UNL     1     -42.174 -54.134  13.379  1.00  0.00     0.166 C 
BRANCH  14  15
HETATM   15  N   UNL     1     -43.283 -53.369  13.952  1.00  0.00    -0.307 N 
HETATM   16  C   UNL     1     -43.328 -53.070  15.286  1.00  0.00     0.186 C 
HETATM   17  N   UNL     1     -44.290 -52.439  15.873  1.00  0.00    -0.355 N 
HETATM   18  C   UNL     1     -45.316 -51.974  15.089  1.00  0.00     0.017 C 
ATOM     19  HN  UNL     1     -44.288 -52.292  16.883  1.00  0.00     0.166 HD
HETATM   20  C   UNL     1     -46.350 -51.159  15.822  1.00  0.00     0.069 C 
HETATM   21  C   UNL     1     -45.406 -52.202  13.766  1.00  0.00     0.028 C 
HETATM   22  C   UNL     1     -46.420 -51.648  12.816  1.00  0.00     0.056 C 
HETATM   23  C   UNL     1     -44.373 -53.081  13.164  1.00  0.00     0.256 C 
HETATM   24  O   UNL     1     -44.502 -53.513  12.019  1.00  0.00    -0.267 OA
ENDBRANCH  14  15
ENDBRANCH   1  14
TORSDOF 7
ENDMDL
MODEL 5
REMARK VINA RESULT:      -5.2      2.232      3.751
REMARK  7 active torsions:
REMARK  status: ('A' for Active; 'I' for Inactive)
REMARK    1  A    between atoms: C_2  and  C_3 
REMARK    2  A    between atoms: C_6  and  O_7 
REMARK    3  A    between atoms: O_7  and  C_8 
REMARK    4  A    between atoms: C_8  and  C_9 
REMARK    5  A    between atoms: C_9  and  O_10 
REMARK    6  A    between atoms: C_9  and  C_11 
REMARK    7  A    between atoms: C_11  and  N_12 
ROOT
HETATM    1  C   UNL     1     -38.463 -50.792  13.168  1.00  0.00     0.161 C 
ENDROOT
BRANCH   1   2
HETATM    2  C   UNL     1     -38.691 -51.936  14.177  1.00  0.00     0.209 C 
BRANCH   2   3
HETATM    3  O   UNL     1     -39.114 -53.085  13.439  1.00  0.00    -0.349 OA
BRANCH   3   4
HETATM    4  C   UNL     1     -40.359 -53.580  13.691  1.00  0.00     0.068 A 
HETATM    5  C   UNL     1     -40.637 -53.800  15.043  1.00  0.00     0.037 A 
HETATM    6  C   UNL     1     -41.915 -54.180  15.454  1.00  0.00     0.010 A 
HETATM    7  C   UNL     1     -42.940 -54.334  14.515  1.00  0.00    -0.058 A 
HETATM    8  C   UNL     1     -42.647 -54.141  13.157  1.00  0.00     0.010 A 
HETATM    9  C   UNL     1     -41.362 -53.770  12.745  1.00  0.00     0.037 A 
BRANCH   7  10
HETATM   10  C   UNL     1     -44.347 -54.628  14.966  1.00  0.00     0.034 C 
HETATM   11  C   UNL     1     -45.227 -55.059  13.799  1.00  0.00     0.010 C 
ENDBRANCH   7  10
ENDBRANCH   3   4
ENDBRANCH   2   3
ENDBRANCH   1   2
BRANCH   1  12
HETATM   12  O   UNL     1     -38.626 -51.318  11.844  1.00  0.00    -0.392 OA
HETATM   13  H   UNL     1     -37.880 -51.033  11.276  1.00  0.00     0.210 HD
ENDBRANCH   1  12
BRANCH   1  14
HETATM   14  C   UNL     1     -39.406 -49.605  13.464  1.00  0.00     0.166 C 
BRANCH  14  15
HETATM   15  N   UNL     1     -40.819 -49.989  13.505  1.00  0.00    -0.307 N 
HETATM   16  C   UNL     1     -41.551 -50.134  12.359  1.00  0.00     0.186 C 
HETATM   17  N   UNL     1     -42.809 -50.426  12.314  1.00  0.00    -0.355 N 
HETATM   18  C   UNL     1     -43.446 -50.678  13.503  1.00  0.00     0.017 C 
ATOM     19  HN  UNL     1     -43.310 -50.469  11.427  1.00  0.00     0.166 HD
HETATM   20  C   UNL     1     -44.881 -51.114  13.370  1.00  0.00     0.069 C 
HETATM   21  C   UNL     1     -42.851 -50.565  14.705  1.00  0.00     0.028 C 
HETATM   22  C   UNL     1     -43.427 -50.921  16.039  1.00  0.00     0.056 C 
HETATM   23  C   UNL     1     -41.459 -50.054  14.721  1.00  0.00     0.256 C 
HETATM   24  O   UNL     1     -40.921 -49.718  15.777  1.00  0.00    -0.267 OA
ENDBRANCH  14  15
ENDBRANCH   1  14
TORSDOF 7
ENDMDL
MODEL 6
REMARK VINA RESULT:      -5.2      1.364      2.070
REMARK  7 active torsions:
REMARK  status: ('A' for Active; 'I' for Inactive)
REMARK    1  A    between atoms: C_2  and  C_3 
REMARK    2  A    between atoms: C_6  and  O_7 
REMARK    3  A    between atoms: O_7  and  C_8 
REMARK    4  A    between atoms: C_8  and  C_9 
REMARK    5  A    between atoms: C_9  and  O_10 
REMARK    6  A    between atoms: C_9  and  C_11 
REMARK    7  A    between atoms: C_11  and  N_12 
ROOT
HETATM    1  C   UNL     1     -41.503 -53.288  12.596  1.00  0.00     0.161 C 
ENDROOT
BRANCH   1   2
HETATM    2  C   UNL     1     -41.597 -51.814  13.036  1.00  0.00     0.209 C 
BRANCH   2   3
HETATM    3  O   UNL     1     -42.819 -51.284  12.515  1.00  0.00    -0.349 OA
BRANCH   3   4
HETATM    4  C   UNL     1     -43.866 -51.138  13.376  1.00  0.00     0.068 A 
HETATM    5  C   UNL     1     -45.092 -51.595  12.886  1.00  0.00     0.037 A 
HETATM    6  C   UNL     1     -46.220 -51.625  13.708  1.00  0.00     0.010 A 
HETATM    7  C   UNL     1     -46.132 -51.207  15.039  1.00  0.00    -0.058 A 
HETATM    8  C   UNL     1     -44.906 -50.721  15.516  1.00  0.00     0.010 A 
HETATM    9  C   UNL     1     -43.778 -50.682  14.687  1.00  0.00     0.037 A 
BRANCH   7  10
HETATM   10  C   UNL     1     -47.315 -51.349  15.961  1.00  0.00     0.034 C 
HETATM   11  C   UNL     1     -47.038 -50.725  17.324  1.00  0.00     0.010 C 
ENDBRANCH   7  10
ENDBRANCH   3   4
ENDBRANCH   2   3
ENDBRANCH   1   2
BRANCH   1  12
HETATM   12  O   UNL     1     -40.479 -53.398  11.598  1.00  0.00    -0.392 OA
HETATM   13  H   UNL     1     -39.623 -53.086  11.960  1.00  0.00     0.210 HD
ENDBRANCH   1  12
BRANCH   1  14
HETATM   14  C   UNL     1     -41.257 -54.209  13.813  1.00  0.00     0.166 C 
BRANCH  14  15
HETATM   15  N   UNL     1     -42.352 -54.179  14.786  1.00  0.00    -0.307 N 
HETATM   16  C   UNL     1     -43.617 -54.574  14.448  1.00  0.00     0.186 C 
HETATM   17  N   UNL     1     -44.641 -54.535  15.233  1.00  0.00    -0.355 N 
HETATM   18  C   UNL     1     -44.434 -54.130  16.528  1.00  0.00     0.017 C 
ATOM     19  HN  UNL     1     -45.571 -54.797  14.903  1.00  0.00     0.166 HD
HETATM   20  C   UNL     1     -45.649 -54.209  17.415  1.00  0.00     0.069 C 
HETATM   21  C   UNL     1     -43.245 -53.707  16.995  1.00  0.00     0.028 C 
HETATM   22  C   UNL     1     -42.899 -53.353  18.407  1.00  0.00     0.056 C 
HETATM   23  C   UNL     1     -42.138 -53.598  16.014  1.00  0.00     0.256 C 
HETATM   24  O   UNL     1     -41.091 -53.020  16.306  1.00  0.00    -0.267 OA
ENDBRANCH  14  15
ENDBRANCH   1  14
TORSDOF 7
ENDMDL
MODEL 7
REMARK VINA RESULT:      -5.2      2.478      3.632
REMARK  7 active torsions:
REMARK  status: ('A' for Active; 'I' for Inactive)
REMARK    1  A    between atoms: C_2  and  C_3 
REMARK    2  A    between atoms: C_6  and  O_7 
REMARK    3  A    between atoms: O_7  and  C_8 
REMARK    4  A    between atoms: C_8  and  C_9 
REMARK    5  A    between atoms: C_9  and  O_10 
REMARK    6  A    between atoms: C_9  and  C_11 
REMARK    7  A    between atoms: C_11  and  N_12 
ROOT
HETATM    1  C   UNL     1     -39.568 -50.056  11.905  1.00  0.00     0.161 C 
ENDROOT
BRANCH   1   2
HETATM    2  C   UNL     1     -39.638 -48.864  12.879  1.00  0.00     0.209 C 
BRANCH   2   3
HETATM    3  O   UNL     1     -40.935 -48.277  12.752  1.00  0.00    -0.349 OA
BRANCH   3   4
HETATM    4  C   UNL     1     -41.954 -48.823  13.475  1.00  0.00     0.068 A 
HETATM    5  C   UNL     1     -43.009 -49.327  12.710  1.00  0.00     0.037 A 
HETATM    6  C   UNL     1     -44.054 -50.029  13.313  1.00  0.00     0.010 A 
HETATM    7  C   UNL     1     -44.051 -50.245  14.694  1.00  0.00    -0.058 A 
HETATM    8  C   UNL     1     -43.006 -49.711  15.461  1.00  0.00     0.010 A 
HETATM    9  C   UNL     1     -41.964 -48.999  14.856  1.00  0.00     0.037 A 
BRANCH   7  10
HETATM   10  C   UNL     1     -45.115 -51.101  15.332  1.00  0.00     0.034 C 
HETATM   11  C   UNL     1     -46.266 -51.369  14.371  1.00  0.00     0.010 C 
ENDBRANCH   7  10
ENDBRANCH   3   4
ENDBRANCH   2   3
ENDBRANCH   1   2
BRANCH   1  12
HETATM   12  O   UNL     1     -38.491 -49.825  10.985  1.00  0.00    -0.392 OA
HETATM   13  H   UNL     1     -37.847 -49.198  11.374  1.00  0.00     0.210 HD
ENDBRANCH   1  12
BRANCH   1  14
HETATM   14  C   UNL     1     -39.424 -51.388  12.675  1.00  0.00     0.166 C 
BRANCH  14  15
HETATM   15  N   UNL     1     -40.684 -52.126  12.787  1.00  0.00    -0.307 N 
HETATM   16  C   UNL     1     -41.510 -52.292  11.710  1.00  0.00     0.186 C 
HETATM   17  N   UNL     1     -42.654 -52.890  11.737  1.00  0.00    -0.355 N 
HETATM   18  C   UNL     1     -43.044 -53.462  12.923  1.00  0.00     0.017 C 
ATOM     19  HN  UNL     1     -43.247 -52.936  10.909  1.00  0.00     0.166 HD
HETATM   20  C   UNL     1     -44.338 -54.231  12.857  1.00  0.00     0.069 C 
HETATM   21  C   UNL     1     -42.335 -53.370  14.063  1.00  0.00     0.028 C 
HETATM   22  C   UNL     1     -42.621 -54.046  15.366  1.00  0.00     0.056 C 
HETATM   23  C   UNL     1     -41.117 -52.524  14.031  1.00  0.00     0.256 C 
HETATM   24  O   UNL     1     -40.537 -52.212  15.071  1.00  0.00    -0.267 OA
ENDBRANCH  14  15
ENDBRANCH   1  14
TORSDOF 7
ENDMDL
MODEL 8
REMARK VINA RESULT:      -5.2      4.231      6.837
REMARK  7 active torsions:
REMARK  status: ('A' for Active; 'I' for Inactive)
REMARK    1  A    between atoms: C_2  and  C_3 
REMARK    2  A    between atoms: C_6  and  O_7 
REMARK    3  A    between atoms: O_7  and  C_8 
REMARK    4  A    between atoms: C_8  and  C_9 
REMARK    5  A    between atoms: C_9  and  O_10 
REMARK    6  A    between atoms: C_9  and  C_11 
REMARK    7  A    between atoms: C_11  and  N_12 
ROOT
HETATM    1  C   UNL     1     -41.799 -51.861  12.073  1.00  0.00     0.161 C 
ENDROOT
BRANCH   1   2
HETATM    2  C   UNL     1     -40.879 -52.630  13.041  1.00  0.00     0.209 C 
BRANCH   2   3
HETATM    3  O   UNL     1     -39.529 -52.399  12.630  1.00  0.00    -0.349 OA
BRANCH   3   4
HETATM    4  C   UNL     1     -38.855 -51.367  13.213  1.00  0.00     0.068 A 
HETATM    5  C   UNL     1     -38.315 -50.442  12.317  1.00  0.00     0.037 A 
HETATM    6  C   UNL     1     -37.713 -49.270  12.779  1.00  0.00     0.010 A 
HETATM    7  C   UNL     1     -37.654 -49.003  14.150  1.00  0.00    -0.058 A 
HETATM    8  C   UNL     1     -38.171 -49.950  15.046  1.00  0.00     0.010 A 
HETATM    9  C   UNL     1     -38.765 -51.129  14.581  1.00  0.00     0.037 A 
BRANCH   7  10
HETATM   10  C   UNL     1     -37.112 -47.688  14.647  1.00  0.00     0.034 C 
HETATM   11  C   UNL     1     -37.713 -47.312  15.996  1.00  0.00     0.010 C 
ENDBRANCH   7  10
ENDBRANCH   3   4
ENDBRANCH   2   3
ENDBRANCH   1   2
BRANCH   1  12
HETATM   12  O   UNL     1     -42.789 -52.770  11.572  1.00  0.00    -0.392 OA
HETATM   13  H   UNL     1     -42.619 -53.672  11.913  1.00  0.00     0.210 HD
ENDBRANCH   1  12
BRANCH   1  14
HETATM   14  C   UNL     1     -42.415 -50.625  12.767  1.00  0.00     0.166 C 
BRANCH  14  15
HETATM   15  N   UNL     1     -41.763 -49.369  12.387  1.00  0.00    -0.307 N 
HETATM   16  C   UNL     1     -41.433 -49.102  11.087  1.00  0.00     0.186 C 
HETATM   17  N   UNL     1     -40.820 -48.041  10.679  1.00  0.00    -0.355 N 
HETATM   18  C   UNL     1     -40.536 -47.075  11.611  1.00  0.00     0.017 C 
ATOM     19  HN  UNL     1     -40.556 -47.926   9.701  1.00  0.00     0.166 HD
HETATM   20  C   UNL     1     -39.915 -45.821  11.051  1.00  0.00     0.069 C 
HETATM   21  C   UNL     1     -40.796 -47.206  12.925  1.00  0.00     0.028 C 
HETATM   22  C   UNL     1     -40.625 -46.172  13.992  1.00  0.00     0.056 C 
HETATM   23  C   UNL     1     -41.337 -48.512  13.375  1.00  0.00     0.256 C 
HETATM   24  O   UNL     1     -41.398 -48.791  14.573  1.00  0.00    -0.267 OA
ENDBRANCH  14  15
ENDBRANCH   1  14
TORSDOF 7
ENDMDL
MODEL 9
REMARK VINA RESULT:      -5.1      3.068      4.737
REMARK  7 active torsions:
REMARK  status: ('A' for Active; 'I' for Inactive)
REMARK    1  A    between atoms: C_2  and  C_3 
REMARK    2  A    between atoms: C_6  and  O_7 
REMARK    3  A    between atoms: O_7  and  C_8 
REMARK    4  A    between atoms: C_8  and  C_9 
REMARK    5  A    between atoms: C_9  and  O_10 
REMARK    6  A    between atoms: C_9  and  C_11 
REMARK    7  A    between atoms: C_11  and  N_12 
ROOT
HETATM    1  C   UNL     1     -39.959 -53.794  13.458  1.00  0.00     0.161 C 
ENDROOT
BRANCH   1   2
HETATM    2  C   UNL     1     -39.341 -52.507  14.038  1.00  0.00     0.209 C 
BRANCH   2   3
HETATM    3  O   UNL     1     -38.603 -51.871  12.992  1.00  0.00    -0.349 OA
BRANCH   3   4
HETATM    4  C   UNL     1     -38.943 -50.593  12.660  1.00  0.00     0.068 A 
HETATM    5  C   UNL     1     -40.015 -50.486  11.770  1.00  0.00     0.037 A 
HETATM    6  C   UNL     1     -40.550 -49.238  11.447  1.00  0.00     0.010 A 
HETATM    7  C   UNL     1     -40.025 -48.077  12.022  1.00  0.00    -0.058 A 
HETATM    8  C   UNL     1     -38.930 -48.188  12.891  1.00  0.00     0.010 A 
HETATM    9  C   UNL     1     -38.387 -49.440  13.206  1.00  0.00     0.037 A 
BRANCH   7  10
HETATM   10  C   UNL     1     -40.675 -46.742  11.769  1.00  0.00     0.034 C 
HETATM   11  C   UNL     1     -39.884 -45.921  10.757  1.00  0.00     0.010 C 
ENDBRANCH   7  10
ENDBRANCH   3   4
ENDBRANCH   2   3
ENDBRANCH   1   2
BRANCH   1  12
HETATM   12  O   UNL     1     -38.914 -54.763  13.293  1.00  0.00    -0.392 OA
HETATM   13  H   UNL     1     -38.040 -54.325  13.348  1.00  0.00     0.210 HD
ENDBRANCH   1  12
BRANCH   1  14
HETATM   14  C   UNL     1     -41.113 -54.300  14.353  1.00  0.00     0.166 C 
BRANCH  14  15
HETATM   15  N   UNL     1     -42.435 -53.892  13.871  1.00  0.00    -0.307 N 
HETATM   16  C   UNL     1     -42.596 -52.787  13.082  1.00  0.00     0.186 C 
HETATM   17  N   UNL     1     -43.729 -52.338  12.656  1.00  0.00    -0.355 N 
HETATM   18  C   UNL     1     -44.854 -53.062  12.961  1.00  0.00     0.017 C 
ATOM     19  HN  UNL     1     -43.786 -51.477  12.112  1.00  0.00     0.166 HD
HETATM   20  C   UNL     1     -46.126 -52.540  12.345  1.00  0.00     0.069 C 
HETATM   21  C   UNL     1     -44.845 -54.163  13.734  1.00  0.00     0.028 C 
HETATM   22  C   UNL     1     -45.994 -55.074  14.029  1.00  0.00     0.056 C 
HETATM   23  C   UNL     1     -43.550 -54.542  14.349  1.00  0.00     0.256 C 
HETATM   24  O   UNL     1     -43.496 -55.397  15.233  1.00  0.00    -0.267 OA
ENDBRANCH  14  15
ENDBRANCH   1  14
TORSDOF 7
ENDMDL
