MODEL 1
REMARK VINA RESULT:      -7.2      0.000      0.000
REMARK  6 active torsions:
REMARK  status: ('A' for Active; 'I' for Inactive)
REMARK    1  A    between atoms: C_2  and  N_4 
REMARK    2  A    between atoms: N_3  and  C_12 
REMARK    3  A    between atoms: C_8  and  C_20 
REMARK    4  A    between atoms: C_10  and  C_12 
REMARK    5  A    between atoms: C_10  and  O_24 
REMARK    6  A    between atoms: C_20  and  C_28 
ROOT
HETATM    1  C   UNL     1     -41.590 -50.014  12.077  1.00  0.00     0.122 A 
HETATM    2  C   UNL     1     -41.101 -48.695  11.876  1.00  0.00     0.136 A 
HETATM    3  N   UNL     1     -41.351 -52.185  12.332  1.00  0.00    -0.324 N 
HETATM    4  C   UNL     1     -40.670 -51.050  11.981  1.00  0.00     0.140 A 
HETATM    5  N   UNL     1     -42.830 -50.526  12.417  1.00  0.00    -0.346 N 
ATOM      6  HN  UNL     1     -43.706 -50.011  12.509  1.00  0.00     0.167 HD
HETATM    7  C   UNL     1     -42.640 -51.818  12.596  1.00  0.00     0.185 A 
HETATM    8  N   UNL     1     -39.765 -48.587  11.591  1.00  0.00    -0.337 N 
ATOM      9  HN  UNL     1     -39.347 -47.666  11.459  1.00  0.00     0.168 HD
HETATM   10  N   UNL     1     -39.370 -50.971  11.663  1.00  0.00    -0.336 N 
ATOM     11  HN  UNL     1     -38.746 -51.773  11.569  1.00  0.00     0.168 HD
HETATM   12  C   UNL     1     -39.001 -49.693  11.484  1.00  0.00     0.183 A 
ENDROOT
BRANCH   2  13
HETATM   13  N   UNL     1     -41.836 -47.521  11.939  1.00  0.00    -0.350 N 
HETATM   14  C   UNL     1     -42.462 -46.917  10.736  1.00  0.00     0.178 C 
HETATM   15  C   UNL     1     -42.569 -45.382  10.943  1.00  0.00     0.240 C 
HETATM   16  O   UNL     1     -42.441 -44.565  10.030  1.00  0.00    -0.271 OA
HETATM   17  N   UNL     1     -42.962 -44.943  12.191  1.00  0.00    -0.358 N 
HETATM   18  C   UNL     1     -42.540 -45.655  13.384  1.00  0.00     0.142 C 
HETATM   19  H   UNL     1     -43.000 -43.933  12.243  1.00  0.00     0.162 HD
HETATM   20  C   UNL     1     -42.441 -47.179  13.230  1.00  0.00     0.145 C 
BRANCH  14  21
HETATM   21  C   UNL     1     -43.881 -47.477  10.493  1.00  0.00     0.039 C 
BRANCH  21  22
HETATM   22  C   UNL     1     -44.478 -47.185   9.099  1.00  0.00    -0.020 C 
HETATM   23  C   UNL     1     -43.620 -47.710   7.949  1.00  0.00     0.009 C 
HETATM   24  C   UNL     1     -45.882 -47.791   9.006  1.00  0.00     0.009 C 
ENDBRANCH  21  22
ENDBRANCH  14  21
ENDBRANCH   2  13
BRANCH   3  25
HETATM   25  C   UNL     1     -40.753 -53.479  12.600  1.00  0.00     0.172 C 
BRANCH  25  26
HETATM   26  C   UNL     1     -40.452 -53.792  14.075  1.00  0.00     0.102 C 
HETATM   27  C   UNL     1     -39.830 -52.631  14.878  1.00  0.00     0.153 C 
HETATM   28  O   UNL     1     -38.900 -53.214  15.823  1.00  0.00    -0.383 OA
HETATM   29  C   UNL     1     -40.802 -51.770  15.666  1.00  0.00     0.042 C 
HETATM   30  C   UNL     1     -38.857 -54.627  15.599  1.00  0.00     0.171 C 
HETATM   31  C   UNL     1     -39.339 -54.830  14.180  1.00  0.00     0.068 C 
BRANCH  26  32
HETATM   32  O   UNL     1     -41.588 -54.372  14.730  1.00  0.00    -0.385 OA
HETATM   33  H   UNL     1     -41.476 -55.340  14.792  1.00  0.00     0.210 HD
ENDBRANCH  26  32
ENDBRANCH  25  26
ENDBRANCH   3  25
TORSDOF 6
ENDMDL
MODEL 2
REMARK VINA RESULT:      -7.2      2.558      3.383
REMARK  6 active torsions:
REMARK  status: ('A' for Active; 'I' for Inactive)
REMARK    1  A    between atoms: C_2  and  N_4 
REMARK    2  A    between atoms: N_3  and  C_12 
REMARK    3  A    between atoms: C_8  and  C_20 
REMARK    4  A    between atoms: C_10  and  C_12 
REMARK    5  A    between atoms: C_10  and  O_24 
REMARK    6  A    between atoms: C_20  and  C_28 
ROOT
HETATM    1  C   UNL     1     -41.740 -48.895  12.716  1.00  0.00     0.122 A 
HETATM    2  C   UNL     1     -40.804 -48.221  11.885  1.00  0.00     0.136 A 
HETATM    3  N   UNL     1     -42.631 -50.688  13.625  1.00  0.00    -0.324 N 
HETATM    4  C   UNL     1     -41.748 -50.282  12.660  1.00  0.00     0.140 A 
HETATM    5  N   UNL     1     -42.656 -48.464  13.659  1.00  0.00    -0.346 N 
ATOM      6  HN  UNL     1     -42.904 -47.500  13.883  1.00  0.00     0.167 HD
HETATM    7  C   UNL     1     -43.142 -49.561  14.205  1.00  0.00     0.185 A 
HETATM    8  N   UNL     1     -40.015 -49.018  11.099  1.00  0.00    -0.337 N 
ATOM      9  HN  UNL     1     -39.308 -48.597  10.497  1.00  0.00     0.168 HD
HETATM   10  N   UNL     1     -41.016 -51.080  11.869  1.00  0.00    -0.336 N 
ATOM     11  HN  UNL     1     -41.091 -52.097  11.842  1.00  0.00     0.168 HD
HETATM   12  C   UNL     1     -40.171 -50.358  11.117  1.00  0.00     0.183 A 
ENDROOT
BRANCH   2  13
HETATM   13  N   UNL     1     -40.616 -46.850  11.794  1.00  0.00    -0.350 N 
HETATM   14  C   UNL     1     -40.936 -46.090  10.559  1.00  0.00     0.178 C 
HETATM   15  C   UNL     1     -40.019 -44.839  10.488  1.00  0.00     0.240 C 
HETATM   16  O   UNL     1     -39.580 -44.381   9.432  1.00  0.00    -0.271 OA
HETATM   17  N   UNL     1     -39.811 -44.145  11.662  1.00  0.00    -0.358 N 
HETATM   18  C   UNL     1     -39.715 -44.857  12.925  1.00  0.00     0.142 C 
HETATM   19  H   UNL     1     -39.198 -43.351  11.530  1.00  0.00     0.162 HD
HETATM   20  C   UNL     1     -40.621 -46.090  13.048  1.00  0.00     0.145 C 
BRANCH  14  21
HETATM   21  C   UNL     1     -42.407 -45.619  10.549  1.00  0.00     0.039 C 
BRANCH  21  22
HETATM   22  C   UNL     1     -43.344 -46.397   9.599  1.00  0.00    -0.020 C 
HETATM   23  C   UNL     1     -44.109 -47.524  10.292  1.00  0.00     0.009 C 
HETATM   24  C   UNL     1     -44.338 -45.428   8.952  1.00  0.00     0.009 C 
ENDBRANCH  21  22
ENDBRANCH  14  21
ENDBRANCH   2  13
BRANCH   3  25
HETATM   25  C   UNL     1     -42.802 -52.050  14.093  1.00  0.00     0.172 C 
BRANCH  25  26
HETATM   26  C   UNL     1     -43.904 -52.869  13.401  1.00  0.00     0.102 C 
HETATM   27  C   UNL     1     -45.347 -52.491  13.796  1.00  0.00     0.153 C 
HETATM   28  O   UNL     1     -46.124 -53.713  13.798  1.00  0.00    -0.383 OA
HETATM   29  C   UNL     1     -46.051 -51.505  12.880  1.00  0.00     0.042 C 
HETATM   30  C   UNL     1     -45.245 -54.806  13.511  1.00  0.00     0.171 C 
HETATM   31  C   UNL     1     -43.859 -54.320  13.870  1.00  0.00     0.068 C 
BRANCH  26  32
HETATM   32  O   UNL     1     -43.712 -52.913  11.982  1.00  0.00    -0.385 OA
HETATM   33  H   UNL     1     -42.904 -52.419  11.741  1.00  0.00     0.210 HD
ENDBRANCH  26  32
ENDBRANCH  25  26
ENDBRANCH   3  25
TORSDOF 6
ENDMDL
MODEL 3
REMARK VINA RESULT:      -6.7      2.204      3.112
REMARK  6 active torsions:
REMARK  status: ('A' for Active; 'I' for Inactive)
REMARK    1  A    between atoms: C_2  and  N_4 
REMARK    2  A    between atoms: N_3  and  C_12 
REMARK    3  A    between atoms: C_8  and  C_20 
REMARK    4  A    between atoms: C_10  and  C_12 
REMARK    5  A    between atoms: C_10  and  O_24 
REMARK    6  A    between atoms: C_20  and  C_28 
ROOT
HETATM    1  C   UNL     1     -39.514 -48.369  12.880  1.00  0.00     0.122 A 
HETATM    2  C   UNL     1     -39.984 -47.146  13.433  1.00  0.00     0.136 A 
HETATM    3  N   UNL     1     -39.095 -50.527  12.947  1.00  0.00    -0.324 N 
HETATM    4  C   UNL     1     -39.450 -49.463  13.734  1.00  0.00     0.140 A 
HETATM    5  N   UNL     1     -39.139 -48.753  11.605  1.00  0.00    -0.346 N 
ATOM      6  HN  UNL     1     -39.043 -48.156  10.784  1.00  0.00     0.167 HD
HETATM    7  C   UNL     1     -38.931 -50.052  11.676  1.00  0.00     0.185 A 
HETATM    8  N   UNL     1     -40.308 -47.174  14.764  1.00  0.00    -0.337 N 
ATOM      9  HN  UNL     1     -40.673 -46.335  15.215  1.00  0.00     0.168 HD
HETATM   10  N   UNL     1     -39.722 -49.503  15.046  1.00  0.00    -0.336 N 
ATOM     11  HN  UNL     1     -39.619 -50.329  15.635  1.00  0.00     0.168 HD
HETATM   12  C   UNL     1     -40.147 -48.306  15.479  1.00  0.00     0.183 A 
ENDROOT
BRANCH   2  13
HETATM   13  N   UNL     1     -40.141 -45.942  12.763  1.00  0.00    -0.350 N 
HETATM   14  C   UNL     1     -40.732 -45.867  11.403  1.00  0.00     0.178 C 
HETATM   15  C   UNL     1     -40.155 -44.625  10.672  1.00  0.00     0.240 C 
HETATM   16  O   UNL     1     -39.925 -44.597   9.463  1.00  0.00    -0.271 OA
HETATM   17  N   UNL     1     -40.028 -43.465  11.410  1.00  0.00    -0.358 N 
HETATM   18  C   UNL     1     -39.662 -43.527  12.815  1.00  0.00     0.142 C 
HETATM   19  H   UNL     1     -39.639 -42.708  10.863  1.00  0.00     0.162 HD
HETATM   20  C   UNL     1     -40.231 -44.729  13.582  1.00  0.00     0.145 C 
BRANCH  14  21
HETATM   21  C   UNL     1     -42.269 -45.728  11.461  1.00  0.00     0.039 C 
BRANCH  21  22
HETATM   22  C   UNL     1     -43.053 -46.654  10.504  1.00  0.00    -0.020 C 
HETATM   23  C   UNL     1     -43.496 -45.960   9.217  1.00  0.00     0.009 C 
HETATM   24  C   UNL     1     -42.196 -47.876  10.156  1.00  0.00     0.009 C 
ENDBRANCH  21  22
ENDBRANCH  14  21
ENDBRANCH   2  13
BRANCH   3  25
HETATM   25  C   UNL     1     -39.124 -51.919  13.349  1.00  0.00     0.172 C 
BRANCH  25  26
HETATM   26  C   UNL     1     -40.414 -52.690  13.022  1.00  0.00     0.102 C 
HETATM   27  C   UNL     1     -41.717 -52.024  13.509  1.00  0.00     0.153 C 
HETATM   28  O   UNL     1     -42.621 -53.086  13.900  1.00  0.00    -0.383 OA
HETATM   29  C   UNL     1     -42.443 -51.158  12.494  1.00  0.00     0.042 C 
HETATM   30  C   UNL     1     -41.935 -54.335  13.758  1.00  0.00     0.171 C 
HETATM   31  C   UNL     1     -40.462 -53.999  13.803  1.00  0.00     0.068 C 
BRANCH  26  32
HETATM   32  O   UNL     1     -40.466 -53.061  11.638  1.00  0.00    -0.385 OA
HETATM   33  H   UNL     1     -41.254 -52.666  11.219  1.00  0.00     0.210 HD
ENDBRANCH  26  32
ENDBRANCH  25  26
ENDBRANCH   3  25
TORSDOF 6
ENDMDL
MODEL 4
REMARK VINA RESULT:      -6.6      2.788      7.321
REMARK  6 active torsions:
REMARK  status: ('A' for Active; 'I' for Inactive)
REMARK    1  A    between atoms: C_2  and  N_4 
REMARK    2  A    between atoms: N_3  and  C_12 
REMARK    3  A    between atoms: C_8  and  C_20 
REMARK    4  A    between atoms: C_10  and  C_12 
REMARK    5  A    between atoms: C_10  and  O_24 
REMARK    6  A    between atoms: C_20  and  C_28 
ROOT
HETATM    1  C   UNL     1     -41.839 -50.341  13.242  1.00  0.00     0.122 A 
HETATM    2  C   UNL     1     -42.161 -51.096  14.402  1.00  0.00     0.136 A 
HETATM    3  N   UNL     1     -40.973 -48.611  12.197  1.00  0.00    -0.324 N 
HETATM    4  C   UNL     1     -41.308 -49.074  13.442  1.00  0.00     0.140 A 
HETATM    5  N   UNL     1     -41.886 -50.616  11.887  1.00  0.00    -0.346 N 
ATOM      6  HN  UNL     1     -42.271 -51.447  11.439  1.00  0.00     0.167 HD
HETATM    7  C   UNL     1     -41.328 -49.577  11.298  1.00  0.00     0.185 A 
HETATM    8  N   UNL     1     -41.927 -50.481  15.604  1.00  0.00    -0.337 N 
ATOM      9  HN  UNL     1     -42.115 -50.978  16.474  1.00  0.00     0.168 HD
HETATM   10  N   UNL     1     -41.110 -48.436  14.604  1.00  0.00    -0.336 N 
ATOM     11  HN  UNL     1     -40.751 -47.485  14.691  1.00  0.00     0.168 HD
HETATM   12  C   UNL     1     -41.449 -49.220  15.639  1.00  0.00     0.183 A 
ENDROOT
BRANCH   2  13
HETATM   13  N   UNL     1     -42.684 -52.380  14.435  1.00  0.00    -0.350 N 
HETATM   14  C   UNL     1     -44.136 -52.636  14.610  1.00  0.00     0.178 C 
HETATM   15  C   UNL     1     -44.324 -54.018  15.294  1.00  0.00     0.240 C 
HETATM   16  O   UNL     1     -45.226 -54.258  16.097  1.00  0.00    -0.271 OA
HETATM   17  N   UNL     1     -43.512 -55.047  14.863  1.00  0.00    -0.358 N 
HETATM   18  C   UNL     1     -42.138 -54.781  14.472  1.00  0.00     0.142 C 
HETATM   19  H   UNL     1     -43.694 -55.908  15.363  1.00  0.00     0.162 HD
HETATM   20  C   UNL     1     -41.911 -53.434  13.772  1.00  0.00     0.145 C 
BRANCH  14  21
HETATM   21  C   UNL     1     -44.874 -52.659  13.253  1.00  0.00     0.039 C 
BRANCH  21  22
HETATM   22  C   UNL     1     -45.927 -51.546  13.055  1.00  0.00    -0.020 C 
HETATM   23  C   UNL     1     -46.865 -51.802  11.876  1.00  0.00     0.009 C 
HETATM   24  C   UNL     1     -46.751 -51.386  14.337  1.00  0.00     0.009 C 
ENDBRANCH  21  22
ENDBRANCH  14  21
ENDBRANCH   2  13
BRANCH   3  25
HETATM   25  C   UNL     1     -40.179 -47.429  11.921  1.00  0.00     0.172 C 
BRANCH  25  26
HETATM   26  C   UNL     1     -40.883 -46.310  11.137  1.00  0.00     0.102 C 
HETATM   27  C   UNL     1     -40.103 -44.981  11.049  1.00  0.00     0.153 C 
HETATM   28  O   UNL     1     -41.076 -43.910  11.086  1.00  0.00    -0.383 OA
HETATM   29  C   UNL     1     -39.257 -44.787   9.802  1.00  0.00     0.042 C 
HETATM   30  C   UNL     1     -42.374 -44.487  11.267  1.00  0.00     0.171 C 
HETATM   31  C   UNL     1     -42.134 -45.849  11.878  1.00  0.00     0.068 C 
BRANCH  26  32
HETATM   32  O   UNL     1     -41.337 -46.771   9.858  1.00  0.00    -0.385 OA
HETATM   33  H   UNL     1     -41.029 -46.163   9.159  1.00  0.00     0.210 HD
ENDBRANCH  26  32
ENDBRANCH  25  26
ENDBRANCH   3  25
TORSDOF 6
ENDMDL
MODEL 5
REMARK VINA RESULT:      -6.6      2.375      7.294
REMARK  6 active torsions:
REMARK  status: ('A' for Active; 'I' for Inactive)
REMARK    1  A    between atoms: C_2  and  N_4 
REMARK    2  A    between atoms: N_3  and  C_12 
REMARK    3  A    between atoms: C_8  and  C_20 
REMARK    4  A    between atoms: C_10  and  C_12 
REMARK    5  A    between atoms: C_10  and  O_24 
REMARK    6  A    between atoms: C_20  and  C_28 
ROOT
HETATM    1  C   UNL     1     -41.174 -49.467  12.396  1.00  0.00     0.122 A 
HETATM    2  C   UNL     1     -40.909 -50.457  13.381  1.00  0.00     0.136 A 
HETATM    3  N   UNL     1     -40.819 -47.542  11.395  1.00  0.00    -0.324 N 
HETATM    4  C   UNL     1     -40.490 -48.264  12.512  1.00  0.00     0.140 A 
HETATM    5  N   UNL     1     -41.958 -49.447  11.257  1.00  0.00    -0.346 N 
ATOM      6  HN  UNL     1     -42.606 -50.169  10.941  1.00  0.00     0.167 HD
HETATM    7  C   UNL     1     -41.693 -48.298  10.667  1.00  0.00     0.185 A 
HETATM    8  N   UNL     1     -40.013 -50.109  14.357  1.00  0.00    -0.337 N 
ATOM      9  HN  UNL     1     -39.762 -50.783  15.080  1.00  0.00     0.168 HD
HETATM   10  N   UNL     1     -39.642 -47.887  13.479  1.00  0.00    -0.336 N 
ATOM     11  HN  UNL     1     -39.195 -46.971  13.534  1.00  0.00     0.168 HD
HETATM   12  C   UNL     1     -39.461 -48.879  14.364  1.00  0.00     0.183 A 
ENDROOT
BRANCH   2  13
HETATM   13  N   UNL     1     -41.465 -51.726  13.450  1.00  0.00    -0.350 N 
HETATM   14  C   UNL     1     -42.748 -51.987  14.148  1.00  0.00     0.178 C 
HETATM   15  C   UNL     1     -42.750 -53.452  14.664  1.00  0.00     0.240 C 
HETATM   16  O   UNL     1     -43.283 -53.797  15.719  1.00  0.00    -0.271 OA
HETATM   17  N   UNL     1     -42.243 -54.416  13.817  1.00  0.00    -0.358 N 
HETATM   18  C   UNL     1     -41.115 -54.112  12.954  1.00  0.00     0.142 C 
HETATM   19  H   UNL     1     -42.274 -55.339  14.231  1.00  0.00     0.162 HD
HETATM   20  C   UNL     1     -41.085 -52.680  12.403  1.00  0.00     0.145 C 
BRANCH  14  21
HETATM   21  C   UNL     1     -43.956 -51.801  13.203  1.00  0.00     0.039 C 
BRANCH  21  22
HETATM   22  C   UNL     1     -45.343 -51.935  13.868  1.00  0.00    -0.020 C 
HETATM   23  C   UNL     1     -45.513 -51.049  15.101  1.00  0.00     0.009 C 
HETATM   24  C   UNL     1     -46.436 -51.603  12.846  1.00  0.00     0.009 C 
ENDBRANCH  21  22
ENDBRANCH  14  21
ENDBRANCH   2  13
BRANCH   3  25
HETATM   25  C   UNL     1     -40.173 -46.317  10.962  1.00  0.00     0.172 C 
BRANCH  25  26
HETATM   26  C   UNL     1     -40.585 -45.037  11.707  1.00  0.00     0.102 C 
HETATM   27  C   UNL     1     -42.104 -44.854  11.907  1.00  0.00     0.153 C 
HETATM   28  O   UNL     1     -42.381 -43.437  11.807  1.00  0.00    -0.383 OA
HETATM   29  C   UNL     1     -42.663 -45.336  13.234  1.00  0.00     0.042 C 
HETATM   30  C   UNL     1     -41.161 -42.760  11.486  1.00  0.00     0.171 C 
HETATM   31  C   UNL     1     -40.266 -43.807  10.862  1.00  0.00     0.068 C 
BRANCH  26  32
HETATM   32  O   UNL     1     -39.843 -44.876  12.923  1.00  0.00    -0.385 OA
HETATM   33  H   UNL     1     -40.455 -44.710  13.664  1.00  0.00     0.210 HD
ENDBRANCH  26  32
ENDBRANCH  25  26
ENDBRANCH   3  25
TORSDOF 6
ENDMDL
MODEL 6
REMARK VINA RESULT:      -6.5      1.413      2.326
REMARK  6 active torsions:
REMARK  status: ('A' for Active; 'I' for Inactive)
REMARK    1  A    between atoms: C_2  and  N_4 
REMARK    2  A    between atoms: N_3  and  C_12 
REMARK    3  A    between atoms: C_8  and  C_20 
REMARK    4  A    between atoms: C_10  and  C_12 
REMARK    5  A    between atoms: C_10  and  O_24 
REMARK    6  A    between atoms: C_20  and  C_28 
ROOT
HETATM    1  C   UNL     1     -41.104 -49.120  12.057  1.00  0.00     0.122 A 
HETATM    2  C   UNL     1     -42.039 -48.058  12.183  1.00  0.00     0.136 A 
HETATM    3  N   UNL     1     -40.498 -51.232  12.157  1.00  0.00    -0.324 N 
HETATM    4  C   UNL     1     -41.510 -50.374  12.496  1.00  0.00     0.140 A 
HETATM    5  N   UNL     1     -39.833 -49.207  11.518  1.00  0.00    -0.346 N 
ATOM      6  HN  UNL     1     -39.260 -48.442  11.162  1.00  0.00     0.167 HD
HETATM    7  C   UNL     1     -39.519 -50.487  11.562  1.00  0.00     0.185 A 
HETATM    8  N   UNL     1     -43.246 -48.384  12.745  1.00  0.00    -0.337 N 
ATOM      9  HN  UNL     1     -43.969 -47.671  12.843  1.00  0.00     0.168 HD
HETATM   10  N   UNL     1     -42.667 -50.707  13.086  1.00  0.00    -0.336 N 
ATOM     11  HN  UNL     1     -42.898 -51.640  13.425  1.00  0.00     0.168 HD
HETATM   12  C   UNL     1     -43.480 -49.642  13.169  1.00  0.00     0.183 A 
ENDROOT
BRANCH   2  13
HETATM   13  N   UNL     1     -41.851 -46.739  11.799  1.00  0.00    -0.350 N 
HETATM   14  C   UNL     1     -41.533 -46.363  10.398  1.00  0.00     0.178 C 
HETATM   15  C   UNL     1     -40.718 -45.041  10.405  1.00  0.00     0.240 C 
HETATM   16  O   UNL     1     -39.824 -44.793   9.596  1.00  0.00    -0.271 OA
HETATM   17  N   UNL     1     -41.124 -44.058  11.284  1.00  0.00    -0.358 N 
HETATM   18  C   UNL     1     -41.651 -44.416  12.590  1.00  0.00     0.142 C 
HETATM   19  H   UNL     1     -40.538 -43.235  11.230  1.00  0.00     0.162 HD
HETATM   20  C   UNL     1     -42.483 -45.705  12.625  1.00  0.00     0.145 C 
BRANCH  14  21
HETATM   21  C   UNL     1     -42.816 -46.141   9.567  1.00  0.00     0.039 C 
BRANCH  21  22
HETATM   22  C   UNL     1     -43.601 -47.422   9.208  1.00  0.00    -0.020 C 
HETATM   23  C   UNL     1     -45.091 -47.333   9.539  1.00  0.00     0.009 C 
HETATM   24  C   UNL     1     -43.428 -47.728   7.717  1.00  0.00     0.009 C 
ENDBRANCH  21  22
ENDBRANCH  14  21
ENDBRANCH   2  13
BRANCH   3  25
HETATM   25  C   UNL     1     -40.566 -52.679  12.207  1.00  0.00     0.172 C 
BRANCH  25  26
HETATM   26  C   UNL     1     -40.091 -53.334  13.515  1.00  0.00     0.102 C 
HETATM   27  C   UNL     1     -41.146 -53.394  14.639  1.00  0.00     0.153 C 
HETATM   28  O   UNL     1     -40.446 -53.214  15.893  1.00  0.00    -0.383 OA
HETATM   29  C   UNL     1     -41.938 -54.686  14.739  1.00  0.00     0.042 C 
HETATM   30  C   UNL     1     -39.064 -52.973  15.607  1.00  0.00     0.171 C 
HETATM   31  C   UNL     1     -39.024 -52.471  14.182  1.00  0.00     0.068 C 
BRANCH  26  32
HETATM   32  O   UNL     1     -39.469 -54.602  13.271  1.00  0.00    -0.385 OA
HETATM   33  H   UNL     1     -38.524 -54.559  13.510  1.00  0.00     0.210 HD
ENDBRANCH  26  32
ENDBRANCH  25  26
ENDBRANCH   3  25
TORSDOF 6
ENDMDL
MODEL 7
REMARK VINA RESULT:      -6.4      3.051      7.067
REMARK  6 active torsions:
REMARK  status: ('A' for Active; 'I' for Inactive)
REMARK    1  A    between atoms: C_2  and  N_4 
REMARK    2  A    between atoms: N_3  and  C_12 
REMARK    3  A    between atoms: C_8  and  C_20 
REMARK    4  A    between atoms: C_10  and  C_12 
REMARK    5  A    between atoms: C_10  and  O_24 
REMARK    6  A    between atoms: C_20  and  C_28 
ROOT
HETATM    1  C   UNL     1     -42.638 -50.967  13.621  1.00  0.00     0.122 A 
HETATM    2  C   UNL     1     -42.497 -52.374  13.765  1.00  0.00     0.136 A 
HETATM    3  N   UNL     1     -42.427 -49.068  12.531  1.00  0.00    -0.324 N 
HETATM    4  C   UNL     1     -42.048 -50.385  12.507  1.00  0.00     0.140 A 
HETATM    5  N   UNL     1     -43.311 -50.001  14.347  1.00  0.00    -0.346 N 
ATOM      6  HN  UNL     1     -43.795 -50.123  15.237  1.00  0.00     0.167 HD
HETATM    7  C   UNL     1     -43.193 -48.889  13.649  1.00  0.00     0.185 A 
HETATM    8  N   UNL     1     -41.774 -53.008  12.789  1.00  0.00    -0.337 N 
ATOM      9  HN  UNL     1     -41.655 -54.021  12.822  1.00  0.00     0.168 HD
HETATM   10  N   UNL     1     -41.303 -50.978  11.563  1.00  0.00    -0.336 N 
ATOM     11  HN  UNL     1     -40.860 -50.492  10.784  1.00  0.00     0.168 HD
HETATM   12  C   UNL     1     -41.218 -52.298  11.786  1.00  0.00     0.183 A 
ENDROOT
BRANCH   2  13
HETATM   13  N   UNL     1     -43.014 -53.157  14.786  1.00  0.00    -0.350 N 
HETATM   14  C   UNL     1     -44.318 -52.857  15.428  1.00  0.00     0.178 C 
HETATM   15  C   UNL     1     -44.294 -53.390  16.887  1.00  0.00     0.240 C 
HETATM   16  O   UNL     1     -44.861 -52.825  17.823  1.00  0.00    -0.271 OA
HETATM   17  N   UNL     1     -43.717 -54.626  17.094  1.00  0.00    -0.358 N 
HETATM   18  C   UNL     1     -42.562 -55.035  16.314  1.00  0.00     0.142 C 
HETATM   19  H   UNL     1     -43.737 -54.895  18.069  1.00  0.00     0.162 HD
HETATM   20  C   UNL     1     -42.556 -54.548  14.858  1.00  0.00     0.145 C 
BRANCH  14  21
HETATM   21  C   UNL     1     -45.487 -53.534  14.680  1.00  0.00     0.039 C 
BRANCH  21  22
HETATM   22  C   UNL     1     -46.573 -52.575  14.144  1.00  0.00    -0.020 C 
HETATM   23  C   UNL     1     -46.845 -51.389  15.068  1.00  0.00     0.009 C 
HETATM   24  C   UNL     1     -46.164 -52.060  12.760  1.00  0.00     0.009 C 
ENDBRANCH  21  22
ENDBRANCH  14  21
ENDBRANCH   2  13
BRANCH   3  25
HETATM   25  C   UNL     1     -42.244 -48.118  11.452  1.00  0.00     0.172 C 
BRANCH  25  26
HETATM   26  C   UNL     1     -40.896 -47.378  11.424  1.00  0.00     0.102 C 
HETATM   27  C   UNL     1     -40.500 -46.686  12.744  1.00  0.00     0.153 C 
HETATM   28  O   UNL     1     -39.799 -45.468  12.396  1.00  0.00    -0.383 OA
HETATM   29  C   UNL     1     -39.598 -47.483  13.670  1.00  0.00     0.042 C 
HETATM   30  C   UNL     1     -39.809 -45.335  10.970  1.00  0.00     0.171 C 
HETATM   31  C   UNL     1     -40.972 -46.174  10.490  1.00  0.00     0.068 C 
BRANCH  26  32
HETATM   32  O   UNL     1     -39.852 -48.211  10.901  1.00  0.00    -0.385 OA
HETATM   33  H   UNL     1     -39.111 -48.249  11.534  1.00  0.00     0.210 HD
ENDBRANCH  26  32
ENDBRANCH  25  26
ENDBRANCH   3  25
TORSDOF 6
ENDMDL
MODEL 8
REMARK VINA RESULT:      -6.4      2.536      7.915
REMARK  6 active torsions:
REMARK  status: ('A' for Active; 'I' for Inactive)
REMARK    1  A    between atoms: C_2  and  N_4 
REMARK    2  A    between atoms: N_3  and  C_12 
REMARK    3  A    between atoms: C_8  and  C_20 
REMARK    4  A    between atoms: C_10  and  C_12 
REMARK    5  A    between atoms: C_10  and  O_24 
REMARK    6  A    between atoms: C_20  and  C_28 
ROOT
HETATM    1  C   UNL     1     -42.115 -47.398  12.502  1.00  0.00     0.122 A 
HETATM    2  C   UNL     1     -42.267 -48.614  11.783  1.00  0.00     0.136 A 
HETATM    3  N   UNL     1     -42.127 -45.207  12.688  1.00  0.00    -0.324 N 
HETATM    4  C   UNL     1     -42.172 -46.220  11.768  1.00  0.00     0.140 A 
HETATM    5  N   UNL     1     -41.971 -47.100  13.846  1.00  0.00    -0.346 N 
ATOM      6  HN  UNL     1     -41.852 -47.760  14.615  1.00  0.00     0.167 HD
HETATM    7  C   UNL     1     -42.018 -45.785  13.922  1.00  0.00     0.185 A 
HETATM    8  N   UNL     1     -42.437 -48.495  10.429  1.00  0.00    -0.337 N 
ATOM      9  HN  UNL     1     -42.574 -49.329   9.859  1.00  0.00     0.168 HD
HETATM   10  N   UNL     1     -42.296 -46.081  10.441  1.00  0.00    -0.336 N 
ATOM     11  HN  UNL     1     -42.293 -45.188   9.948  1.00  0.00     0.168 HD
HETATM   12  C   UNL     1     -42.423 -47.278   9.848  1.00  0.00     0.183 A 
ENDROOT
BRANCH   2  13
HETATM   13  N   UNL     1     -42.257 -49.896  12.314  1.00  0.00    -0.350 N 
HETATM   14  C   UNL     1     -41.005 -50.679  12.460  1.00  0.00     0.178 C 
HETATM   15  C   UNL     1     -41.347 -52.192  12.384  1.00  0.00     0.240 C 
HETATM   16  O   UNL     1     -40.604 -53.029  11.870  1.00  0.00    -0.271 OA
HETATM   17  N   UNL     1     -42.480 -52.614  13.049  1.00  0.00    -0.358 N 
HETATM   18  C   UNL     1     -43.654 -51.761  13.108  1.00  0.00     0.142 C 
HETATM   19  H   UNL     1     -42.634 -53.608  12.943  1.00  0.00     0.162 HD
HETATM   20  C   UNL     1     -43.362 -50.257  13.207  1.00  0.00     0.145 C 
BRANCH  14  21
HETATM   21  C   UNL     1     -40.319 -50.402  13.816  1.00  0.00     0.039 C 
BRANCH  21  22
HETATM   22  C   UNL     1     -38.932 -49.728  13.730  1.00  0.00    -0.020 C 
HETATM   23  C   UNL     1     -37.783 -50.651  14.135  1.00  0.00     0.009 C 
HETATM   24  C   UNL     1     -38.698 -49.217  12.304  1.00  0.00     0.009 C 
ENDBRANCH  21  22
ENDBRANCH  14  21
ENDBRANCH   2  13
BRANCH   3  25
HETATM   25  C   UNL     1     -42.387 -43.807  12.415  1.00  0.00     0.172 C 
BRANCH  25  26
HETATM   26  C   UNL     1     -41.158 -42.942  12.088  1.00  0.00     0.102 C 
HETATM   27  C   UNL     1     -39.986 -43.065  13.085  1.00  0.00     0.153 C 
HETATM   28  O   UNL     1     -39.369 -41.759  13.183  1.00  0.00    -0.383 OA
HETATM   29  C   UNL     1     -38.898 -44.058  12.714  1.00  0.00     0.042 C 
HETATM   30  C   UNL     1     -40.124 -40.843  12.382  1.00  0.00     0.171 C 
HETATM   31  C   UNL     1     -41.496 -41.462  12.237  1.00  0.00     0.068 C 
BRANCH  26  32
HETATM   32  O   UNL     1     -40.745 -43.111  10.726  1.00  0.00    -0.385 OA
HETATM   33  H   UNL     1     -41.460 -42.825  10.125  1.00  0.00     0.210 HD
ENDBRANCH  26  32
ENDBRANCH  25  26
ENDBRANCH   3  25
TORSDOF 6
ENDMDL
MODEL 9
REMARK VINA RESULT:      -6.3      1.730      3.320
REMARK  6 active torsions:
REMARK  status: ('A' for Active; 'I' for Inactive)
REMARK    1  A    between atoms: C_2  and  N_4 
REMARK    2  A    between atoms: N_3  and  C_12 
REMARK    3  A    between atoms: C_8  and  C_20 
REMARK    4  A    between atoms: C_10  and  C_12 
REMARK    5  A    between atoms: C_10  and  O_24 
REMARK    6  A    between atoms: C_20  and  C_28 
ROOT
HETATM    1  C   UNL     1     -41.181 -49.758  11.855  1.00  0.00     0.122 A 
HETATM    2  C   UNL     1     -40.621 -48.484  11.567  1.00  0.00     0.136 A 
HETATM    3  N   UNL     1     -41.061 -51.874  12.439  1.00  0.00    -0.324 N 
HETATM    4  C   UNL     1     -40.293 -50.805  12.062  1.00  0.00     0.140 A 
HETATM    5  N   UNL     1     -42.477 -50.205  12.040  1.00  0.00    -0.346 N 
ATOM      6  HN  UNL     1     -43.338 -49.675  11.908  1.00  0.00     0.167 HD
HETATM    7  C   UNL     1     -42.364 -51.462  12.422  1.00  0.00     0.185 A 
HETATM    8  N   UNL     1     -39.253 -48.428  11.507  1.00  0.00    -0.337 N 
ATOM      9  HN  UNL     1     -38.788 -47.538  11.327  1.00  0.00     0.168 HD
HETATM   10  N   UNL     1     -38.955 -50.783  11.968  1.00  0.00    -0.336 N 
ATOM     11  HN  UNL     1     -38.352 -51.596  12.093  1.00  0.00     0.168 HD
HETATM   12  C   UNL     1     -38.520 -49.546  11.685  1.00  0.00     0.183 A 
ENDROOT
BRANCH   2  13
HETATM   13  N   UNL     1     -41.317 -47.305  11.342  1.00  0.00    -0.350 N 
HETATM   14  C   UNL     1     -41.088 -46.086  12.158  1.00  0.00     0.178 C 
HETATM   15  C   UNL     1     -42.393 -45.244  12.179  1.00  0.00     0.240 C 
HETATM   16  O   UNL     1     -42.760 -44.590  13.155  1.00  0.00    -0.271 OA
HETATM   17  N   UNL     1     -43.088 -45.133  10.992  1.00  0.00    -0.358 N 
HETATM   18  C   UNL     1     -43.140 -46.251  10.066  1.00  0.00     0.142 C 
HETATM   19  H   UNL     1     -43.926 -44.576  11.094  1.00  0.00     0.162 HD
HETATM   20  C   UNL     1     -41.862 -47.098   9.997  1.00  0.00     0.145 C 
BRANCH  14  21
HETATM   21  C   UNL     1     -39.956 -45.215  11.570  1.00  0.00     0.039 C 
BRANCH  21  22
HETATM   22  C   UNL     1     -39.083 -44.477  12.608  1.00  0.00    -0.020 C 
HETATM   23  C   UNL     1     -39.567 -43.059  12.909  1.00  0.00     0.009 C 
HETATM   24  C   UNL     1     -39.037 -45.287  13.908  1.00  0.00     0.009 C 
ENDBRANCH  21  22
ENDBRANCH  14  21
ENDBRANCH   2  13
BRANCH   3  25
HETATM   25  C   UNL     1     -40.561 -53.124  12.979  1.00  0.00     0.172 C 
BRANCH  25  26
HETATM   26  C   UNL     1     -40.108 -53.092  14.448  1.00  0.00     0.102 C 
HETATM   27  C   UNL     1     -40.143 -54.454  15.174  1.00  0.00     0.153 C 
HETATM   28  O   UNL     1     -40.520 -54.197  16.547  1.00  0.00    -0.383 OA
HETATM   29  C   UNL     1     -38.837 -55.229  15.196  1.00  0.00     0.042 C 
HETATM   30  C   UNL     1     -40.790 -52.797  16.686  1.00  0.00     0.171 C 
HETATM   31  C   UNL     1     -41.103 -52.302  15.292  1.00  0.00     0.068 C 
BRANCH  26  32
HETATM   32  O   UNL     1     -38.851 -52.419  14.595  1.00  0.00    -0.385 OA
HETATM   33  H   UNL     1     -38.124 -53.013  14.330  1.00  0.00     0.210 HD
ENDBRANCH  26  32
ENDBRANCH  25  26
ENDBRANCH   3  25
TORSDOF 6
ENDMDL
