MODEL 1
REMARK VINA RESULT:      -6.4      0.000      0.000
REMARK  8 active torsions:
REMARK  status: ('A' for Active; 'I' for Inactive)
REMARK    1  A    between atoms: N_2  and  C_15 
REMARK    2  A    between atoms: C_6  and  N_7 
REMARK    3  A    between atoms: N_13  and  C_25 
REMARK    4  A    between atoms: C_15  and  C_18 
REMARK    5  A    between atoms: C_16  and  C_29 
REMARK    6  A    between atoms: C_18  and  O_24 
REMARK    7  A    between atoms: C_25  and  C_30 
REMARK    8  A    between atoms: O_28  and  C_30 
ROOT
HETATM    1  C   UNL     1     -40.279 -50.011  13.386  1.00  0.00     0.122 A 
HETATM    2  N   UNL     1     -39.685 -51.704  14.640  1.00  0.00    -0.324 N 
HETATM    3  C   UNL     1     -39.309 -50.993  13.535  1.00  0.00     0.140 A 
HETATM    4  N   UNL     1     -41.232 -50.134  14.386  1.00  0.00    -0.346 N 
ATOM      5  HN  UNL     1     -42.072 -49.569  14.512  1.00  0.00     0.167 HD
HETATM    6  C   UNL     1     -40.113 -49.095  12.318  1.00  0.00     0.135 A 
HETATM    7  C   UNL     1     -40.823 -51.134  15.136  1.00  0.00     0.185 A 
HETATM    8  N   UNL     1     -38.221 -51.194  12.776  1.00  0.00    -0.336 N 
ATOM      9  HN  UNL     1     -37.545 -51.945  12.917  1.00  0.00     0.168 HD
HETATM   10  N   UNL     1     -38.989 -49.259  11.548  1.00  0.00    -0.337 N 
ATOM     11  HN  UNL     1     -38.794 -48.612  10.783  1.00  0.00     0.168 HD
HETATM   12  C   UNL     1     -38.144 -50.271  11.804  1.00  0.00     0.183 A 
ENDROOT
BRANCH   6  13
HETATM   13  N   UNL     1     -40.968 -48.018  12.072  1.00  0.00    -0.362 N 
HETATM   14  C   UNL     1     -40.376 -46.892  11.339  1.00  0.00     0.160 C 
HETATM   15  C   UNL     1     -41.350 -45.671  11.344  1.00  0.00     0.240 C 
HETATM   16  N   UNL     1     -42.722 -45.987  10.834  1.00  0.00     0.098 N 
HETATM   17  C   UNL     1     -43.227 -47.126  11.651  1.00  0.00     0.293 C 
HETATM   18  C   UNL     1     -42.326 -48.381  11.644  1.00  0.00     0.154 C 
BRANCH  15  19
HETATM   19  C   UNL     1     -40.660 -44.450  10.704  1.00  0.00     0.033 C 
HETATM   20  C   UNL     1     -39.373 -44.787   9.965  1.00  0.00     0.007 C 
ENDBRANCH  15  19
BRANCH  16  21
HETATM   21  C   UNL     1     -42.779 -46.281   9.385  1.00  0.00     0.299 C 
BRANCH  21  22
HETATM   22  C   UNL     1     -44.205 -46.142   8.812  1.00  0.00     0.197 C 
BRANCH  22  23
HETATM   23  O   UNL     1     -44.823 -47.419   8.632  1.00  0.00    -0.394 OA
HETATM   24  C   UNL     1     -46.150 -47.399   9.155  1.00  0.00     0.201 C 
ENDBRANCH  22  23
ENDBRANCH  21  22
ENDBRANCH  16  21
ENDBRANCH   6  13
BRANCH   2  25
HETATM   25  C   UNL     1     -38.918 -52.763  15.259  1.00  0.00     0.169 C 
BRANCH  25  26
HETATM   26  C   UNL     1     -39.158 -54.184  14.693  1.00  0.00     0.078 C 
HETATM   27  C   UNL     1     -40.669 -54.382  14.476  1.00  0.00     0.066 C 
HETATM   28  C   UNL     1     -41.395 -54.696  15.773  1.00  0.00     0.170 C 
HETATM   29  O   UNL     1     -40.853 -55.881  16.344  1.00  0.00    -0.391 OA
HETATM   30  C   UNL     1     -39.492 -55.718  16.733  1.00  0.00     0.170 C 
HETATM   31  C   UNL     1     -38.606 -55.345  15.546  1.00  0.00     0.066 C 
BRANCH  26  32
HETATM   32  O   UNL     1     -38.572 -54.242  13.378  1.00  0.00    -0.388 OA
HETATM   33  H   UNL     1     -37.611 -54.110  13.442  1.00  0.00     0.210 HD
ENDBRANCH  26  32
ENDBRANCH  25  26
ENDBRANCH   2  25
TORSDOF 8
ENDMDL
MODEL 2
REMARK VINA RESULT:      -6.3      2.647      8.328
REMARK  8 active torsions:
REMARK  status: ('A' for Active; 'I' for Inactive)
REMARK    1  A    between atoms: N_2  and  C_15 
REMARK    2  A    between atoms: C_6  and  N_7 
REMARK    3  A    between atoms: N_13  and  C_25 
REMARK    4  A    between atoms: C_15  and  C_18 
REMARK    5  A    between atoms: C_16  and  C_29 
REMARK    6  A    between atoms: C_18  and  O_24 
REMARK    7  A    between atoms: C_25  and  C_30 
REMARK    8  A    between atoms: O_28  and  C_30 
ROOT
HETATM    1  C   UNL     1     -41.045 -48.970  11.819  1.00  0.00     0.122 A 
HETATM    2  N   UNL     1     -41.078 -46.960  10.954  1.00  0.00    -0.324 N 
HETATM    3  C   UNL     1     -40.452 -47.718  11.903  1.00  0.00     0.140 A 
HETATM    4  N   UNL     1     -42.023 -48.962  10.835  1.00  0.00    -0.346 N 
ATOM      5  HN  UNL     1     -42.639 -49.731  10.570  1.00  0.00     0.167 HD
HETATM    6  C   UNL     1     -40.553 -49.978  12.683  1.00  0.00     0.135 A 
HETATM    7  C   UNL     1     -41.988 -47.754  10.317  1.00  0.00     0.185 A 
HETATM    8  N   UNL     1     -39.460 -47.333  12.721  1.00  0.00    -0.336 N 
ATOM      9  HN  UNL     1     -39.069 -46.391  12.756  1.00  0.00     0.168 HD
HETATM   10  N   UNL     1     -39.515 -49.619  13.505  1.00  0.00    -0.337 N 
ATOM     11  HN  UNL     1     -39.094 -50.308  14.128  1.00  0.00     0.168 HD
HETATM   12  C   UNL     1     -39.053 -48.358  13.486  1.00  0.00     0.183 A 
ENDROOT
BRANCH   6  13
HETATM   13  N   UNL     1     -41.004 -51.301  12.677  1.00  0.00    -0.362 N 
HETATM   14  C   UNL     1     -40.169 -52.259  13.413  1.00  0.00     0.160 C 
HETATM   15  C   UNL     1     -40.644 -53.719  13.128  1.00  0.00     0.240 C 
HETATM   16  N   UNL     1     -42.098 -53.949  13.401  1.00  0.00     0.098 N 
HETATM   17  C   UNL     1     -42.845 -52.938  12.600  1.00  0.00     0.293 C 
HETATM   18  C   UNL     1     -42.450 -51.471  12.877  1.00  0.00     0.154 C 
BRANCH  15  19
HETATM   19  C   UNL     1     -39.672 -54.721  13.782  1.00  0.00     0.033 C 
HETATM   20  C   UNL     1     -38.893 -54.146  14.957  1.00  0.00     0.007 C 
ENDBRANCH  15  19
BRANCH  16  21
HETATM   21  C   UNL     1     -42.464 -53.897  14.834  1.00  0.00     0.299 C 
BRANCH  21  22
HETATM   22  C   UNL     1     -43.977 -54.096  15.062  1.00  0.00     0.197 C 
BRANCH  22  23
HETATM   23  O   UNL     1     -44.406 -55.387  14.622  1.00  0.00    -0.394 OA
HETATM   24  C   UNL     1     -45.563 -55.263  13.795  1.00  0.00     0.201 C 
ENDBRANCH  22  23
ENDBRANCH  21  22
ENDBRANCH  16  21
ENDBRANCH   6  13
BRANCH   2  25
HETATM   25  C   UNL     1     -40.718 -45.606  10.587  1.00  0.00     0.169 C 
BRANCH  25  26
HETATM   26  C   UNL     1     -41.661 -44.496  11.111  1.00  0.00     0.078 C 
HETATM   27  C   UNL     1     -40.882 -43.169  11.162  1.00  0.00     0.066 C 
HETATM   28  C   UNL     1     -39.980 -43.083  12.381  1.00  0.00     0.170 C 
HETATM   29  O   UNL     1     -40.767 -43.199  13.561  1.00  0.00    -0.391 OA
HETATM   30  C   UNL     1     -41.387 -44.478  13.671  1.00  0.00     0.170 C 
HETATM   31  C   UNL     1     -42.308 -44.763  12.486  1.00  0.00     0.066 C 
BRANCH  26  32
HETATM   32  O   UNL     1     -42.698 -44.294  10.131  1.00  0.00    -0.388 OA
HETATM   33  H   UNL     1     -42.302 -44.000   9.294  1.00  0.00     0.210 HD
ENDBRANCH  26  32
ENDBRANCH  25  26
ENDBRANCH   2  25
TORSDOF 8
ENDMDL
MODEL 3
REMARK VINA RESULT:      -6.3      1.661      2.593
REMARK  8 active torsions:
REMARK  status: ('A' for Active; 'I' for Inactive)
REMARK    1  A    between atoms: N_2  and  C_15 
REMARK    2  A    between atoms: C_6  and  N_7 
REMARK    3  A    between atoms: N_13  and  C_25 
REMARK    4  A    between atoms: C_15  and  C_18 
REMARK    5  A    between atoms: C_16  and  C_29 
REMARK    6  A    between atoms: C_18  and  O_24 
REMARK    7  A    between atoms: C_25  and  C_30 
REMARK    8  A    between atoms: O_28  and  C_30 
ROOT
HETATM    1  C   UNL     1     -39.755 -49.959  12.889  1.00  0.00     0.122 A 
HETATM    2  N   UNL     1     -39.534 -51.576  14.347  1.00  0.00    -0.324 N 
HETATM    3  C   UNL     1     -38.914 -50.993  13.277  1.00  0.00     0.140 A 
HETATM    4  N   UNL     1     -40.871 -49.924  13.711  1.00  0.00    -0.346 N 
ATOM      5  HN  UNL     1     -41.667 -49.290  13.647  1.00  0.00     0.167 HD
HETATM    6  C   UNL     1     -39.330 -49.153  11.804  1.00  0.00     0.135 A 
HETATM    7  C   UNL     1     -40.685 -50.883  14.592  1.00  0.00     0.185 A 
HETATM    8  N   UNL     1     -37.735 -51.339  12.738  1.00  0.00    -0.336 N 
ATOM      9  HN  UNL     1     -37.162 -52.123  13.051  1.00  0.00     0.168 HD
HETATM   10  N   UNL     1     -38.110 -49.465  11.258  1.00  0.00    -0.337 N 
ATOM     11  HN  UNL     1     -37.733 -48.904  10.495  1.00  0.00     0.168 HD
HETATM   12  C   UNL     1     -37.414 -50.511  11.731  1.00  0.00     0.183 A 
ENDROOT
BRANCH   6  13
HETATM   13  N   UNL     1     -40.033 -48.041  11.334  1.00  0.00    -0.362 N 
HETATM   14  C   UNL     1     -41.439 -48.282  10.983  1.00  0.00     0.160 C 
HETATM   15  C   UNL     1     -42.034 -47.036  10.252  1.00  0.00     0.240 C 
HETATM   16  N   UNL     1     -41.877 -45.755  11.011  1.00  0.00     0.098 N 
HETATM   17  C   UNL     1     -40.423 -45.608  11.300  1.00  0.00     0.293 C 
HETATM   18  C   UNL     1     -39.791 -46.790  12.066  1.00  0.00     0.154 C 
BRANCH  15  19
HETATM   19  C   UNL     1     -43.459 -47.353   9.756  1.00  0.00     0.033 C 
HETATM   20  C   UNL     1     -43.548 -47.599   8.256  1.00  0.00     0.007 C 
ENDBRANCH  15  19
BRANCH  16  21
HETATM   21  C   UNL     1     -42.695 -45.673  12.241  1.00  0.00     0.299 C 
BRANCH  21  22
HETATM   22  C   UNL     1     -42.570 -44.303  12.941  1.00  0.00     0.197 C 
BRANCH  22  23
HETATM   23  O   UNL     1     -43.327 -44.264  14.153  1.00  0.00    -0.394 OA
HETATM   24  C   UNL     1     -43.428 -45.574  14.710  1.00  0.00     0.201 C 
ENDBRANCH  22  23
ENDBRANCH  21  22
ENDBRANCH  16  21
ENDBRANCH   6  13
BRANCH   2  25
HETATM   25  C   UNL     1     -38.979 -52.632  15.167  1.00  0.00     0.169 C 
BRANCH  25  26
HETATM   26  C   UNL     1     -39.221 -54.074  14.658  1.00  0.00     0.078 C 
HETATM   27  C   UNL     1     -40.706 -54.222  14.281  1.00  0.00     0.066 C 
HETATM   28  C   UNL     1     -41.587 -54.425  15.501  1.00  0.00     0.170 C 
HETATM   29  O   UNL     1     -41.172 -55.594  16.196  1.00  0.00    -0.391 OA
HETATM   30  C   UNL     1     -39.856 -55.463  16.730  1.00  0.00     0.170 C 
HETATM   31  C   UNL     1     -38.825 -55.202  15.633  1.00  0.00     0.066 C 
BRANCH  26  32
HETATM   32  O   UNL     1     -38.494 -54.238  13.425  1.00  0.00    -0.388 OA
HETATM   33  H   UNL     1     -38.910 -53.704  12.727  1.00  0.00     0.210 HD
ENDBRANCH  26  32
ENDBRANCH  25  26
ENDBRANCH   2  25
TORSDOF 8
ENDMDL
MODEL 4
REMARK VINA RESULT:      -6.3      3.314      4.398
REMARK  8 active torsions:
REMARK  status: ('A' for Active; 'I' for Inactive)
REMARK    1  A    between atoms: N_2  and  C_15 
REMARK    2  A    between atoms: C_6  and  N_7 
REMARK    3  A    between atoms: N_13  and  C_25 
REMARK    4  A    between atoms: C_15  and  C_18 
REMARK    5  A    between atoms: C_16  and  C_29 
REMARK    6  A    between atoms: C_18  and  O_24 
REMARK    7  A    between atoms: C_25  and  C_30 
REMARK    8  A    between atoms: O_28  and  C_30 
ROOT
HETATM    1  C   UNL     1     -42.398 -49.831  12.837  1.00  0.00     0.122 A 
HETATM    2  N   UNL     1     -43.235 -51.032  14.464  1.00  0.00    -0.324 N 
HETATM    3  C   UNL     1     -42.453 -51.121  13.347  1.00  0.00     0.140 A 
HETATM    4  N   UNL     1     -43.146 -48.977  13.634  1.00  0.00    -0.346 N 
ATOM      5  HN  UNL     1     -43.308 -47.980  13.490  1.00  0.00     0.167 HD
HETATM    6  C   UNL     1     -41.611 -49.627  11.678  1.00  0.00     0.135 A 
HETATM    7  C   UNL     1     -43.600 -49.724  14.616  1.00  0.00     0.185 A 
HETATM    8  N   UNL     1     -41.852 -52.220  12.867  1.00  0.00    -0.336 N 
ATOM      9  HN  UNL     1     -41.939 -53.153  13.271  1.00  0.00     0.168 HD
HETATM   10  N   UNL     1     -40.957 -50.730  11.187  1.00  0.00    -0.337 N 
ATOM     11  HN  UNL     1     -40.348 -50.643  10.374  1.00  0.00     0.168 HD
HETATM   12  C   UNL     1     -41.120 -51.923  11.781  1.00  0.00     0.183 A 
ENDROOT
BRANCH   6  13
HETATM   13  N   UNL     1     -41.408 -48.381  11.080  1.00  0.00    -0.362 N 
HETATM   14  C   UNL     1     -42.624 -47.673  10.660  1.00  0.00     0.160 C 
HETATM   15  C   UNL     1     -42.253 -46.424   9.800  1.00  0.00     0.240 C 
HETATM   16  N   UNL     1     -41.288 -45.493  10.466  1.00  0.00     0.098 N 
HETATM   17  C   UNL     1     -40.097 -46.308  10.834  1.00  0.00     0.293 C 
HETATM   18  C   UNL     1     -40.398 -47.531  11.728  1.00  0.00     0.154 C 
BRANCH  15  19
HETATM   19  C   UNL     1     -43.535 -45.776   9.240  1.00  0.00     0.033 C 
HETATM   20  C   UNL     1     -44.680 -46.757   9.031  1.00  0.00     0.007 C 
ENDBRANCH  15  19
BRANCH  16  21
HETATM   21  C   UNL     1     -41.845 -44.772  11.632  1.00  0.00     0.299 C 
BRANCH  21  22
HETATM   22  C   UNL     1     -41.449 -43.281  11.645  1.00  0.00     0.197 C 
BRANCH  22  23
HETATM   23  O   UNL     1     -42.144 -42.547  10.634  1.00  0.00    -0.394 OA
HETATM   24  C   UNL     1     -43.481 -42.279  11.055  1.00  0.00     0.201 C 
ENDBRANCH  22  23
ENDBRANCH  21  22
ENDBRANCH  16  21
ENDBRANCH   6  13
BRANCH   2  25
HETATM   25  C   UNL     1     -43.488 -52.105  15.402  1.00  0.00     0.169 C 
BRANCH  25  26
HETATM   26  C   UNL     1     -44.922 -52.689  15.383  1.00  0.00     0.078 C 
HETATM   27  C   UNL     1     -44.832 -54.223  15.478  1.00  0.00     0.066 C 
HETATM   28  C   UNL     1     -44.475 -54.857  14.144  1.00  0.00     0.170 C 
HETATM   29  O   UNL     1     -45.461 -54.514  13.179  1.00  0.00    -0.391 OA
HETATM   30  C   UNL     1     -45.485 -53.114  12.908  1.00  0.00     0.170 C 
HETATM   31  C   UNL     1     -45.785 -52.300  14.165  1.00  0.00     0.066 C 
BRANCH  26  32
HETATM   32  O   UNL     1     -45.588 -52.269  16.589  1.00  0.00    -0.388 OA
HETATM   33  H   UNL     1     -45.406 -52.905  17.301  1.00  0.00     0.210 HD
ENDBRANCH  26  32
ENDBRANCH  25  26
ENDBRANCH   2  25
TORSDOF 8
ENDMDL
MODEL 5
REMARK VINA RESULT:      -6.2      3.309      8.393
REMARK  8 active torsions:
REMARK  status: ('A' for Active; 'I' for Inactive)
REMARK    1  A    between atoms: N_2  and  C_15 
REMARK    2  A    between atoms: C_6  and  N_7 
REMARK    3  A    between atoms: N_13  and  C_25 
REMARK    4  A    between atoms: C_15  and  C_18 
REMARK    5  A    between atoms: C_16  and  C_29 
REMARK    6  A    between atoms: C_18  and  O_24 
REMARK    7  A    between atoms: C_25  and  C_30 
REMARK    8  A    between atoms: O_28  and  C_30 
ROOT
HETATM    1  C   UNL     1     -43.046 -48.587  12.320  1.00  0.00     0.122 A 
HETATM    2  N   UNL     1     -42.635 -46.542  11.656  1.00  0.00    -0.324 N 
HETATM    3  C   UNL     1     -42.803 -47.300  12.781  1.00  0.00     0.140 A 
HETATM    4  N   UNL     1     -43.031 -48.601  10.933  1.00  0.00    -0.346 N 
ATOM      5  HN  UNL     1     -43.204 -49.399  10.321  1.00  0.00     0.167 HD
HETATM    6  C   UNL     1     -43.225 -49.599  13.294  1.00  0.00     0.135 A 
HETATM    7  C   UNL     1     -42.747 -47.368  10.575  1.00  0.00     0.185 A 
HETATM    8  N   UNL     1     -42.726 -46.885  14.055  1.00  0.00    -0.336 N 
ATOM      9  HN  UNL     1     -42.563 -45.920  14.342  1.00  0.00     0.168 HD
HETATM   10  N   UNL     1     -43.115 -49.206  14.604  1.00  0.00    -0.337 N 
ATOM     11  HN  UNL     1     -43.202 -49.894  15.353  1.00  0.00     0.168 HD
HETATM   12  C   UNL     1     -42.894 -47.915  14.899  1.00  0.00     0.183 A 
ENDROOT
BRANCH   6  13
HETATM   13  N   UNL     1     -43.417 -50.950  12.991  1.00  0.00    -0.362 N 
HETATM   14  C   UNL     1     -42.376 -51.863  13.478  1.00  0.00     0.160 C 
HETATM   15  C   UNL     1     -42.581 -53.289  12.872  1.00  0.00     0.240 C 
HETATM   16  N   UNL     1     -43.948 -53.854  13.101  1.00  0.00     0.098 N 
HETATM   17  C   UNL     1     -44.916 -52.859  12.561  1.00  0.00     0.293 C 
HETATM   18  C   UNL     1     -44.792 -51.441  13.162  1.00  0.00     0.154 C 
BRANCH  15  19
HETATM   19  C   UNL     1     -41.402 -54.199  13.269  1.00  0.00     0.033 C 
HETATM   20  C   UNL     1     -40.130 -53.440  13.623  1.00  0.00     0.007 C 
ENDBRANCH  15  19
BRANCH  16  21
HETATM   21  C   UNL     1     -44.237 -54.195  14.511  1.00  0.00     0.299 C 
BRANCH  21  22
HETATM   22  C   UNL     1     -45.693 -54.663  14.717  1.00  0.00     0.197 C 
BRANCH  22  23
HETATM   23  O   UNL     1     -46.094 -54.536  16.083  1.00  0.00    -0.394 OA
HETATM   24  C   UNL     1     -45.603 -53.311  16.627  1.00  0.00     0.201 C 
ENDBRANCH  22  23
ENDBRANCH  21  22
ENDBRANCH  16  21
ENDBRANCH   6  13
BRANCH   2  25
HETATM   25  C   UNL     1     -42.245 -45.148  11.632  1.00  0.00     0.169 C 
BRANCH  25  26
HETATM   26  C   UNL     1     -40.800 -44.864  11.155  1.00  0.00     0.078 C 
HETATM   27  C   UNL     1     -39.830 -45.735  11.974  1.00  0.00     0.066 C 
HETATM   28  C   UNL     1     -39.568 -45.155  13.353  1.00  0.00     0.170 C 
HETATM   29  O   UNL     1     -39.016 -43.851  13.223  1.00  0.00    -0.391 OA
HETATM   30  C   UNL     1     -39.932 -42.936  12.625  1.00  0.00     0.170 C 
HETATM   31  C   UNL     1     -40.351 -43.389  11.227  1.00  0.00     0.066 C 
BRANCH  26  32
HETATM   32  O   UNL     1     -40.681 -45.329   9.797  1.00  0.00    -0.388 OA
HETATM   33  H   UNL     1     -40.219 -44.662   9.263  1.00  0.00     0.210 HD
ENDBRANCH  26  32
ENDBRANCH  25  26
ENDBRANCH   2  25
TORSDOF 8
ENDMDL
MODEL 6
REMARK VINA RESULT:      -6.1      2.327      8.285
REMARK  8 active torsions:
REMARK  status: ('A' for Active; 'I' for Inactive)
REMARK    1  A    between atoms: N_2  and  C_15 
REMARK    2  A    between atoms: C_6  and  N_7 
REMARK    3  A    between atoms: N_13  and  C_25 
REMARK    4  A    between atoms: C_15  and  C_18 
REMARK    5  A    between atoms: C_16  and  C_29 
REMARK    6  A    between atoms: C_18  and  O_24 
REMARK    7  A    between atoms: C_25  and  C_30 
REMARK    8  A    between atoms: O_28  and  C_30 
ROOT
HETATM    1  C   UNL     1     -39.967 -49.836  12.983  1.00  0.00     0.122 A 
HETATM    2  N   UNL     1     -40.275 -47.673  12.865  1.00  0.00    -0.324 N 
HETATM    3  C   UNL     1     -39.453 -48.673  12.427  1.00  0.00     0.140 A 
HETATM    4  N   UNL     1     -41.082 -49.538  13.752  1.00  0.00    -0.346 N 
ATOM      5  HN  UNL     1     -41.647 -50.188  14.298  1.00  0.00     0.167 HD
HETATM    6  C   UNL     1     -39.315 -51.051  12.658  1.00  0.00     0.135 A 
HETATM    7  C   UNL     1     -41.255 -48.241  13.628  1.00  0.00     0.185 A 
HETATM    8  N   UNL     1     -38.391 -48.550  11.616  1.00  0.00    -0.336 N 
ATOM      9  HN  UNL     1     -38.041 -47.665  11.248  1.00  0.00     0.168 HD
HETATM   10  N   UNL     1     -38.247 -50.955  11.801  1.00  0.00    -0.337 N 
ATOM     11  HN  UNL     1     -37.754 -51.797  11.502  1.00  0.00     0.168 HD
HETATM   12  C   UNL     1     -37.852 -49.751  11.356  1.00  0.00     0.183 A 
ENDROOT
BRANCH   6  13
HETATM   13  N   UNL     1     -39.746 -52.309  13.088  1.00  0.00    -0.362 N 
HETATM   14  C   UNL     1     -39.461 -52.630  14.492  1.00  0.00     0.160 C 
HETATM   15  C   UNL     1     -39.770 -54.135  14.775  1.00  0.00     0.240 C 
HETATM   16  N   UNL     1     -41.157 -54.552  14.394  1.00  0.00     0.098 N 
HETATM   17  C   UNL     1     -41.330 -54.192  12.959  1.00  0.00     0.293 C 
HETATM   18  C   UNL     1     -41.084 -52.704  12.628  1.00  0.00     0.154 C 
BRANCH  15  19
HETATM   19  C   UNL     1     -39.328 -54.498  16.206  1.00  0.00     0.033 C 
HETATM   20  C   UNL     1     -38.345 -55.659  16.271  1.00  0.00     0.007 C 
ENDBRANCH  15  19
BRANCH  16  21
HETATM   21  C   UNL     1     -42.221 -53.968  15.241  1.00  0.00     0.299 C 
BRANCH  21  22
HETATM   22  C   UNL     1     -43.495 -54.838  15.266  1.00  0.00     0.197 C 
BRANCH  22  23
HETATM   23  O   UNL     1     -44.618 -54.136  14.726  1.00  0.00    -0.394 OA
HETATM   24  C   UNL     1     -45.303 -54.960  13.783  1.00  0.00     0.201 C 
ENDBRANCH  22  23
ENDBRANCH  21  22
ENDBRANCH  16  21
ENDBRANCH   6  13
BRANCH   2  25
HETATM   25  C   UNL     1     -40.206 -46.287  12.453  1.00  0.00     0.169 C 
BRANCH  25  26
HETATM   26  C   UNL     1     -40.897 -45.951  11.109  1.00  0.00     0.078 C 
HETATM   27  C   UNL     1     -40.057 -44.892  10.373  1.00  0.00     0.066 C 
HETATM   28  C   UNL     1     -40.286 -43.496  10.926  1.00  0.00     0.170 C 
HETATM   29  O   UNL     1     -41.662 -43.158  10.802  1.00  0.00    -0.391 OA
HETATM   30  C   UNL     1     -42.496 -43.994  11.600  1.00  0.00     0.170 C 
HETATM   31  C   UNL     1     -42.358 -45.465  11.213  1.00  0.00     0.066 C 
BRANCH  26  32
HETATM   32  O   UNL     1     -40.846 -47.126  10.278  1.00  0.00    -0.388 OA
HETATM   33  H   UNL     1     -41.143 -46.904   9.380  1.00  0.00     0.210 HD
ENDBRANCH  26  32
ENDBRANCH  25  26
ENDBRANCH   2  25
TORSDOF 8
ENDMDL
MODEL 7
REMARK VINA RESULT:      -6.1      3.322      8.447
REMARK  8 active torsions:
REMARK  status: ('A' for Active; 'I' for Inactive)
REMARK    1  A    between atoms: N_2  and  C_15 
REMARK    2  A    between atoms: C_6  and  N_7 
REMARK    3  A    between atoms: N_13  and  C_25 
REMARK    4  A    between atoms: C_15  and  C_18 
REMARK    5  A    between atoms: C_16  and  C_29 
REMARK    6  A    between atoms: C_18  and  O_24 
REMARK    7  A    between atoms: C_25  and  C_30 
REMARK    8  A    between atoms: O_28  and  C_30 
ROOT
HETATM    1  C   UNL     1     -40.806 -47.749  12.082  1.00  0.00     0.122 A 
HETATM    2  N   UNL     1     -40.080 -45.704  11.799  1.00  0.00    -0.324 N 
HETATM    3  C   UNL     1     -40.908 -46.642  11.250  1.00  0.00     0.140 A 
HETATM    4  N   UNL     1     -39.921 -47.481  13.116  1.00  0.00    -0.346 N 
ATOM      5  HN  UNL     1     -39.630 -48.115  13.860  1.00  0.00     0.167 HD
HETATM    6  C   UNL     1     -41.602 -48.875  11.760  1.00  0.00     0.135 A 
HETATM    7  C   UNL     1     -39.536 -46.237  12.932  1.00  0.00     0.185 A 
HETATM    8  N   UNL     1     -41.670 -46.506  10.155  1.00  0.00    -0.336 N 
ATOM      9  HN  UNL     1     -41.696 -45.674   9.565  1.00  0.00     0.168 HD
HETATM   10  N   UNL     1     -42.417 -48.748  10.663  1.00  0.00    -0.337 N 
ATOM     11  HN  UNL     1     -43.038 -49.512  10.397  1.00  0.00     0.168 HD
HETATM   12  C   UNL     1     -42.395 -47.616   9.941  1.00  0.00     0.183 A 
ENDROOT
BRANCH   6  13
HETATM   13  N   UNL     1     -41.656 -50.040  12.530  1.00  0.00    -0.362 N 
HETATM   14  C   UNL     1     -42.903 -50.248  13.278  1.00  0.00     0.160 C 
HETATM   15  C   UNL     1     -42.743 -51.441  14.274  1.00  0.00     0.240 C 
HETATM   16  N   UNL     1     -42.279 -52.710  13.630  1.00  0.00     0.098 N 
HETATM   17  C   UNL     1     -41.012 -52.387  12.916  1.00  0.00     0.293 C 
HETATM   18  C   UNL     1     -41.123 -51.246  11.882  1.00  0.00     0.154 C 
BRANCH  15  19
HETATM   19  C   UNL     1     -44.000 -51.555  15.158  1.00  0.00     0.033 C 
HETATM   20  C   UNL     1     -45.267 -51.030  14.497  1.00  0.00     0.007 C 
ENDBRANCH  15  19
BRANCH  16  21
HETATM   21  C   UNL     1     -43.274 -53.335  12.731  1.00  0.00     0.299 C 
BRANCH  21  22
HETATM   22  C   UNL     1     -43.972 -54.550  13.378  1.00  0.00     0.197 C 
BRANCH  22  23
HETATM   23  O   UNL     1     -45.379 -54.541  13.125  1.00  0.00    -0.394 OA
HETATM   24  C   UNL     1     -46.098 -54.695  14.348  1.00  0.00     0.201 C 
ENDBRANCH  22  23
ENDBRANCH  21  22
ENDBRANCH  16  21
ENDBRANCH   6  13
BRANCH   2  25
HETATM   25  C   UNL     1     -39.940 -44.336  11.344  1.00  0.00     0.169 C 
BRANCH  25  26
HETATM   26  C   UNL     1     -41.099 -43.382  11.722  1.00  0.00     0.078 C 
HETATM   27  C   UNL     1     -40.567 -41.937  11.730  1.00  0.00     0.066 C 
HETATM   28  C   UNL     1     -39.793 -41.621  12.998  1.00  0.00     0.170 C 
HETATM   29  O   UNL     1     -40.639 -41.804  14.126  1.00  0.00    -0.391 OA
HETATM   30  C   UNL     1     -41.036 -43.164  14.287  1.00  0.00     0.170 C 
HETATM   31  C   UNL     1     -41.797 -43.678  13.066  1.00  0.00     0.066 C 
BRANCH  26  32
HETATM   32  O   UNL     1     -42.074 -43.426  10.662  1.00  0.00    -0.388 OA
HETATM   33  H   UNL     1     -42.249 -44.350  10.418  1.00  0.00     0.210 HD
ENDBRANCH  26  32
ENDBRANCH  25  26
ENDBRANCH   2  25
TORSDOF 8
ENDMDL
MODEL 8
REMARK VINA RESULT:      -5.8      2.984      8.290
REMARK  8 active torsions:
REMARK  status: ('A' for Active; 'I' for Inactive)
REMARK    1  A    between atoms: N_2  and  C_15 
REMARK    2  A    between atoms: C_6  and  N_7 
REMARK    3  A    between atoms: N_13  and  C_25 
REMARK    4  A    between atoms: C_15  and  C_18 
REMARK    5  A    between atoms: C_16  and  C_29 
REMARK    6  A    between atoms: C_18  and  O_24 
REMARK    7  A    between atoms: C_25  and  C_30 
REMARK    8  A    between atoms: O_28  and  C_30 
ROOT
HETATM    1  C   UNL     1     -41.824 -49.920  12.034  1.00  0.00     0.122 A 
HETATM    2  N   UNL     1     -41.903 -47.863  11.291  1.00  0.00    -0.324 N 
HETATM    3  C   UNL     1     -41.040 -48.900  11.512  1.00  0.00     0.140 A 
HETATM    4  N   UNL     1     -43.141 -49.499  12.133  1.00  0.00    -0.346 N 
ATOM      5  HN  UNL     1     -43.932 -50.025  12.504  1.00  0.00     0.167 HD
HETATM    6  C   UNL     1     -41.177 -51.146  12.326  1.00  0.00     0.135 A 
HETATM    7  C   UNL     1     -43.155 -48.277  11.646  1.00  0.00     0.185 A 
HETATM    8  N   UNL     1     -39.724 -48.926  11.255  1.00  0.00    -0.336 N 
ATOM      9  HN  UNL     1     -39.189 -48.139  10.886  1.00  0.00     0.168 HD
HETATM   10  N   UNL     1     -39.837 -51.209  12.039  1.00  0.00    -0.337 N 
ATOM     11  HN  UNL     1     -39.320 -52.074  12.197  1.00  0.00     0.168 HD
HETATM   12  C   UNL     1     -39.207 -50.129  11.550  1.00  0.00     0.183 A 
ENDROOT
BRANCH   6  13
HETATM   13  N   UNL     1     -41.837 -52.284  12.799  1.00  0.00    -0.362 N 
HETATM   14  C   UNL     1     -41.620 -52.599  14.217  1.00  0.00     0.160 C 
HETATM   15  C   UNL     1     -42.206 -54.007  14.553  1.00  0.00     0.240 C 
HETATM   16  N   UNL     1     -43.645 -54.172  14.176  1.00  0.00     0.098 N 
HETATM   17  C   UNL     1     -43.745 -53.842  12.726  1.00  0.00     0.293 C 
HETATM   18  C   UNL     1     -43.225 -52.439  12.343  1.00  0.00     0.154 C 
BRANCH  15  19
HETATM   19  C   UNL     1     -41.842 -54.392  16.001  1.00  0.00     0.033 C 
HETATM   20  C   UNL     1     -42.220 -55.819  16.372  1.00  0.00     0.007 C 
ENDBRANCH  15  19
BRANCH  16  21
HETATM   21  C   UNL     1     -44.583 -53.367  14.990  1.00  0.00     0.299 C 
BRANCH  21  22
HETATM   22  C   UNL     1     -45.849 -54.158  15.382  1.00  0.00     0.197 C 
BRANCH  22  23
HETATM   23  O   UNL     1     -45.761 -54.657  16.718  1.00  0.00    -0.394 OA
HETATM   24  C   UNL     1     -45.963 -53.596  17.652  1.00  0.00     0.201 C 
ENDBRANCH  22  23
ENDBRANCH  21  22
ENDBRANCH  16  21
ENDBRANCH   6  13
BRANCH   2  25
HETATM   25  C   UNL     1     -41.566 -46.613  10.643  1.00  0.00     0.169 C 
BRANCH  25  26
HETATM   26  C   UNL     1     -41.796 -45.336  11.487  1.00  0.00     0.078 C 
HETATM   27  C   UNL     1     -40.765 -44.273  11.066  1.00  0.00     0.066 C 
HETATM   28  C   UNL     1     -39.400 -44.527  11.683  1.00  0.00     0.170 C 
HETATM   29  O   UNL     1     -39.513 -44.520  13.101  1.00  0.00    -0.391 OA
HETATM   30  C   UNL     1     -40.321 -45.592  13.582  1.00  0.00     0.170 C 
HETATM   31  C   UNL     1     -41.739 -45.528  13.017  1.00  0.00     0.066 C 
BRANCH  26  32
HETATM   32  O   UNL     1     -43.079 -44.790  11.126  1.00  0.00    -0.388 OA
HETATM   33  H   UNL     1     -42.974 -44.173  10.382  1.00  0.00     0.210 HD
ENDBRANCH  26  32
ENDBRANCH  25  26
ENDBRANCH   2  25
TORSDOF 8
ENDMDL
MODEL 9
REMARK VINA RESULT:      -5.7      2.719      3.947
REMARK  8 active torsions:
REMARK  status: ('A' for Active; 'I' for Inactive)
REMARK    1  A    between atoms: N_2  and  C_15 
REMARK    2  A    between atoms: C_6  and  N_7 
REMARK    3  A    between atoms: N_13  and  C_25 
REMARK    4  A    between atoms: C_15  and  C_18 
REMARK    5  A    between atoms: C_16  and  C_29 
REMARK    6  A    between atoms: C_18  and  O_24 
REMARK    7  A    between atoms: C_25  and  C_30 
REMARK    8  A    between atoms: O_28  and  C_30 
ROOT
HETATM    1  C   UNL     1     -41.006 -49.529  11.916  1.00  0.00     0.122 A 
HETATM    2  N   UNL     1     -41.233 -51.668  12.324  1.00  0.00    -0.324 N 
HETATM    3  C   UNL     1     -40.302 -50.723  11.994  1.00  0.00     0.140 A 
HETATM    4  N   UNL     1     -42.347 -49.754  12.188  1.00  0.00    -0.346 N 
ATOM      5  HN  UNL     1     -43.103 -49.070  12.178  1.00  0.00     0.167 HD
HETATM    6  C   UNL     1     -40.264 -48.360  11.618  1.00  0.00     0.135 A 
HETATM    7  C   UNL     1     -42.437 -51.037  12.463  1.00  0.00     0.185 A 
HETATM    8  N   UNL     1     -38.987 -50.914  11.810  1.00  0.00    -0.336 N 
ATOM      9  HN  UNL     1     -38.519 -51.820  11.861  1.00  0.00     0.168 HD
HETATM   10  N   UNL     1     -38.911 -48.524  11.459  1.00  0.00    -0.337 N 
ATOM     11  HN  UNL     1     -38.316 -47.717  11.274  1.00  0.00     0.168 HD
HETATM   12  C   UNL     1     -38.371 -49.751  11.548  1.00  0.00     0.183 A 
ENDROOT
BRANCH   6  13
HETATM   13  N   UNL     1     -40.816 -47.078  11.563  1.00  0.00    -0.362 N 
HETATM   14  C   UNL     1     -41.377 -46.574  12.823  1.00  0.00     0.160 C 
HETATM   15  C   UNL     1     -42.168 -45.251  12.572  1.00  0.00     0.240 C 
HETATM   16  N   UNL     1     -41.374 -44.193  11.871  1.00  0.00     0.098 N 
HETATM   17  C   UNL     1     -40.868 -44.805  10.611  1.00  0.00     0.293 C 
HETATM   18  C   UNL     1     -40.035 -46.091  10.803  1.00  0.00     0.154 C 
BRANCH  15  19
HETATM   19  C   UNL     1     -42.877 -44.812  13.868  1.00  0.00     0.033 C 
HETATM   20  C   UNL     1     -42.740 -45.808  15.012  1.00  0.00     0.007 C 
ENDBRANCH  15  19
BRANCH  16  21
HETATM   21  C   UNL     1     -40.279 -43.617  12.683  1.00  0.00     0.299 C 
BRANCH  21  22
HETATM   22  C   UNL     1     -40.167 -42.087  12.520  1.00  0.00     0.197 C 
BRANCH  22  23
HETATM   23  O   UNL     1     -39.310 -41.517  13.513  1.00  0.00    -0.394 OA
HETATM   24  C   UNL     1     -39.202 -40.107  13.316  1.00  0.00     0.201 C 
ENDBRANCH  22  23
ENDBRANCH  21  22
ENDBRANCH  16  21
ENDBRANCH   6  13
BRANCH   2  25
HETATM   25  C   UNL     1     -40.952 -53.054  12.631  1.00  0.00     0.169 C 
BRANCH  25  26
HETATM   26  C   UNL     1     -40.191 -53.308  13.955  1.00  0.00     0.078 C 
HETATM   27  C   UNL     1     -40.586 -54.695  14.494  1.00  0.00     0.066 C 
HETATM   28  C   UNL     1     -41.938 -54.674  15.187  1.00  0.00     0.170 C 
HETATM   29  O   UNL     1     -41.900 -53.754  16.271  1.00  0.00    -0.391 OA
HETATM   30  C   UNL     1     -41.709 -52.411  15.832  1.00  0.00     0.170 C 
HETATM   31  C   UNL     1     -40.401 -52.250  15.059  1.00  0.00     0.066 C 
BRANCH  26  32
HETATM   32  O   UNL     1     -38.787 -53.401  13.649  1.00  0.00    -0.388 OA
HETATM   33  H   UNL     1     -38.432 -52.514  13.470  1.00  0.00     0.210 HD
ENDBRANCH  26  32
ENDBRANCH  25  26
ENDBRANCH   2  25
TORSDOF 8
ENDMDL
