MODEL 1
REMARK VINA RESULT:      -6.0      0.000      0.000
REMARK  6 active torsions:
REMARK  status: ('A' for Active; 'I' for Inactive)
REMARK    1  A    between atoms: C_5  and  C_6 
REMARK    2  A    between atoms: C_6  and  C_7 
REMARK       I    between atoms: C_7  and  N_9 
REMARK    3  A    between atoms: N_9  and  C_10 
REMARK    4  A    between atoms: C_10  and  C_11 
REMARK    5  A    between atoms: C_11  and  N_12 
REMARK       I    between atoms: N_12  and  C_13 
REMARK    6  A    between atoms: C_13  and  C_15 
ROOT
HETATM    1  C   UNL     1     -41.899 -49.267  11.672  1.00  0.00     0.223 C 
HETATM    2  O   UNL     1     -42.715 -49.041  12.567  1.00  0.00    -0.273 OA
HETATM    3  N   UNL     1     -41.190 -50.443  11.611  1.00  0.00    -0.359 N 
HETATM    4  H   UNL     1     -40.581 -50.591  10.806  1.00  0.00     0.162 HD
ENDROOT
BRANCH   3   5
HETATM    5  C   UNL     1     -41.359 -51.507  12.583  1.00  0.00     0.142 C 
BRANCH   5   6
HETATM    6  C   UNL     1     -42.385 -52.561  12.155  1.00  0.00     0.142 C 
BRANCH   6   7
HETATM    7  N   UNL     1     -43.736 -52.219  12.572  1.00  0.00    -0.359 N 
HETATM    8  C   UNL     1     -44.722 -53.169  12.659  1.00  0.00     0.221 C 
HETATM    9  O   UNL     1     -44.545 -54.350  12.384  1.00  0.00    -0.273 OA
HETATM   10  H   UNL     1     -43.922 -51.268  12.856  1.00  0.00     0.162 HD
BRANCH   8  11
HETATM   11  C   UNL     1     -46.073 -52.721  13.100  1.00  0.00     0.078 A 
HETATM   12  C   UNL     1     -46.872 -51.789  12.221  1.00  0.00     0.015 A 
HETATM   13  C   UNL     1     -46.437 -51.342  13.586  1.00  0.00     0.015 A 
ENDBRANCH   8  11
ENDBRANCH   6   7
ENDBRANCH   5   6
ENDBRANCH   3   5
BRANCH   1  14
HETATM   14  C   UNL     1     -41.544 -48.206  10.645  1.00  0.00     0.160 C 
BRANCH  14  15
HETATM   15  C   UNL     1     -42.711 -47.451  10.096  1.00  0.00     0.025 A 
HETATM   16  N   UNL     1     -43.951 -48.078  10.018  1.00  0.00    -0.357 N 
HETATM   17  C   UNL     1     -44.830 -47.277   9.452  1.00  0.00     0.047 A 
ATOM     18  HN  UNL     1     -44.150 -49.022  10.352  1.00  0.00     0.166 HD
HETATM   19  C   UNL     1     -46.252 -47.629   9.189  1.00  0.00     0.076 C 
HETATM   20  S   UNL     1     -44.237 -45.729   9.002  1.00  0.00    -0.087 SA
HETATM   21  C   UNL     1     -42.690 -46.163   9.592  1.00  0.00     0.077 A 
ENDBRANCH  14  15
ENDBRANCH   1  14
TORSDOF 6
ENDMDL
MODEL 2
REMARK VINA RESULT:      -5.7      2.754      5.720
REMARK  6 active torsions:
REMARK  status: ('A' for Active; 'I' for Inactive)
REMARK    1  A    between atoms: C_5  and  C_6 
REMARK    2  A    between atoms: C_6  and  C_7 
REMARK       I    between atoms: C_7  and  N_9 
REMARK    3  A    between atoms: N_9  and  C_10 
REMARK    4  A    between atoms: C_10  and  C_11 
REMARK    5  A    between atoms: C_11  and  N_12 
REMARK       I    between atoms: N_12  and  C_13 
REMARK    6  A    between atoms: C_13  and  C_15 
ROOT
HETATM    1  C   UNL     1     -41.693 -50.380  12.307  1.00  0.00     0.223 C 
HETATM    2  O   UNL     1     -41.695 -49.793  13.391  1.00  0.00    -0.273 OA
HETATM    3  N   UNL     1     -41.675 -49.703  11.111  1.00  0.00    -0.359 N 
HETATM    4  H   UNL     1     -41.607 -50.252  10.254  1.00  0.00     0.162 HD
ENDROOT
BRANCH   3   5
HETATM    5  C   UNL     1     -41.646 -48.255  11.035  1.00  0.00     0.142 C 
BRANCH   5   6
HETATM    6  C   UNL     1     -42.959 -47.599  11.474  1.00  0.00     0.142 C 
BRANCH   6   7
HETATM    7  N   UNL     1     -44.078 -47.982  10.627  1.00  0.00    -0.359 N 
HETATM    8  C   UNL     1     -44.431 -47.242   9.526  1.00  0.00     0.221 C 
HETATM    9  O   UNL     1     -43.850 -46.218   9.190  1.00  0.00    -0.273 OA
HETATM   10  H   UNL     1     -44.560 -48.845  10.834  1.00  0.00     0.162 HD
BRANCH   8  11
HETATM   11  C   UNL     1     -45.590 -47.718   8.719  1.00  0.00     0.078 A 
HETATM   12  C   UNL     1     -46.975 -47.201   9.028  1.00  0.00     0.015 A 
HETATM   13  C   UNL     1     -46.668 -48.662   9.185  1.00  0.00     0.015 A 
ENDBRANCH   8  11
ENDBRANCH   6   7
ENDBRANCH   5   6
ENDBRANCH   3   5
BRANCH   1  14
HETATM   14  C   UNL     1     -41.825 -51.892  12.231  1.00  0.00     0.160 C 
BRANCH  14  15
HETATM   15  C   UNL     1     -43.154 -52.426  12.659  1.00  0.00     0.025 A 
HETATM   16  N   UNL     1     -44.200 -51.538  12.897  1.00  0.00    -0.357 N 
HETATM   17  C   UNL     1     -45.261 -52.191  13.324  1.00  0.00     0.047 A 
ATOM     18  HN  UNL     1     -44.151 -50.528  12.760  1.00  0.00     0.166 HD
HETATM   19  C   UNL     1     -46.555 -51.555  13.696  1.00  0.00     0.076 C 
HETATM   20  S   UNL     1     -45.082 -53.895  13.443  1.00  0.00    -0.087 SA
HETATM   21  C   UNL     1     -43.464 -53.751  12.901  1.00  0.00     0.077 A 
ENDBRANCH  14  15
ENDBRANCH   1  14
TORSDOF 6
ENDMDL
MODEL 3
REMARK VINA RESULT:      -5.5      1.692      2.046
REMARK  6 active torsions:
REMARK  status: ('A' for Active; 'I' for Inactive)
REMARK    1  A    between atoms: C_5  and  C_6 
REMARK    2  A    between atoms: C_6  and  C_7 
REMARK       I    between atoms: C_7  and  N_9 
REMARK    3  A    between atoms: N_9  and  C_10 
REMARK    4  A    between atoms: C_10  and  C_11 
REMARK    5  A    between atoms: C_11  and  N_12 
REMARK       I    between atoms: N_12  and  C_13 
REMARK    6  A    between atoms: C_13  and  C_15 
ROOT
HETATM    1  C   UNL     1     -40.214 -50.846  11.927  1.00  0.00     0.223 C 
HETATM    2  O   UNL     1     -39.349 -51.520  12.489  1.00  0.00    -0.273 OA
HETATM    3  N   UNL     1     -41.454 -51.355  11.626  1.00  0.00    -0.359 N 
HETATM    4  H   UNL     1     -42.144 -50.722  11.221  1.00  0.00     0.162 HD
ENDROOT
BRANCH   3   5
HETATM    5  C   UNL     1     -41.840 -52.714  11.956  1.00  0.00     0.142 C 
BRANCH   5   6
HETATM    6  C   UNL     1     -42.392 -52.858  13.377  1.00  0.00     0.142 C 
BRANCH   6   7
HETATM    7  N   UNL     1     -43.782 -52.438  13.476  1.00  0.00    -0.359 N 
HETATM    8  C   UNL     1     -44.808 -53.252  13.066  1.00  0.00     0.221 C 
HETATM    9  O   UNL     1     -44.633 -54.365  12.585  1.00  0.00    -0.273 OA
HETATM   10  H   UNL     1     -43.982 -51.549  13.910  1.00  0.00     0.162 HD
BRANCH   8  11
HETATM   11  C   UNL     1     -46.197 -52.734  13.212  1.00  0.00     0.078 A 
HETATM   12  C   UNL     1     -46.664 -51.598  12.333  1.00  0.00     0.015 A 
HETATM   13  C   UNL     1     -46.593 -51.414  13.821  1.00  0.00     0.015 A 
ENDBRANCH   8  11
ENDBRANCH   6   7
ENDBRANCH   5   6
ENDBRANCH   3   5
BRANCH   1  14
HETATM   14  C   UNL     1     -39.917 -49.441  11.431  1.00  0.00     0.160 C 
BRANCH  14  15
HETATM   15  C   UNL     1     -41.127 -48.606  11.157  1.00  0.00     0.025 A 
HETATM   16  N   UNL     1     -41.637 -48.552   9.863  1.00  0.00    -0.357 N 
HETATM   17  C   UNL     1     -42.656 -47.719   9.812  1.00  0.00     0.047 A 
ATOM     18  HN  UNL     1     -41.274 -49.081   9.070  1.00  0.00     0.166 HD
HETATM   19  C   UNL     1     -43.431 -47.401   8.581  1.00  0.00     0.076 C 
HETATM   20  S   UNL     1     -43.078 -46.974  11.302  1.00  0.00    -0.087 SA
HETATM   21  C   UNL     1     -41.796 -47.811  12.069  1.00  0.00     0.077 A 
ENDBRANCH  14  15
ENDBRANCH   1  14
TORSDOF 6
ENDMDL
MODEL 4
REMARK VINA RESULT:      -5.4      3.109      6.388
REMARK  6 active torsions:
REMARK  status: ('A' for Active; 'I' for Inactive)
REMARK    1  A    between atoms: C_5  and  C_6 
REMARK    2  A    between atoms: C_6  and  C_7 
REMARK       I    between atoms: C_7  and  N_9 
REMARK    3  A    between atoms: N_9  and  C_10 
REMARK    4  A    between atoms: C_10  and  C_11 
REMARK    5  A    between atoms: C_11  and  N_12 
REMARK       I    between atoms: N_12  and  C_13 
REMARK    6  A    between atoms: C_13  and  C_15 
ROOT
HETATM    1  C   UNL     1     -42.541 -52.159  12.686  1.00  0.00     0.223 C 
HETATM    2  O   UNL     1     -42.427 -51.898  13.884  1.00  0.00    -0.273 OA
HETATM    3  N   UNL     1     -41.724 -51.597  11.735  1.00  0.00    -0.359 N 
HETATM    4  H   UNL     1     -41.831 -51.909  10.769  1.00  0.00     0.162 HD
ENDROOT
BRANCH   3   5
HETATM    5  C   UNL     1     -40.662 -50.667  12.071  1.00  0.00     0.142 C 
BRANCH   5   6
HETATM    6  C   UNL     1     -40.609 -49.449  11.144  1.00  0.00     0.142 C 
BRANCH   6   7
HETATM    7  N   UNL     1     -41.923 -49.076  10.643  1.00  0.00    -0.359 N 
HETATM    8  C   UNL     1     -42.213 -47.784  10.283  1.00  0.00     0.221 C 
HETATM    9  O   UNL     1     -41.408 -46.866  10.366  1.00  0.00    -0.273 OA
HETATM   10  H   UNL     1     -42.608 -49.806  10.509  1.00  0.00     0.162 HD
BRANCH   8  11
HETATM   11  C   UNL     1     -43.587 -47.503   9.777  1.00  0.00     0.078 A 
HETATM   12  C   UNL     1     -43.861 -47.566   8.293  1.00  0.00     0.015 A 
HETATM   13  C   UNL     1     -44.023 -46.269   9.032  1.00  0.00     0.015 A 
ENDBRANCH   8  11
ENDBRANCH   6   7
ENDBRANCH   5   6
ENDBRANCH   3   5
BRANCH   1  14
HETATM   14  C   UNL     1     -43.673 -53.036  12.177  1.00  0.00     0.160 C 
BRANCH  14  15
HETATM   15  C   UNL     1     -44.764 -53.288  13.167  1.00  0.00     0.025 A 
HETATM   16  N   UNL     1     -45.408 -52.206  13.761  1.00  0.00    -0.357 N 
HETATM   17  C   UNL     1     -46.286 -52.631  14.646  1.00  0.00     0.047 A 
ATOM     18  HN  UNL     1     -45.225 -51.226  13.542  1.00  0.00     0.166 HD
HETATM   19  C   UNL     1     -47.141 -51.746  15.484  1.00  0.00     0.076 C 
HETATM   20  S   UNL     1     -46.411 -54.337  14.803  1.00  0.00    -0.087 SA
HETATM   21  C   UNL     1     -45.193 -54.524  13.615  1.00  0.00     0.077 A 
ENDBRANCH  14  15
ENDBRANCH   1  14
TORSDOF 6
ENDMDL
MODEL 5
REMARK VINA RESULT:      -5.3      2.391      2.983
REMARK  6 active torsions:
REMARK  status: ('A' for Active; 'I' for Inactive)
REMARK    1  A    between atoms: C_5  and  C_6 
REMARK    2  A    between atoms: C_6  and  C_7 
REMARK       I    between atoms: C_7  and  N_9 
REMARK    3  A    between atoms: N_9  and  C_10 
REMARK    4  A    between atoms: C_10  and  C_11 
REMARK    5  A    between atoms: C_11  and  N_12 
REMARK       I    between atoms: N_12  and  C_13 
REMARK    6  A    between atoms: C_13  and  C_15 
ROOT
HETATM    1  C   UNL     1     -41.379 -49.923  11.585  1.00  0.00     0.223 C 
HETATM    2  O   UNL     1     -40.168 -50.045  11.398  1.00  0.00    -0.273 OA
HETATM    3  N   UNL     1     -42.167 -50.976  11.985  1.00  0.00    -0.359 N 
HETATM    4  H   UNL     1     -43.149 -50.788  12.185  1.00  0.00     0.162 HD
ENDROOT
BRANCH   3   5
HETATM    5  C   UNL     1     -41.630 -52.301  12.228  1.00  0.00     0.142 C 
BRANCH   5   6
HETATM    6  C   UNL     1     -42.295 -53.017  13.408  1.00  0.00     0.142 C 
BRANCH   6   7
HETATM    7  N   UNL     1     -43.676 -52.602  13.599  1.00  0.00    -0.359 N 
HETATM    8  C   UNL     1     -44.716 -53.286  13.020  1.00  0.00     0.221 C 
HETATM    9  O   UNL     1     -44.561 -54.267  12.305  1.00  0.00    -0.273 OA
HETATM   10  H   UNL     1     -43.861 -51.828  14.219  1.00  0.00     0.162 HD
BRANCH   8  11
HETATM   11  C   UNL     1     -46.096 -52.786  13.279  1.00  0.00     0.078 A 
HETATM   12  C   UNL     1     -46.685 -51.726  12.379  1.00  0.00     0.015 A 
HETATM   13  C   UNL     1     -46.462 -51.434  13.834  1.00  0.00     0.015 A 
ENDBRANCH   8  11
ENDBRANCH   6   7
ENDBRANCH   5   6
ENDBRANCH   3   5
BRANCH   1  14
HETATM   14  C   UNL     1     -42.096 -48.620  11.272  1.00  0.00     0.160 C 
BRANCH  14  15
HETATM   15  C   UNL     1     -41.270 -47.389  11.467  1.00  0.00     0.025 A 
HETATM   16  N   UNL     1     -40.756 -46.731  10.354  1.00  0.00    -0.357 N 
HETATM   17  C   UNL     1     -40.009 -45.714  10.733  1.00  0.00     0.047 A 
ATOM     18  HN  UNL     1     -40.932 -46.997   9.385  1.00  0.00     0.166 HD
HETATM   19  C   UNL     1     -39.284 -44.802   9.806  1.00  0.00     0.076 C 
HETATM   20  S   UNL     1     -39.896 -45.471  12.429  1.00  0.00    -0.087 SA
HETATM   21  C   UNL     1     -40.905 -46.832  12.679  1.00  0.00     0.077 A 
ENDBRANCH  14  15
ENDBRANCH   1  14
TORSDOF 6
ENDMDL
MODEL 6
REMARK VINA RESULT:      -5.2      2.401      4.410
REMARK  6 active torsions:
REMARK  status: ('A' for Active; 'I' for Inactive)
REMARK    1  A    between atoms: C_5  and  C_6 
REMARK    2  A    between atoms: C_6  and  C_7 
REMARK       I    between atoms: C_7  and  N_9 
REMARK    3  A    between atoms: N_9  and  C_10 
REMARK    4  A    between atoms: C_10  and  C_11 
REMARK    5  A    between atoms: C_11  and  N_12 
REMARK       I    between atoms: N_12  and  C_13 
REMARK    6  A    between atoms: C_13  and  C_15 
ROOT
HETATM    1  C   UNL     1     -42.621 -49.343  12.309  1.00  0.00     0.223 C 
HETATM    2  O   UNL     1     -43.421 -49.376  13.245  1.00  0.00    -0.273 OA
HETATM    3  N   UNL     1     -42.023 -50.480  11.820  1.00  0.00    -0.359 N 
HETATM    4  H   UNL     1     -41.422 -50.388  11.001  1.00  0.00     0.162 HD
ENDROOT
BRANCH   3   5
HETATM    5  C   UNL     1     -42.298 -51.798  12.359  1.00  0.00     0.142 C 
BRANCH   5   6
HETATM    6  C   UNL     1     -41.032 -52.614  12.639  1.00  0.00     0.142 C 
BRANCH   6   7
HETATM    7  N   UNL     1     -39.818 -51.885  12.303  1.00  0.00    -0.359 N 
HETATM    8  C   UNL     1     -38.962 -51.430  13.274  1.00  0.00     0.221 C 
HETATM    9  O   UNL     1     -39.159 -51.589  14.472  1.00  0.00    -0.273 OA
HETATM   10  H   UNL     1     -39.586 -51.769  11.327  1.00  0.00     0.162 HD
BRANCH   8  11
HETATM   11  C   UNL     1     -37.743 -50.697  12.828  1.00  0.00     0.078 A 
HETATM   12  C   UNL     1     -37.798 -49.198  12.651  1.00  0.00     0.015 A 
HETATM   13  C   UNL     1     -37.523 -50.083  11.470  1.00  0.00     0.015 A 
ENDBRANCH   8  11
ENDBRANCH   6   7
ENDBRANCH   5   6
ENDBRANCH   3   5
BRANCH   1  14
HETATM   14  C   UNL     1     -42.160 -48.024  11.713  1.00  0.00     0.160 C 
BRANCH  14  15
HETATM   15  C   UNL     1     -43.097 -47.428  10.712  1.00  0.00     0.025 A 
HETATM   16  N   UNL     1     -44.314 -48.055  10.462  1.00  0.00    -0.357 N 
HETATM   17  C   UNL     1     -44.965 -47.419   9.510  1.00  0.00     0.047 A 
ATOM     18  HN  UNL     1     -44.653 -48.887  10.946  1.00  0.00     0.166 HD
HETATM   19  C   UNL     1     -46.293 -47.825   8.973  1.00  0.00     0.076 C 
HETATM   20  S   UNL     1     -44.178 -46.029   8.878  1.00  0.00    -0.087 SA
HETATM   21  C   UNL     1     -42.864 -46.305   9.940  1.00  0.00     0.077 A 
ENDBRANCH  14  15
ENDBRANCH   1  14
TORSDOF 6
ENDMDL
MODEL 7
REMARK VINA RESULT:      -5.2      3.537      6.773
REMARK  6 active torsions:
REMARK  status: ('A' for Active; 'I' for Inactive)
REMARK    1  A    between atoms: C_5  and  C_6 
REMARK    2  A    between atoms: C_6  and  C_7 
REMARK       I    between atoms: C_7  and  N_9 
REMARK    3  A    between atoms: N_9  and  C_10 
REMARK    4  A    between atoms: C_10  and  C_11 
REMARK    5  A    between atoms: C_11  and  N_12 
REMARK       I    between atoms: N_12  and  C_13 
REMARK    6  A    between atoms: C_13  and  C_15 
ROOT
HETATM    1  C   UNL     1     -43.309 -49.684  13.081  1.00  0.00     0.223 C 
HETATM    2  O   UNL     1     -42.513 -49.244  13.912  1.00  0.00    -0.273 OA
HETATM    3  N   UNL     1     -43.501 -49.079  11.861  1.00  0.00    -0.359 N 
HETATM    4  H   UNL     1     -44.126 -49.535  11.196  1.00  0.00     0.162 HD
ENDROOT
BRANCH   3   5
HETATM    5  C   UNL     1     -42.775 -47.889  11.459  1.00  0.00     0.142 C 
BRANCH   5   6
HETATM    6  C   UNL     1     -41.707 -48.163  10.396  1.00  0.00     0.142 C 
BRANCH   6   7
HETATM    7  N   UNL     1     -40.372 -48.267  10.967  1.00  0.00    -0.359 N 
HETATM    8  C   UNL     1     -39.880 -49.463  11.425  1.00  0.00     0.221 C 
HETATM    9  O   UNL     1     -40.519 -50.508  11.400  1.00  0.00    -0.273 OA
HETATM   10  H   UNL     1     -39.787 -47.445  10.966  1.00  0.00     0.162 HD
BRANCH   8  11
HETATM   11  C   UNL     1     -38.500 -49.469  11.988  1.00  0.00     0.078 A 
HETATM   12  C   UNL     1     -37.354 -49.976  11.145  1.00  0.00     0.015 A 
HETATM   13  C   UNL     1     -37.721 -50.685  12.416  1.00  0.00     0.015 A 
ENDBRANCH   8  11
ENDBRANCH   6   7
ENDBRANCH   5   6
ENDBRANCH   3   5
BRANCH   1  14
HETATM   14  C   UNL     1     -44.213 -50.862  13.404  1.00  0.00     0.160 C 
BRANCH  14  15
HETATM   15  C   UNL     1     -43.493 -52.128  13.744  1.00  0.00     0.025 A 
HETATM   16  N   UNL     1     -42.187 -52.309  13.296  1.00  0.00    -0.357 N 
HETATM   17  C   UNL     1     -41.752 -53.503  13.640  1.00  0.00     0.047 A 
ATOM     18  HN  UNL     1     -41.646 -51.616  12.778  1.00  0.00     0.166 HD
HETATM   19  C   UNL     1     -40.405 -54.043  13.308  1.00  0.00     0.076 C 
HETATM   20  S   UNL     1     -42.860 -54.466  14.532  1.00  0.00    -0.087 SA
HETATM   21  C   UNL     1     -44.012 -53.203  14.440  1.00  0.00     0.077 A 
ENDBRANCH  14  15
ENDBRANCH   1  14
TORSDOF 6
ENDMDL
MODEL 8
REMARK VINA RESULT:      -5.2      3.070      6.572
REMARK  6 active torsions:
REMARK  status: ('A' for Active; 'I' for Inactive)
REMARK    1  A    between atoms: C_5  and  C_6 
REMARK    2  A    between atoms: C_6  and  C_7 
REMARK       I    between atoms: C_7  and  N_9 
REMARK    3  A    between atoms: N_9  and  C_10 
REMARK    4  A    between atoms: C_10  and  C_11 
REMARK    5  A    between atoms: C_11  and  N_12 
REMARK       I    between atoms: N_12  and  C_13 
REMARK    6  A    between atoms: C_13  and  C_15 
ROOT
HETATM    1  C   UNL     1     -42.991 -50.222  13.194  1.00  0.00     0.223 C 
HETATM    2  O   UNL     1     -42.215 -49.988  14.121  1.00  0.00    -0.273 OA
HETATM    3  N   UNL     1     -42.676 -49.933  11.888  1.00  0.00    -0.359 N 
HETATM    4  H   UNL     1     -43.338 -50.215  11.164  1.00  0.00     0.162 HD
ENDROOT
BRANCH   3   5
HETATM    5  C   UNL     1     -41.407 -49.345  11.504  1.00  0.00     0.142 C 
BRANCH   5   6
HETATM    6  C   UNL     1     -41.557 -48.134  10.578  1.00  0.00     0.142 C 
BRANCH   6   7
HETATM    7  N   UNL     1     -42.816 -48.147   9.849  1.00  0.00    -0.359 N 
HETATM    8  C   UNL     1     -43.286 -47.028   9.210  1.00  0.00     0.221 C 
HETATM    9  O   UNL     1     -42.699 -45.953   9.216  1.00  0.00    -0.273 OA
HETATM   10  H   UNL     1     -43.315 -49.022   9.773  1.00  0.00     0.162 HD
BRANCH   8  11
HETATM   11  C   UNL     1     -44.584 -47.143   8.487  1.00  0.00     0.078 A 
HETATM   12  C   UNL     1     -45.842 -46.599   9.123  1.00  0.00     0.015 A 
HETATM   13  C   UNL     1     -45.719 -48.068   8.840  1.00  0.00     0.015 A 
ENDBRANCH   8  11
ENDBRANCH   6   7
ENDBRANCH   5   6
ENDBRANCH   3   5
BRANCH   1  14
HETATM   14  C   UNL     1     -44.395 -50.742  13.456  1.00  0.00     0.160 C 
BRANCH  14  15
HETATM   15  C   UNL     1     -44.482 -52.215  13.694  1.00  0.00     0.025 A 
HETATM   16  N   UNL     1     -43.474 -52.848  14.416  1.00  0.00    -0.357 N 
HETATM   17  C   UNL     1     -43.697 -54.145  14.463  1.00  0.00     0.047 A 
ATOM     18  HN  UNL     1     -42.678 -52.376  14.845  1.00  0.00     0.166 HD
HETATM   19  C   UNL     1     -42.809 -55.134  15.135  1.00  0.00     0.076 C 
HETATM   20  S   UNL     1     -45.126 -54.680  13.675  1.00  0.00    -0.087 SA
HETATM   21  C   UNL     1     -45.466 -53.064  13.222  1.00  0.00     0.077 A 
ENDBRANCH  14  15
ENDBRANCH   1  14
TORSDOF 6
ENDMDL
MODEL 9
REMARK VINA RESULT:      -5.0      2.111      2.978
REMARK  6 active torsions:
REMARK  status: ('A' for Active; 'I' for Inactive)
REMARK    1  A    between atoms: C_5  and  C_6 
REMARK    2  A    between atoms: C_6  and  C_7 
REMARK       I    between atoms: C_7  and  N_9 
REMARK    3  A    between atoms: N_9  and  C_10 
REMARK    4  A    between atoms: C_10  and  C_11 
REMARK    5  A    between atoms: C_11  and  N_12 
REMARK       I    between atoms: N_12  and  C_13 
REMARK    6  A    between atoms: C_13  and  C_15 
ROOT
HETATM    1  C   UNL     1     -40.641 -52.040  12.522  1.00  0.00     0.223 C 
HETATM    2  O   UNL     1     -41.358 -52.101  11.522  1.00  0.00    -0.273 OA
HETATM    3  N   UNL     1     -40.585 -53.059  13.443  1.00  0.00    -0.359 N 
HETATM    4  H   UNL     1     -39.920 -52.970  14.212  1.00  0.00     0.162 HD
ENDROOT
BRANCH   3   5
HETATM    5  C   UNL     1     -41.352 -54.281  13.301  1.00  0.00     0.142 C 
BRANCH   5   6
HETATM    6  C   UNL     1     -42.631 -54.294  14.145  1.00  0.00     0.142 C 
BRANCH   6   7
HETATM    7  N   UNL     1     -43.427 -53.090  13.961  1.00  0.00    -0.359 N 
HETATM    8  C   UNL     1     -44.525 -53.076  13.137  1.00  0.00     0.221 C 
HETATM    9  O   UNL     1     -44.899 -54.051  12.498  1.00  0.00    -0.273 OA
HETATM   10  H   UNL     1     -43.189 -52.273  14.502  1.00  0.00     0.162 HD
BRANCH   8  11
HETATM   11  C   UNL     1     -45.278 -51.795  13.017  1.00  0.00     0.078 A 
HETATM   12  C   UNL     1     -46.474 -51.551  13.906  1.00  0.00     0.015 A 
HETATM   13  C   UNL     1     -46.649 -51.625  12.417  1.00  0.00     0.015 A 
ENDBRANCH   8  11
ENDBRANCH   6   7
ENDBRANCH   5   6
ENDBRANCH   3   5
BRANCH   1  14
HETATM   14  C   UNL     1     -39.860 -50.780  12.855  1.00  0.00     0.160 C 
BRANCH  14  15
HETATM   15  C   UNL     1     -40.423 -49.523  12.274  1.00  0.00     0.025 A 
HETATM   16  N   UNL     1     -41.802 -49.404  12.119  1.00  0.00    -0.357 N 
HETATM   17  C   UNL     1     -42.095 -48.260  11.537  1.00  0.00     0.047 A 
ATOM     18  HN  UNL     1     -42.485 -50.101  12.415  1.00  0.00     0.166 HD
HETATM   19  C   UNL     1     -43.473 -47.810  11.196  1.00  0.00     0.076 C 
HETATM   20  S   UNL     1     -40.753 -47.255  11.163  1.00  0.00    -0.087 SA
HETATM   21  C   UNL     1     -39.701 -48.439  11.811  1.00  0.00     0.077 A 
ENDBRANCH  14  15
ENDBRANCH   1  14
TORSDOF 6
ENDMDL
