MODEL 1
REMARK VINA RESULT:      -5.8      0.000      0.000
REMARK  8 active torsions:
REMARK  status: ('A' for Active; 'I' for Inactive)
REMARK    1  A    between atoms: C_2  and  C_4 
REMARK    2  A    between atoms: C_4  and  O_5 
REMARK    3  A    between atoms: C_4  and  C_6 
REMARK    4  A    between atoms: C_6  and  C_7 
REMARK    5  A    between atoms: C_7  and  N_8 
REMARK    6  A    between atoms: N_8  and  C_9 
REMARK    7  A    between atoms: C_9  and  C_11 
REMARK    8  A    between atoms: C_11  and  C_12 
ROOT
HETATM    1  N   UNL     1     -42.860 -49.522  11.717  1.00  0.00     0.088 N 
HETATM    2  H   UNL     1     -43.585 -49.442  11.003  1.00  0.00     0.316 HD
ENDROOT
BRANCH   1   3
HETATM    3  C   UNL     1     -43.484 -50.035  12.939  1.00  0.00     0.282 C 
BRANCH   3   4
HETATM    4  C   UNL     1     -43.358 -51.516  13.239  1.00  0.00     0.012 A 
HETATM    5  C   UNL     1     -42.099 -52.280  12.855  1.00  0.00     0.015 A 
HETATM    6  C   UNL     1     -42.376 -51.989  14.302  1.00  0.00     0.015 A 
BRANCH   4   7
HETATM    7  C   UNL     1     -44.691 -52.276  13.130  1.00  0.00     0.131 C 
BRANCH   7   8
HETATM    8  C   UNL     1     -45.949 -51.370  13.133  1.00  0.00     0.007 C 
HETATM    9  C   UNL     1     -46.897 -51.732  11.984  1.00  0.00     0.012 C 
HETATM   10  C   UNL     1     -46.712 -51.438  14.459  1.00  0.00     0.012 C 
ENDBRANCH   7   8
BRANCH   7  11
HETATM   11  O   UNL     1     -44.658 -53.062  11.933  1.00  0.00    -0.394 OA
HETATM   12  H   UNL     1     -44.108 -52.600  11.281  1.00  0.00     0.210 HD
ENDBRANCH   7  11
ENDBRANCH   4   7
ENDBRANCH   3   4
ENDBRANCH   1   3
BRANCH   1  13
HETATM   13  C   UNL     1     -42.286 -48.174  11.950  1.00  0.00     0.220 C 
HETATM   14  C   UNL     1     -40.843 -48.084  11.416  1.00  0.00     0.043 C 
BRANCH  13  15
HETATM   15  C   UNL     1     -43.118 -47.056  11.279  1.00  0.00     0.073 C 
BRANCH  15  16
HETATM   16  C   UNL     1     -43.752 -47.433   9.962  1.00  0.00    -0.053 A 
HETATM   17  C   UNL     1     -42.983 -47.623   8.812  1.00  0.00     0.024 A 
HETATM   18  C   UNL     1     -43.624 -48.003   7.641  1.00  0.00     0.088 A 
HETATM   19  N   UNL     1     -44.956 -48.193   7.542  1.00  0.00    -0.375 N 
HETATM   20  C   UNL     1     -45.681 -47.998   8.661  1.00  0.00     0.088 A 
ATOM     21  HN  UNL     1     -45.392 -48.469   6.663  1.00  0.00     0.164 HD
HETATM   22  C   UNL     1     -45.132 -47.624   9.879  1.00  0.00     0.024 A 
ENDBRANCH  15  16
ENDBRANCH  13  15
ENDBRANCH   1  13
TORSDOF 8
ENDMDL
MODEL 2
REMARK VINA RESULT:      -5.6      3.579      6.791
REMARK  8 active torsions:
REMARK  status: ('A' for Active; 'I' for Inactive)
REMARK    1  A    between atoms: C_2  and  C_4 
REMARK    2  A    between atoms: C_4  and  O_5 
REMARK    3  A    between atoms: C_4  and  C_6 
REMARK    4  A    between atoms: C_6  and  C_7 
REMARK    5  A    between atoms: C_7  and  N_8 
REMARK    6  A    between atoms: N_8  and  C_9 
REMARK    7  A    between atoms: C_9  and  C_11 
REMARK    8  A    between atoms: C_11  and  C_12 
ROOT
HETATM    1  N   UNL     1     -40.736 -52.615  12.391  1.00  0.00     0.088 N 
HETATM    2  H   UNL     1     -39.838 -52.758  11.928  1.00  0.00     0.316 HD
ENDROOT
BRANCH   1   3
HETATM    3  C   UNL     1     -40.619 -51.432  13.247  1.00  0.00     0.282 C 
BRANCH   3   4
HETATM    4  C   UNL     1     -40.910 -50.075  12.635  1.00  0.00     0.012 A 
HETATM    5  C   UNL     1     -42.335 -49.672  12.286  1.00  0.00     0.015 A 
HETATM    6  C   UNL     1     -41.647 -49.022  13.451  1.00  0.00     0.015 A 
BRANCH   4   7
HETATM    7  C   UNL     1     -39.798 -49.579  11.695  1.00  0.00     0.131 C 
BRANCH   7   8
HETATM    8  C   UNL     1     -38.360 -49.921  12.164  1.00  0.00     0.007 C 
HETATM    9  C   UNL     1     -37.377 -49.915  10.987  1.00  0.00     0.012 C 
HETATM   10  C   UNL     1     -37.859 -48.965  13.248  1.00  0.00     0.012 C 
ENDBRANCH   7   8
BRANCH   7  11
HETATM   11  O   UNL     1     -40.034 -50.134  10.396  1.00  0.00    -0.394 OA
HETATM   12  H   UNL     1     -39.370 -50.824  10.236  1.00  0.00     0.210 HD
ENDBRANCH   7  11
ENDBRANCH   4   7
ENDBRANCH   3   4
ENDBRANCH   1   3
BRANCH   1  13
HETATM   13  C   UNL     1     -41.039 -53.819  13.204  1.00  0.00     0.220 C 
HETATM   14  C   UNL     1     -39.750 -54.444  13.773  1.00  0.00     0.043 C 
BRANCH  13  15
HETATM   15  C   UNL     1     -41.986 -53.508  14.387  1.00  0.00     0.073 C 
BRANCH  15  16
HETATM   16  C   UNL     1     -43.457 -53.656  14.084  1.00  0.00    -0.053 A 
HETATM   17  C   UNL     1     -44.210 -52.586  13.595  1.00  0.00     0.024 A 
HETATM   18  C   UNL     1     -45.550 -52.797  13.304  1.00  0.00     0.088 A 
HETATM   19  N   UNL     1     -46.179 -53.978  13.474  1.00  0.00    -0.375 N 
HETATM   20  C   UNL     1     -45.436 -54.997  13.953  1.00  0.00     0.088 A 
ATOM     21  HN  UNL     1     -47.167 -54.095  13.252  1.00  0.00     0.164 HD
HETATM   22  C   UNL     1     -44.090 -54.885  14.267  1.00  0.00     0.024 A 
ENDBRANCH  15  16
ENDBRANCH  13  15
ENDBRANCH   1  13
TORSDOF 8
ENDMDL
MODEL 3
REMARK VINA RESULT:      -5.5      2.450      3.735
REMARK  8 active torsions:
REMARK  status: ('A' for Active; 'I' for Inactive)
REMARK    1  A    between atoms: C_2  and  C_4 
REMARK    2  A    between atoms: C_4  and  O_5 
REMARK    3  A    between atoms: C_4  and  C_6 
REMARK    4  A    between atoms: C_6  and  C_7 
REMARK    5  A    between atoms: C_7  and  N_8 
REMARK    6  A    between atoms: N_8  and  C_9 
REMARK    7  A    between atoms: C_9  and  C_11 
REMARK    8  A    between atoms: C_11  and  C_12 
ROOT
HETATM    1  N   UNL     1     -40.379 -47.698  10.858  1.00  0.00     0.088 N 
HETATM    2  H   UNL     1     -40.539 -48.522  10.277  1.00  0.00     0.316 HD
ENDROOT
BRANCH   1   3
HETATM    3  C   UNL     1     -39.663 -48.127  12.061  1.00  0.00     0.282 C 
BRANCH   3   4
HETATM    4  C   UNL     1     -39.046 -49.513  12.070  1.00  0.00     0.012 A 
HETATM    5  C   UNL     1     -37.742 -49.785  11.332  1.00  0.00     0.015 A 
HETATM    6  C   UNL     1     -37.751 -49.756  12.833  1.00  0.00     0.015 A 
BRANCH   4   7
HETATM    7  C   UNL     1     -40.087 -50.644  12.080  1.00  0.00     0.131 C 
BRANCH   7   8
HETATM    8  C   UNL     1     -41.156 -50.524  13.197  1.00  0.00     0.007 C 
HETATM    9  C   UNL     1     -42.553 -50.303  12.607  1.00  0.00     0.012 C 
HETATM   10  C   UNL     1     -41.181 -51.751  14.113  1.00  0.00     0.012 C 
ENDBRANCH   7   8
BRANCH   7  11
HETATM   11  O   UNL     1     -40.723 -50.675  10.797  1.00  0.00    -0.394 OA
HETATM   12  H   UNL     1     -41.341 -51.423  10.782  1.00  0.00     0.210 HD
ENDBRANCH   7  11
ENDBRANCH   4   7
ENDBRANCH   3   4
ENDBRANCH   1   3
BRANCH   1  13
HETATM   13  C   UNL     1     -41.697 -47.118  11.214  1.00  0.00     0.220 C 
HETATM   14  C   UNL     1     -41.576 -46.153  12.410  1.00  0.00     0.043 C 
BRANCH  13  15
HETATM   15  C   UNL     1     -42.339 -46.346  10.037  1.00  0.00     0.073 C 
BRANCH  15  16
HETATM   16  C   UNL     1     -43.440 -47.083   9.313  1.00  0.00    -0.053 A 
HETATM   17  C   UNL     1     -44.708 -47.234   9.878  1.00  0.00     0.024 A 
HETATM   18  C   UNL     1     -45.685 -47.892   9.146  1.00  0.00     0.088 A 
HETATM   19  N   UNL     1     -45.482 -48.409   7.916  1.00  0.00    -0.375 N 
HETATM   20  C   UNL     1     -44.250 -48.259   7.392  1.00  0.00     0.088 A 
ATOM     21  HN  UNL     1     -46.225 -48.890   7.409  1.00  0.00     0.164 HD
HETATM   22  C   UNL     1     -43.210 -47.612   8.043  1.00  0.00     0.024 A 
ENDBRANCH  15  16
ENDBRANCH  13  15
ENDBRANCH   1  13
TORSDOF 8
ENDMDL
MODEL 4
REMARK VINA RESULT:      -5.5      1.744      2.533
REMARK  8 active torsions:
REMARK  status: ('A' for Active; 'I' for Inactive)
REMARK    1  A    between atoms: C_2  and  C_4 
REMARK    2  A    between atoms: C_4  and  O_5 
REMARK    3  A    between atoms: C_4  and  C_6 
REMARK    4  A    between atoms: C_6  and  C_7 
REMARK    5  A    between atoms: C_7  and  N_8 
REMARK    6  A    between atoms: N_8  and  C_9 
REMARK    7  A    between atoms: C_9  and  C_11 
REMARK    8  A    between atoms: C_11  and  C_12 
ROOT
HETATM    1  N   UNL     1     -42.413 -51.058  12.100  1.00  0.00     0.088 N 
HETATM    2  H   UNL     1     -43.014 -50.445  11.548  1.00  0.00     0.316 HD
ENDROOT
BRANCH   1   3
HETATM    3  C   UNL     1     -43.091 -51.333  13.369  1.00  0.00     0.282 C 
BRANCH   3   4
HETATM    4  C   UNL     1     -43.529 -52.757  13.651  1.00  0.00     0.012 A 
HETATM    5  C   UNL     1     -42.626 -53.930  13.297  1.00  0.00     0.015 A 
HETATM    6  C   UNL     1     -42.826 -53.561  14.738  1.00  0.00     0.015 A 
BRANCH   4   7
HETATM    7  C   UNL     1     -45.043 -52.973  13.491  1.00  0.00     0.131 C 
BRANCH   7   8
HETATM    8  C   UNL     1     -45.868 -51.666  13.360  1.00  0.00     0.007 C 
HETATM    9  C   UNL     1     -46.762 -51.698  12.115  1.00  0.00     0.012 C 
HETATM   10  C   UNL     1     -46.729 -51.395  14.596  1.00  0.00     0.012 C 
ENDBRANCH   7   8
BRANCH   7  11
HETATM   11  O   UNL     1     -45.255 -53.802  12.342  1.00  0.00    -0.394 OA
HETATM   12  H   UNL     1     -45.483 -54.694  12.650  1.00  0.00     0.210 HD
ENDBRANCH   7  11
ENDBRANCH   4   7
ENDBRANCH   3   4
ENDBRANCH   1   3
BRANCH   1  13
HETATM   13  C   UNL     1     -41.127 -50.358  12.337  1.00  0.00     0.220 C 
HETATM   14  C   UNL     1     -39.975 -51.362  12.538  1.00  0.00     0.043 C 
BRANCH  13  15
HETATM   15  C   UNL     1     -40.745 -49.416  11.170  1.00  0.00     0.073 C 
BRANCH  15  16
HETATM   16  C   UNL     1     -41.588 -48.169  11.053  1.00  0.00    -0.053 A 
HETATM   17  C   UNL     1     -42.369 -47.922   9.921  1.00  0.00     0.024 A 
HETATM   18  C   UNL     1     -43.147 -46.773   9.892  1.00  0.00     0.088 A 
HETATM   19  N   UNL     1     -43.190 -45.869  10.892  1.00  0.00    -0.375 N 
HETATM   20  C   UNL     1     -42.424 -46.123  11.972  1.00  0.00     0.088 A 
ATOM     21  HN  UNL     1     -43.772 -45.034  10.833  1.00  0.00     0.164 HD
HETATM   22  C   UNL     1     -41.618 -47.244  12.097  1.00  0.00     0.024 A 
ENDBRANCH  15  16
ENDBRANCH  13  15
ENDBRANCH   1  13
TORSDOF 8
ENDMDL
MODEL 5
REMARK VINA RESULT:      -5.4      2.980      6.420
REMARK  8 active torsions:
REMARK  status: ('A' for Active; 'I' for Inactive)
REMARK    1  A    between atoms: C_2  and  C_4 
REMARK    2  A    between atoms: C_4  and  O_5 
REMARK    3  A    between atoms: C_4  and  C_6 
REMARK    4  A    between atoms: C_6  and  C_7 
REMARK    5  A    between atoms: C_7  and  N_8 
REMARK    6  A    between atoms: N_8  and  C_9 
REMARK    7  A    between atoms: C_9  and  C_11 
REMARK    8  A    between atoms: C_11  and  C_12 
ROOT
HETATM    1  N   UNL     1     -41.008 -48.845  10.300  1.00  0.00     0.088 N 
HETATM    2  H   UNL     1     -40.424 -48.017  10.173  1.00  0.00     0.316 HD
ENDROOT
BRANCH   1   3
HETATM    3  C   UNL     1     -42.318 -48.403  10.784  1.00  0.00     0.282 C 
BRANCH   3   4
HETATM    4  C   UNL     1     -42.992 -47.247  10.069  1.00  0.00     0.012 A 
HETATM    5  C   UNL     1     -43.572 -47.432   8.674  1.00  0.00     0.015 A 
HETATM    6  C   UNL     1     -44.498 -47.275   9.846  1.00  0.00     0.015 A 
BRANCH   4   7
HETATM    7  C   UNL     1     -42.356 -45.882  10.382  1.00  0.00     0.131 C 
BRANCH   7   8
HETATM    8  C   UNL     1     -41.818 -45.741  11.830  1.00  0.00     0.007 C 
HETATM    9  C   UNL     1     -40.307 -45.483  11.838  1.00  0.00     0.012 C 
HETATM   10  C   UNL     1     -42.527 -44.628  12.607  1.00  0.00     0.012 C 
ENDBRANCH   7   8
BRANCH   7  11
HETATM   11  O   UNL     1     -41.297 -45.660   9.444  1.00  0.00    -0.394 OA
HETATM   12  H   UNL     1     -41.601 -45.951   8.569  1.00  0.00     0.210 HD
ENDBRANCH   7  11
ENDBRANCH   4   7
ENDBRANCH   3   4
ENDBRANCH   1   3
BRANCH   1  13
HETATM   13  C   UNL     1     -40.353 -49.727  11.297  1.00  0.00     0.220 C 
HETATM   14  C   UNL     1     -39.087 -49.067  11.878  1.00  0.00     0.043 C 
BRANCH  13  15
HETATM   15  C   UNL     1     -41.292 -50.085  12.473  1.00  0.00     0.073 C 
BRANCH  15  16
HETATM   16  C   UNL     1     -41.607 -51.554  12.616  1.00  0.00    -0.053 A 
HETATM   17  C   UNL     1     -40.595 -52.517  12.635  1.00  0.00     0.024 A 
HETATM   18  C   UNL     1     -40.950 -53.848  12.803  1.00  0.00     0.088 A 
HETATM   19  N   UNL     1     -42.222 -54.274  12.941  1.00  0.00    -0.375 N 
HETATM   20  C   UNL     1     -43.184 -53.330  12.914  1.00  0.00     0.088 A 
ATOM     21  HN  UNL     1     -42.445 -55.262  13.060  1.00  0.00     0.164 HD
HETATM   22  C   UNL     1     -42.929 -51.976  12.756  1.00  0.00     0.024 A 
ENDBRANCH  15  16
ENDBRANCH  13  15
ENDBRANCH   1  13
TORSDOF 8
ENDMDL
MODEL 6
REMARK VINA RESULT:      -5.3      2.116      3.380
REMARK  8 active torsions:
REMARK  status: ('A' for Active; 'I' for Inactive)
REMARK    1  A    between atoms: C_2  and  C_4 
REMARK    2  A    between atoms: C_4  and  O_5 
REMARK    3  A    between atoms: C_4  and  C_6 
REMARK    4  A    between atoms: C_6  and  C_7 
REMARK    5  A    between atoms: C_7  and  N_8 
REMARK    6  A    between atoms: N_8  and  C_9 
REMARK    7  A    between atoms: C_9  and  C_11 
REMARK    8  A    between atoms: C_11  and  C_12 
ROOT
HETATM    1  N   UNL     1     -42.381 -50.984  13.481  1.00  0.00     0.088 N 
HETATM    2  H   UNL     1     -42.538 -51.343  12.539  1.00  0.00     0.316 HD
ENDROOT
BRANCH   1   3
HETATM    3  C   UNL     1     -42.406 -52.118  14.407  1.00  0.00     0.282 C 
BRANCH   3   4
HETATM    4  C   UNL     1     -42.322 -53.517  13.826  1.00  0.00     0.012 A 
HETATM    5  C   UNL     1     -40.977 -54.114  13.435  1.00  0.00     0.015 A 
HETATM    6  C   UNL     1     -41.696 -54.637  14.645  1.00  0.00     0.015 A 
BRANCH   4   7
HETATM    7  C   UNL     1     -43.527 -53.885  12.944  1.00  0.00     0.131 C 
BRANCH   7   8
HETATM    8  C   UNL     1     -44.904 -53.721  13.639  1.00  0.00     0.007 C 
HETATM    9  C   UNL     1     -45.826 -52.799  12.832  1.00  0.00     0.012 C 
HETATM   10  C   UNL     1     -45.604 -55.063  13.867  1.00  0.00     0.012 C 
ENDBRANCH   7   8
BRANCH   7  11
HETATM   11  O   UNL     1     -43.476 -53.078  11.763  1.00  0.00    -0.394 OA
HETATM   12  H   UNL     1     -42.621 -53.228  11.329  1.00  0.00     0.210 HD
ENDBRANCH   7  11
ENDBRANCH   4   7
ENDBRANCH   3   4
ENDBRANCH   1   3
BRANCH   1  13
HETATM   13  C   UNL     1     -43.469 -50.026  13.800  1.00  0.00     0.220 C 
HETATM   14  C   UNL     1     -44.117 -50.354  15.159  1.00  0.00     0.043 C 
BRANCH  13  15
HETATM   15  C   UNL     1     -42.970 -48.563  13.845  1.00  0.00     0.073 C 
BRANCH  15  16
HETATM   16  C   UNL     1     -42.308 -48.073  12.580  1.00  0.00    -0.053 A 
HETATM   17  C   UNL     1     -42.988 -48.063  11.360  1.00  0.00     0.024 A 
HETATM   18  C   UNL     1     -42.334 -47.569  10.241  1.00  0.00     0.088 A 
HETATM   19  N   UNL     1     -41.068 -47.103  10.255  1.00  0.00    -0.375 N 
HETATM   20  C   UNL     1     -40.427 -47.127  11.441  1.00  0.00     0.088 A 
ATOM     21  HN  UNL     1     -40.619 -46.750   9.411  1.00  0.00     0.164 HD
HETATM   22  C   UNL     1     -40.998 -47.596  12.614  1.00  0.00     0.024 A 
ENDBRANCH  15  16
ENDBRANCH  13  15
ENDBRANCH   1  13
TORSDOF 8
ENDMDL
MODEL 7
REMARK VINA RESULT:      -5.3      3.143      6.713
REMARK  8 active torsions:
REMARK  status: ('A' for Active; 'I' for Inactive)
REMARK    1  A    between atoms: C_2  and  C_4 
REMARK    2  A    between atoms: C_4  and  O_5 
REMARK    3  A    between atoms: C_4  and  C_6 
REMARK    4  A    between atoms: C_6  and  C_7 
REMARK    5  A    between atoms: C_7  and  N_8 
REMARK    6  A    between atoms: N_8  and  C_9 
REMARK    7  A    between atoms: C_9  and  C_11 
REMARK    8  A    between atoms: C_11  and  C_12 
ROOT
HETATM    1  N   UNL     1     -41.906 -50.854  11.745  1.00  0.00     0.088 N 
HETATM    2  H   UNL     1     -41.217 -50.985  11.004  1.00  0.00     0.316 HD
ENDROOT
BRANCH   1   3
HETATM    3  C   UNL     1     -41.394 -49.833  12.662  1.00  0.00     0.282 C 
BRANCH   3   4
HETATM    4  C   UNL     1     -40.514 -48.737  12.092  1.00  0.00     0.012 A 
HETATM    5  C   UNL     1     -41.081 -47.719  11.112  1.00  0.00     0.015 A 
HETATM    6  C   UNL     1     -40.744 -47.291  12.511  1.00  0.00     0.015 A 
BRANCH   4   7
HETATM    7  C   UNL     1     -39.057 -49.178  11.871  1.00  0.00     0.131 C 
BRANCH   7   8
HETATM    8  C   UNL     1     -38.393 -49.843  13.104  1.00  0.00     0.007 C 
HETATM    9  C   UNL     1     -37.409 -50.939  12.680  1.00  0.00     0.012 C 
HETATM   10  C   UNL     1     -37.669 -48.828  13.993  1.00  0.00     0.012 C 
ENDBRANCH   7   8
BRANCH   7  11
HETATM   11  O   UNL     1     -39.030 -50.076  10.756  1.00  0.00    -0.394 OA
HETATM   12  H   UNL     1     -39.726 -50.740  10.884  1.00  0.00     0.210 HD
ENDBRANCH   7  11
ENDBRANCH   4   7
ENDBRANCH   3   4
ENDBRANCH   1   3
BRANCH   1  13
HETATM   13  C   UNL     1     -42.083 -52.147  12.450  1.00  0.00     0.220 C 
HETATM   14  C   UNL     1     -40.723 -52.792  12.780  1.00  0.00     0.043 C 
BRANCH  13  15
HETATM   15  C   UNL     1     -42.876 -51.995  13.770  1.00  0.00     0.073 C 
BRANCH  15  16
HETATM   16  C   UNL     1     -44.121 -52.843  13.869  1.00  0.00    -0.053 A 
HETATM   17  C   UNL     1     -44.103 -54.202  13.547  1.00  0.00     0.024 A 
HETATM   18  C   UNL     1     -45.274 -54.933  13.693  1.00  0.00     0.088 A 
HETATM   19  N   UNL     1     -46.440 -54.406  14.121  1.00  0.00    -0.375 N 
HETATM   20  C   UNL     1     -46.437 -53.092  14.421  1.00  0.00     0.088 A 
ATOM     21  HN  UNL     1     -47.281 -54.975  14.213  1.00  0.00     0.164 HD
HETATM   22  C   UNL     1     -45.318 -52.280  14.313  1.00  0.00     0.024 A 
ENDBRANCH  15  16
ENDBRANCH  13  15
ENDBRANCH   1  13
TORSDOF 8
ENDMDL
MODEL 8
REMARK VINA RESULT:      -5.3      2.941      4.292
REMARK  8 active torsions:
REMARK  status: ('A' for Active; 'I' for Inactive)
REMARK    1  A    between atoms: C_2  and  C_4 
REMARK    2  A    between atoms: C_4  and  O_5 
REMARK    3  A    between atoms: C_4  and  C_6 
REMARK    4  A    between atoms: C_6  and  C_7 
REMARK    5  A    between atoms: C_7  and  N_8 
REMARK    6  A    between atoms: N_8  and  C_9 
REMARK    7  A    between atoms: C_9  and  C_11 
REMARK    8  A    between atoms: C_11  and  C_12 
ROOT
HETATM    1  N   UNL     1     -41.888 -52.689  14.697  1.00  0.00     0.088 N 
HETATM    2  H   UNL     1     -41.825 -53.629  15.089  1.00  0.00     0.316 HD
ENDROOT
BRANCH   1   3
HETATM    3  C   UNL     1     -43.299 -52.406  14.425  1.00  0.00     0.282 C 
BRANCH   3   4
HETATM    4  C   UNL     1     -44.301 -53.532  14.603  1.00  0.00     0.012 A 
HETATM    5  C   UNL     1     -43.828 -54.962  14.818  1.00  0.00     0.015 A 
HETATM    6  C   UNL     1     -44.442 -54.207  15.960  1.00  0.00     0.015 A 
BRANCH   4   7
HETATM    7  C   UNL     1     -45.585 -53.341  13.779  1.00  0.00     0.131 C 
BRANCH   7   8
HETATM    8  C   UNL     1     -45.995 -51.861  13.561  1.00  0.00     0.007 C 
HETATM    9  C   UNL     1     -46.739 -51.682  12.232  1.00  0.00     0.012 C 
HETATM   10  C   UNL     1     -46.861 -51.323  14.703  1.00  0.00     0.012 C 
ENDBRANCH   7   8
BRANCH   7  11
HETATM   11  O   UNL     1     -45.402 -53.989  12.515  1.00  0.00    -0.394 OA
HETATM   12  H   UNL     1     -44.469 -54.246  12.437  1.00  0.00     0.210 HD
ENDBRANCH   7  11
ENDBRANCH   4   7
ENDBRANCH   3   4
ENDBRANCH   1   3
BRANCH   1  13
HETATM   13  C   UNL     1     -41.097 -52.654  13.442  1.00  0.00     0.220 C 
HETATM   14  C   UNL     1     -40.898 -54.072  12.871  1.00  0.00     0.043 C 
BRANCH  13  15
HETATM   15  C   UNL     1     -41.764 -51.786  12.349  1.00  0.00     0.073 C 
BRANCH  15  16
HETATM   16  C   UNL     1     -41.008 -50.533  11.979  1.00  0.00    -0.053 A 
HETATM   17  C   UNL     1     -41.674 -49.373  11.575  1.00  0.00     0.024 A 
HETATM   18  C   UNL     1     -40.921 -48.245  11.282  1.00  0.00     0.088 A 
HETATM   19  N   UNL     1     -39.575 -48.200  11.353  1.00  0.00    -0.375 N 
HETATM   20  C   UNL     1     -38.951 -49.331  11.739  1.00  0.00     0.088 A 
ATOM     21  HN  UNL     1     -39.056 -47.353  11.127  1.00  0.00     0.164 HD
HETATM   22  C   UNL     1     -39.615 -50.506  12.059  1.00  0.00     0.024 A 
ENDBRANCH  15  16
ENDBRANCH  13  15
ENDBRANCH   1  13
TORSDOF 8
ENDMDL
MODEL 9
REMARK VINA RESULT:      -5.2      2.518      3.249
REMARK  8 active torsions:
REMARK  status: ('A' for Active; 'I' for Inactive)
REMARK    1  A    between atoms: C_2  and  C_4 
REMARK    2  A    between atoms: C_4  and  O_5 
REMARK    3  A    between atoms: C_4  and  C_6 
REMARK    4  A    between atoms: C_6  and  C_7 
REMARK    5  A    between atoms: C_7  and  N_8 
REMARK    6  A    between atoms: N_8  and  C_9 
REMARK    7  A    between atoms: C_9  and  C_11 
REMARK    8  A    between atoms: C_11  and  C_12 
ROOT
HETATM    1  N   UNL     1     -43.716 -50.759  12.881  1.00  0.00     0.088 N 
HETATM    2  H   UNL     1     -44.614 -50.700  13.362  1.00  0.00     0.316 HD
ENDROOT
BRANCH   1   3
HETATM    3  C   UNL     1     -42.822 -51.589  13.691  1.00  0.00     0.282 C 
BRANCH   3   4
HETATM    4  C   UNL     1     -42.252 -52.848  13.066  1.00  0.00     0.012 A 
HETATM    5  C   UNL     1     -41.127 -52.764  12.044  1.00  0.00     0.015 A 
HETATM    6  C   UNL     1     -40.839 -53.292  13.420  1.00  0.00     0.015 A 
BRANCH   4   7
HETATM    7  C   UNL     1     -43.300 -53.953  12.855  1.00  0.00     0.131 C 
BRANCH   7   8
HETATM    8  C   UNL     1     -44.096 -54.336  14.130  1.00  0.00     0.007 C 
HETATM    9  C   UNL     1     -45.390 -55.076  13.775  1.00  0.00     0.012 C 
HETATM   10  C   UNL     1     -43.271 -55.192  15.095  1.00  0.00     0.012 C 
ENDBRANCH   7   8
BRANCH   7  11
HETATM   11  O   UNL     1     -44.201 -53.521  11.828  1.00  0.00    -0.394 OA
HETATM   12  H   UNL     1     -45.040 -53.995  11.942  1.00  0.00     0.210 HD
ENDBRANCH   7  11
ENDBRANCH   4   7
ENDBRANCH   3   4
ENDBRANCH   1   3
BRANCH   1  13
HETATM   13  C   UNL     1     -43.172 -49.386  12.743  1.00  0.00     0.220 C 
HETATM   14  C   UNL     1     -42.828 -48.783  14.119  1.00  0.00     0.043 C 
BRANCH  13  15
HETATM   15  C   UNL     1     -41.897 -49.343  11.867  1.00  0.00     0.073 C 
BRANCH  15  16
HETATM   16  C   UNL     1     -41.579 -47.994  11.268  1.00  0.00    -0.053 A 
HETATM   17  C   UNL     1     -40.322 -47.405  11.428  1.00  0.00     0.024 A 
HETATM   18  C   UNL     1     -40.084 -46.179  10.823  1.00  0.00     0.088 A 
HETATM   19  N   UNL     1     -40.999 -45.511  10.092  1.00  0.00    -0.375 N 
HETATM   20  C   UNL     1     -42.207 -46.094   9.954  1.00  0.00     0.088 A 
ATOM     21  HN  UNL     1     -40.788 -44.610   9.664  1.00  0.00     0.164 HD
HETATM   22  C   UNL     1     -42.539 -47.318  10.516  1.00  0.00     0.024 A 
ENDBRANCH  15  16
ENDBRANCH  13  15
ENDBRANCH   1  13
TORSDOF 8
ENDMDL
