MODEL 1
REMARK VINA RESULT:      -6.0      0.000      0.000
REMARK  2 active torsions:
REMARK  status: ('A' for Active; 'I' for Inactive)
REMARK    1  A    between atoms: C_2  and  N_8 
REMARK       I    between atoms: N_8  and  C_9 
REMARK       I    between atoms: C_9  and  N_11 
REMARK    2  A    between atoms: N_11  and  C_12 
ROOT
HETATM    1  N   UNL     1     -41.649 -48.524   9.975  1.00  0.00    -0.334 N 
HETATM    2  C   UNL     1     -40.955 -48.998  11.079  1.00  0.00     0.322 C 
HETATM    3  O   UNL     1     -41.180 -48.590  12.211  1.00  0.00    -0.247 OA
HETATM    4  N   UNL     1     -40.052 -49.972  10.740  1.00  0.00    -0.289 N 
HETATM    5  H   UNL     1     -41.134 -48.548   9.106  1.00  0.00     0.165 HD
HETATM    6  H   UNL     1     -40.227 -50.549   9.937  1.00  0.00     0.172 HD
ENDROOT
BRANCH   1   7
HETATM    7  C   UNL     1     -42.683 -47.466  10.110  1.00  0.00     0.035 C 
HETATM    8  C   UNL     1     -43.632 -47.810  11.281  1.00  0.00     0.039 C 
HETATM    9  C   UNL     1     -41.984 -46.120  10.408  1.00  0.00     0.057 C 
HETATM   10  C   UNL     1     -42.938 -44.935  10.283  1.00  0.00     0.170 C 
HETATM   11  O   UNL     1     -43.546 -44.907   8.996  1.00  0.00    -0.391 OA
HETATM   12  C   UNL     1     -44.325 -46.073   8.740  1.00  0.00     0.170 C 
HETATM   13  C   UNL     1     -43.457 -47.319   8.778  1.00  0.00     0.057 C 
ENDBRANCH   1   7
BRANCH   4  14
HETATM   14  C   UNL     1     -39.203 -50.456  11.700  1.00  0.00     0.152 A 
HETATM   15  N   UNL     1     -39.501 -51.139  12.775  1.00  0.00    -0.346 N 
HETATM   16  C   UNL     1     -38.346 -51.487  13.437  1.00  0.00     0.097 A 
ATOM     17  HN  UNL     1     -40.446 -51.377  13.077  1.00  0.00     0.167 HD
HETATM   18  C   UNL     1     -37.178 -51.022  12.869  1.00  0.00     0.070 A 
HETATM   19  S   UNL     1     -37.549 -50.105  11.462  1.00  0.00    -0.064 SA
ENDBRANCH   4  14
TORSDOF 2
ENDMDL
MODEL 2
REMARK VINA RESULT:      -5.7      2.665      6.531
REMARK  2 active torsions:
REMARK  status: ('A' for Active; 'I' for Inactive)
REMARK    1  A    between atoms: C_2  and  N_8 
REMARK       I    between atoms: N_8  and  C_9 
REMARK       I    between atoms: C_9  and  N_11 
REMARK    2  A    between atoms: N_11  and  C_12 
ROOT
HETATM    1  N   UNL     1     -40.390 -49.181  10.616  1.00  0.00    -0.334 N 
HETATM    2  C   UNL     1     -41.606 -48.519  10.699  1.00  0.00     0.322 C 
HETATM    3  O   UNL     1     -42.138 -48.269  11.773  1.00  0.00    -0.247 OA
HETATM    4  N   UNL     1     -42.085 -48.165   9.464  1.00  0.00    -0.289 N 
HETATM    5  H   UNL     1     -40.258 -49.725   9.775  1.00  0.00     0.165 HD
HETATM    6  H   UNL     1     -41.438 -47.993   8.714  1.00  0.00     0.172 HD
ENDROOT
BRANCH   1   7
HETATM    7  C   UNL     1     -39.684 -49.653  11.834  1.00  0.00     0.035 C 
HETATM    8  C   UNL     1     -39.742 -48.561  12.927  1.00  0.00     0.039 C 
HETATM    9  C   UNL     1     -40.389 -50.926  12.358  1.00  0.00     0.057 C 
HETATM   10  C   UNL     1     -39.571 -51.636  13.434  1.00  0.00     0.170 C 
HETATM   11  O   UNL     1     -38.268 -51.949  12.955  1.00  0.00    -0.391 OA
HETATM   12  C   UNL     1     -37.528 -50.784  12.598  1.00  0.00     0.170 C 
HETATM   13  C   UNL     1     -38.224 -50.026  11.482  1.00  0.00     0.057 C 
ENDBRANCH   1   7
BRANCH   4  14
HETATM   14  C   UNL     1     -43.335 -47.610   9.367  1.00  0.00     0.152 A 
HETATM   15  N   UNL     1     -44.473 -48.105   9.779  1.00  0.00    -0.346 N 
HETATM   16  C   UNL     1     -45.482 -47.197   9.546  1.00  0.00     0.097 A 
ATOM     17  HN  UNL     1     -44.596 -49.022  10.207  1.00  0.00     0.167 HD
HETATM   18  C   UNL     1     -45.094 -46.033   8.917  1.00  0.00     0.070 A 
HETATM   19  S   UNL     1     -43.405 -46.089   8.596  1.00  0.00    -0.064 SA
ENDBRANCH   4  14
TORSDOF 2
ENDMDL
MODEL 3
REMARK VINA RESULT:      -5.6      2.884      6.713
REMARK  2 active torsions:
REMARK  status: ('A' for Active; 'I' for Inactive)
REMARK    1  A    between atoms: C_2  and  N_8 
REMARK       I    between atoms: N_8  and  C_9 
REMARK       I    between atoms: C_9  and  N_11 
REMARK    2  A    between atoms: N_11  and  C_12 
ROOT
HETATM    1  N   UNL     1     -40.969 -51.041  11.532  1.00  0.00    -0.334 N 
HETATM    2  C   UNL     1     -41.097 -49.663  11.636  1.00  0.00     0.322 C 
HETATM    3  O   UNL     1     -40.984 -49.079  12.707  1.00  0.00    -0.247 OA
HETATM    4  N   UNL     1     -41.316 -49.073  10.419  1.00  0.00    -0.289 N 
HETATM    5  H   UNL     1     -41.497 -51.461  10.781  1.00  0.00     0.165 HD
HETATM    6  H   UNL     1     -40.961 -49.511   9.587  1.00  0.00     0.172 HD
ENDROOT
BRANCH   1   7
HETATM    7  C   UNL     1     -40.721 -51.884  12.729  1.00  0.00     0.035 C 
HETATM    8  C   UNL     1     -41.774 -51.571  13.817  1.00  0.00     0.039 C 
HETATM    9  C   UNL     1     -40.844 -53.372  12.324  1.00  0.00     0.057 C 
HETATM   10  C   UNL     1     -40.331 -54.310  13.415  1.00  0.00     0.170 C 
HETATM   11  O   UNL     1     -38.987 -53.996  13.761  1.00  0.00    -0.391 OA
HETATM   12  C   UNL     1     -38.855 -52.676  14.280  1.00  0.00     0.170 C 
HETATM   13  C   UNL     1     -39.283 -51.647  13.247  1.00  0.00     0.057 C 
ENDBRANCH   1   7
BRANCH   4  14
HETATM   14  C   UNL     1     -41.584 -47.730  10.367  1.00  0.00     0.152 A 
HETATM   15  N   UNL     1     -40.743 -46.733  10.462  1.00  0.00    -0.346 N 
HETATM   16  C   UNL     1     -41.415 -45.543  10.294  1.00  0.00     0.097 A 
ATOM     17  HN  UNL     1     -39.741 -46.822  10.634  1.00  0.00     0.167 HD
HETATM   18  C   UNL     1     -42.778 -45.657  10.113  1.00  0.00     0.070 A 
HETATM   19  S   UNL     1     -43.229 -47.316  10.171  1.00  0.00    -0.064 SA
ENDBRANCH   4  14
TORSDOF 2
ENDMDL
MODEL 4
REMARK VINA RESULT:      -5.4      4.832      6.344
REMARK  2 active torsions:
REMARK  status: ('A' for Active; 'I' for Inactive)
REMARK    1  A    between atoms: C_2  and  N_8 
REMARK       I    between atoms: N_8  and  C_9 
REMARK       I    between atoms: C_9  and  N_11 
REMARK    2  A    between atoms: N_11  and  C_12 
ROOT
HETATM    1  N   UNL     1     -43.978 -51.583  12.554  1.00  0.00    -0.334 N 
HETATM    2  C   UNL     1     -42.598 -51.553  12.695  1.00  0.00     0.322 C 
HETATM    3  O   UNL     1     -42.007 -52.308  13.457  1.00  0.00    -0.247 OA
HETATM    4  N   UNL     1     -42.015 -50.629  11.867  1.00  0.00    -0.289 N 
HETATM    5  H   UNL     1     -44.398 -50.701  12.296  1.00  0.00     0.165 HD
HETATM    6  H   UNL     1     -42.464 -50.391  11.000  1.00  0.00     0.172 HD
ENDROOT
BRANCH   1   7
HETATM    7  C   UNL     1     -44.815 -52.515  13.351  1.00  0.00     0.035 C 
HETATM    8  C   UNL     1     -46.310 -52.175  13.153  1.00  0.00     0.039 C 
HETATM    9  C   UNL     1     -44.559 -53.959  12.860  1.00  0.00     0.057 C 
HETATM   10  C   UNL     1     -45.157 -55.002  13.802  1.00  0.00     0.170 C 
HETATM   11  O   UNL     1     -44.664 -54.830  15.126  1.00  0.00    -0.391 OA
HETATM   12  C   UNL     1     -45.009 -53.559  15.672  1.00  0.00     0.170 C 
HETATM   13  C   UNL     1     -44.409 -52.437  14.842  1.00  0.00     0.057 C 
ENDBRANCH   1   7
BRANCH   4  14
HETATM   14  C   UNL     1     -40.669 -50.394  11.974  1.00  0.00     0.152 A 
HETATM   15  N   UNL     1     -39.700 -51.267  12.069  1.00  0.00    -0.346 N 
HETATM   16  C   UNL     1     -38.489 -50.612  12.091  1.00  0.00     0.097 A 
ATOM     17  HN  UNL     1     -39.822 -52.278  12.119  1.00  0.00     0.167 HD
HETATM   18  C   UNL     1     -38.563 -49.235  12.052  1.00  0.00     0.070 A 
HETATM   19  S   UNL     1     -40.212 -48.749  12.001  1.00  0.00    -0.064 SA
ENDBRANCH   4  14
TORSDOF 2
ENDMDL
MODEL 5
REMARK VINA RESULT:      -5.2      2.173      2.396
REMARK  2 active torsions:
REMARK  status: ('A' for Active; 'I' for Inactive)
REMARK    1  A    between atoms: C_2  and  N_8 
REMARK       I    between atoms: N_8  and  C_9 
REMARK       I    between atoms: C_9  and  N_11 
REMARK    2  A    between atoms: N_11  and  C_12 
ROOT
HETATM    1  N   UNL     1     -40.604 -48.876  11.199  1.00  0.00    -0.334 N 
HETATM    2  C   UNL     1     -41.067 -50.047  11.782  1.00  0.00     0.322 C 
HETATM    3  O   UNL     1     -42.198 -50.140  12.243  1.00  0.00    -0.247 OA
HETATM    4  N   UNL     1     -40.135 -51.051  11.732  1.00  0.00    -0.289 N 
HETATM    5  H   UNL     1     -39.606 -48.733  11.267  1.00  0.00     0.165 HD
HETATM    6  H   UNL     1     -39.459 -51.060  10.989  1.00  0.00     0.172 HD
ENDROOT
BRANCH   1   7
HETATM    7  C   UNL     1     -41.452 -47.658  11.136  1.00  0.00     0.035 C 
HETATM    8  C   UNL     1     -42.153 -47.439  12.496  1.00  0.00     0.039 C 
HETATM    9  C   UNL     1     -40.550 -46.439  10.833  1.00  0.00     0.057 C 
HETATM   10  C   UNL     1     -41.363 -45.197  10.472  1.00  0.00     0.170 C 
HETATM   11  O   UNL     1     -42.231 -45.461   9.376  1.00  0.00    -0.391 OA
HETATM   12  C   UNL     1     -43.179 -46.484   9.669  1.00  0.00     0.170 C 
HETATM   13  C   UNL     1     -42.476 -47.793   9.985  1.00  0.00     0.057 C 
ENDBRANCH   1   7
BRANCH   4  14
HETATM   14  C   UNL     1     -40.395 -52.234  12.373  1.00  0.00     0.152 A 
HETATM   15  N   UNL     1     -41.204 -53.193  12.005  1.00  0.00    -0.346 N 
HETATM   16  C   UNL     1     -41.122 -54.236  12.899  1.00  0.00     0.097 A 
ATOM     17  HN  UNL     1     -41.805 -53.171  11.181  1.00  0.00     0.167 HD
HETATM   18  C   UNL     1     -40.272 -54.032  13.966  1.00  0.00     0.070 A 
HETATM   19  S   UNL     1     -39.564 -52.470  13.846  1.00  0.00    -0.064 SA
ENDBRANCH   4  14
TORSDOF 2
ENDMDL
MODEL 6
REMARK VINA RESULT:      -5.2      2.195      3.045
REMARK  2 active torsions:
REMARK  status: ('A' for Active; 'I' for Inactive)
REMARK    1  A    between atoms: C_2  and  N_8 
REMARK       I    between atoms: N_8  and  C_9 
REMARK       I    between atoms: C_9  and  N_11 
REMARK    2  A    between atoms: N_11  and  C_12 
ROOT
HETATM    1  N   UNL     1     -39.826 -47.173  10.740  1.00  0.00    -0.334 N 
HETATM    2  C   UNL     1     -40.412 -48.266  11.364  1.00  0.00     0.322 C 
HETATM    3  O   UNL     1     -41.398 -48.153  12.081  1.00  0.00    -0.247 OA
HETATM    4  N   UNL     1     -39.782 -49.441  11.044  1.00  0.00    -0.289 N 
HETATM    5  H   UNL     1     -38.835 -47.262  10.571  1.00  0.00     0.165 HD
HETATM    6  H   UNL     1     -39.314 -49.524  10.159  1.00  0.00     0.172 HD
ENDROOT
BRANCH   1   7
HETATM    7  C   UNL     1     -40.350 -45.799  10.940  1.00  0.00     0.035 C 
HETATM    8  C   UNL     1     -39.542 -44.801  10.080  1.00  0.00     0.039 C 
HETATM    9  C   UNL     1     -41.831 -45.760  10.496  1.00  0.00     0.057 C 
HETATM   10  C   UNL     1     -42.529 -44.472  10.926  1.00  0.00     0.170 C 
HETATM   11  O   UNL     1     -42.425 -44.285  12.334  1.00  0.00    -0.391 OA
HETATM   12  C   UNL     1     -41.072 -44.167  12.766  1.00  0.00     0.170 C 
HETATM   13  C   UNL     1     -40.292 -45.430  12.442  1.00  0.00     0.057 C 
ENDBRANCH   1   7
BRANCH   4  14
HETATM   14  C   UNL     1     -40.166 -50.596  11.674  1.00  0.00     0.152 A 
HETATM   15  N   UNL     1     -41.132 -51.414  11.344  1.00  0.00    -0.346 N 
HETATM   16  C   UNL     1     -41.139 -52.489  12.205  1.00  0.00     0.097 A 
ATOM     17  HN  UNL     1     -41.780 -51.277  10.569  1.00  0.00     0.167 HD
HETATM   18  C   UNL     1     -40.194 -52.447  13.208  1.00  0.00     0.070 A 
HETATM   19  S   UNL     1     -39.275 -51.000  13.072  1.00  0.00    -0.064 SA
ENDBRANCH   4  14
TORSDOF 2
ENDMDL
MODEL 7
REMARK VINA RESULT:      -5.1      3.716      5.429
REMARK  2 active torsions:
REMARK  status: ('A' for Active; 'I' for Inactive)
REMARK    1  A    between atoms: C_2  and  N_8 
REMARK       I    between atoms: N_8  and  C_9 
REMARK       I    between atoms: C_9  and  N_11 
REMARK    2  A    between atoms: N_11  and  C_12 
ROOT
HETATM    1  N   UNL     1     -39.727 -51.202  11.898  1.00  0.00    -0.334 N 
HETATM    2  C   UNL     1     -41.019 -51.485  12.318  1.00  0.00     0.322 C 
HETATM    3  O   UNL     1     -41.746 -50.630  12.806  1.00  0.00    -0.247 OA
HETATM    4  N   UNL     1     -41.363 -52.791  12.080  1.00  0.00    -0.289 N 
HETATM    5  H   UNL     1     -39.085 -51.979  11.945  1.00  0.00     0.165 HD
HETATM    6  H   UNL     1     -40.934 -53.283  11.316  1.00  0.00     0.172 HD
ENDROOT
BRANCH   1   7
HETATM    7  C   UNL     1     -39.147 -49.843  12.053  1.00  0.00     0.035 C 
HETATM    8  C   UNL     1     -37.778 -49.776  11.340  1.00  0.00     0.039 C 
HETATM    9  C   UNL     1     -40.104 -48.816  11.404  1.00  0.00     0.057 C 
HETATM   10  C   UNL     1     -39.732 -47.378  11.759  1.00  0.00     0.170 C 
HETATM   11  O   UNL     1     -39.693 -47.200  13.171  1.00  0.00    -0.391 OA
HETATM   12  C   UNL     1     -38.715 -48.028  13.794  1.00  0.00     0.170 C 
HETATM   13  C   UNL     1     -39.023 -49.496  13.556  1.00  0.00     0.057 C 
ENDBRANCH   1   7
BRANCH   4  14
HETATM   14  C   UNL     1     -42.563 -53.261  12.547  1.00  0.00     0.152 A 
HETATM   15  N   UNL     1     -43.756 -53.071  12.045  1.00  0.00    -0.346 N 
HETATM   16  C   UNL     1     -44.683 -53.771  12.783  1.00  0.00     0.097 A 
ATOM     17  HN  UNL     1     -43.967 -52.493  11.232  1.00  0.00     0.167 HD
HETATM   18  C   UNL     1     -44.178 -54.454  13.869  1.00  0.00     0.070 A 
HETATM   19  S   UNL     1     -42.481 -54.196  13.972  1.00  0.00    -0.064 SA
ENDBRANCH   4  14
TORSDOF 2
ENDMDL
MODEL 8
REMARK VINA RESULT:      -4.9      4.832      6.623
REMARK  2 active torsions:
REMARK  status: ('A' for Active; 'I' for Inactive)
REMARK    1  A    between atoms: C_2  and  N_8 
REMARK       I    between atoms: N_8  and  C_9 
REMARK       I    between atoms: C_9  and  N_11 
REMARK    2  A    between atoms: N_11  and  C_12 
ROOT
HETATM    1  N   UNL     1     -42.115 -51.093  12.099  1.00  0.00    -0.334 N 
HETATM    2  C   UNL     1     -42.840 -51.918  12.947  1.00  0.00     0.322 C 
HETATM    3  O   UNL     1     -42.431 -52.228  14.058  1.00  0.00    -0.247 OA
HETATM    4  N   UNL     1     -44.044 -52.285  12.402  1.00  0.00    -0.289 N 
HETATM    5  H   UNL     1     -42.271 -51.252  11.114  1.00  0.00     0.165 HD
HETATM    6  H   UNL     1     -44.494 -51.675  11.744  1.00  0.00     0.172 HD
ENDROOT
BRANCH   1   7
HETATM    7  C   UNL     1     -40.781 -50.570  12.488  1.00  0.00     0.035 C 
HETATM    8  C   UNL     1     -40.941 -49.502  13.594  1.00  0.00     0.039 C 
HETATM    9  C   UNL     1     -39.927 -51.737  13.036  1.00  0.00     0.057 C 
HETATM   10  C   UNL     1     -38.459 -51.352  13.196  1.00  0.00     0.170 C 
HETATM   11  O   UNL     1     -37.923 -50.877  11.965  1.00  0.00    -0.391 OA
HETATM   12  C   UNL     1     -38.591 -49.708  11.499  1.00  0.00     0.170 C 
HETATM   13  C   UNL     1     -40.061 -49.995  11.245  1.00  0.00     0.057 C 
ENDBRANCH   1   7
BRANCH   4  14
HETATM   14  C   UNL     1     -44.824 -53.197  13.065  1.00  0.00     0.152 A 
HETATM   15  N   UNL     1     -44.654 -54.490  13.161  1.00  0.00    -0.346 N 
HETATM   16  C   UNL     1     -45.629 -55.025  13.971  1.00  0.00     0.097 A 
ATOM     17  HN  UNL     1     -43.911 -55.021  12.706  1.00  0.00     0.167 HD
HETATM   18  C   UNL     1     -46.559 -54.125  14.448  1.00  0.00     0.070 A 
HETATM   19  S   UNL     1     -46.200 -52.555  13.845  1.00  0.00    -0.064 SA
ENDBRANCH   4  14
TORSDOF 2
ENDMDL
MODEL 9
REMARK VINA RESULT:      -4.7      4.145      4.612
REMARK  2 active torsions:
REMARK  status: ('A' for Active; 'I' for Inactive)
REMARK    1  A    between atoms: C_2  and  N_8 
REMARK       I    between atoms: N_8  and  C_9 
REMARK       I    between atoms: C_9  and  N_11 
REMARK    2  A    between atoms: N_11  and  C_12 
ROOT
HETATM    1  N   UNL     1     -41.954 -50.293  11.765  1.00  0.00    -0.334 N 
HETATM    2  C   UNL     1     -42.880 -51.023  12.496  1.00  0.00     0.322 C 
HETATM    3  O   UNL     1     -43.626 -50.496  13.312  1.00  0.00    -0.247 OA
HETATM    4  N   UNL     1     -42.869 -52.352  12.160  1.00  0.00    -0.289 N 
HETATM    5  H   UNL     1     -41.129 -50.806  11.491  1.00  0.00     0.165 HD
HETATM    6  H   UNL     1     -42.592 -52.624  11.233  1.00  0.00     0.172 HD
ENDROOT
BRANCH   1   7
HETATM    7  C   UNL     1     -41.799 -48.829  11.962  1.00  0.00     0.035 C 
HETATM    8  C   UNL     1     -41.635 -48.519  13.467  1.00  0.00     0.039 C 
HETATM    9  C   UNL     1     -40.532 -48.357  11.210  1.00  0.00     0.057 C 
HETATM   10  C   UNL     1     -40.449 -46.835  11.122  1.00  0.00     0.170 C 
HETATM   11  O   UNL     1     -41.618 -46.298  10.514  1.00  0.00    -0.391 OA
HETATM   12  C   UNL     1     -42.798 -46.588  11.260  1.00  0.00     0.170 C 
HETATM   13  C   UNL     1     -43.016 -48.088  11.359  1.00  0.00     0.057 C 
ENDBRANCH   1   7
BRANCH   4  14
HETATM   14  C   UNL     1     -43.641 -53.228  12.878  1.00  0.00     0.152 A 
HETATM   15  N   UNL     1     -44.935 -53.404  12.816  1.00  0.00    -0.346 N 
HETATM   16  C   UNL     1     -45.303 -54.429  13.658  1.00  0.00     0.097 A 
ATOM     17  HN  UNL     1     -45.575 -52.865  12.233  1.00  0.00     0.167 HD
HETATM   18  C   UNL     1     -44.274 -54.992  14.384  1.00  0.00     0.070 A 
HETATM   19  S   UNL     1     -42.798 -54.197  14.003  1.00  0.00    -0.064 SA
ENDBRANCH   4  14
TORSDOF 2
ENDMDL
