MODEL 1
REMARK VINA RESULT:      -5.4      0.000      0.000
REMARK  5 active torsions:
REMARK  status: ('A' for Active; 'I' for Inactive)
REMARK    1  A    between atoms: C_2  and  C_3 
REMARK       I    between atoms: C_2  and  N_9 
REMARK    2  A    between atoms: C_3  and  C_4 
REMARK    3  A    between atoms: N_9  and  C_10 
REMARK    4  A    between atoms: C_10  and  C_11 
REMARK    5  A    between atoms: C_11  and  N_12 
ROOT
HETATM    1  O   UNL     1     -45.158 -54.369  12.889  1.00  0.00    -0.274 OA
HETATM    2  C   UNL     1     -45.450 -54.113  14.053  1.00  0.00     0.218 C 
HETATM    3  N   UNL     1     -44.594 -54.361  15.105  1.00  0.00    -0.359 N 
HETATM    4  H   UNL     1     -44.955 -54.313  16.050  1.00  0.00     0.162 HD
ENDROOT
BRANCH   3   5
HETATM    5  C   UNL     1     -43.299 -54.984  14.894  1.00  0.00     0.143 C 
BRANCH   5   6
HETATM    6  C   UNL     1     -42.135 -53.998  14.998  1.00  0.00     0.148 C 
BRANCH   6   7
HETATM    7  N   UNL     1     -41.759 -53.475  13.701  1.00  0.00    -0.350 N 
HETATM    8  C   UNL     1     -42.052 -52.236  13.212  1.00  0.00     0.108 A 
HETATM    9  C   UNL     1     -41.478 -52.208  11.962  1.00  0.00     0.106 A 
HETATM   10  N   UNL     1     -40.850 -53.395  11.687  1.00  0.00    -0.361 N 
HETATM   11  C   UNL     1     -41.045 -54.145  12.750  1.00  0.00     0.182 A 
ATOM     12  HN  UNL     1     -40.341 -53.645  10.838  1.00  0.00     0.166 HD
ENDBRANCH   6   7
ENDBRANCH   5   6
ENDBRANCH   3   5
BRANCH   2  13
HETATM   13  C   UNL     1     -46.783 -53.511  14.457  1.00  0.00     0.111 C 
BRANCH  13  14
HETATM   14  C   UNL     1     -46.796 -51.982  14.551  1.00  0.00     0.017 C 
HETATM   15  C   UNL     1     -45.498 -51.290  14.103  1.00  0.00     0.012 C 
HETATM   16  C   UNL     1     -44.809 -50.788  15.374  1.00  0.00     0.027 C 
HETATM   17  C   UNL     1     -45.906 -50.807  16.387  1.00  0.00    -0.030 C 
HETATM   18  C   UNL     1     -46.987 -51.457  15.944  1.00  0.00    -0.026 C 
ENDBRANCH  13  14
ENDBRANCH   2  13
TORSDOF 5
ENDMDL
MODEL 2
REMARK VINA RESULT:      -5.3      2.504      3.438
REMARK  5 active torsions:
REMARK  status: ('A' for Active; 'I' for Inactive)
REMARK    1  A    between atoms: C_2  and  C_3 
REMARK       I    between atoms: C_2  and  N_9 
REMARK    2  A    between atoms: C_3  and  C_4 
REMARK    3  A    between atoms: N_9  and  C_10 
REMARK    4  A    between atoms: C_10  and  C_11 
REMARK    5  A    between atoms: C_11  and  N_12 
ROOT
HETATM    1  O   UNL     1     -42.746 -54.201  13.348  1.00  0.00    -0.274 OA
HETATM    2  C   UNL     1     -43.272 -53.331  12.661  1.00  0.00     0.218 C 
HETATM    3  N   UNL     1     -42.545 -52.487  11.848  1.00  0.00    -0.359 N 
HETATM    4  H   UNL     1     -43.002 -51.671  11.458  1.00  0.00     0.162 HD
ENDROOT
BRANCH   3   5
HETATM    5  C   UNL     1     -41.095 -52.556  11.791  1.00  0.00     0.143 C 
BRANCH   5   6
HETATM    6  C   UNL     1     -40.412 -51.718  12.871  1.00  0.00     0.148 C 
BRANCH   6   7
HETATM    7  N   UNL     1     -39.429 -50.817  12.306  1.00  0.00    -0.350 N 
HETATM    8  C   UNL     1     -38.083 -50.849  12.523  1.00  0.00     0.108 A 
HETATM    9  C   UNL     1     -37.581 -49.812  11.770  1.00  0.00     0.106 A 
HETATM   10  N   UNL     1     -38.588 -49.158  11.109  1.00  0.00    -0.361 N 
HETATM   11  C   UNL     1     -39.693 -49.780  11.459  1.00  0.00     0.182 A 
ATOM     12  HN  UNL     1     -38.500 -48.360  10.479  1.00  0.00     0.166 HD
ENDBRANCH   6   7
ENDBRANCH   5   6
ENDBRANCH   3   5
BRANCH   2  13
HETATM   13  C   UNL     1     -44.769 -53.085  12.643  1.00  0.00     0.111 C 
BRANCH  13  14
HETATM   14  C   UNL     1     -45.200 -51.697  13.129  1.00  0.00     0.017 C 
HETATM   15  C   UNL     1     -44.559 -51.241  14.451  1.00  0.00     0.012 C 
HETATM   16  C   UNL     1     -45.652 -51.322  15.518  1.00  0.00     0.027 C 
HETATM   17  C   UNL     1     -46.909 -51.372  14.715  1.00  0.00    -0.030 C 
HETATM   18  C   UNL     1     -46.668 -51.578  13.416  1.00  0.00    -0.026 C 
ENDBRANCH  13  14
ENDBRANCH   2  13
TORSDOF 5
ENDMDL
MODEL 3
REMARK VINA RESULT:      -4.9      4.964      6.192
REMARK  5 active torsions:
REMARK  status: ('A' for Active; 'I' for Inactive)
REMARK    1  A    between atoms: C_2  and  C_3 
REMARK       I    between atoms: C_2  and  N_9 
REMARK    2  A    between atoms: C_3  and  C_4 
REMARK    3  A    between atoms: N_9  and  C_10 
REMARK    4  A    between atoms: C_10  and  C_11 
REMARK    5  A    between atoms: C_11  and  N_12 
ROOT
HETATM    1  O   UNL     1     -43.152 -48.912  14.318  1.00  0.00    -0.274 OA
HETATM    2  C   UNL     1     -43.445 -49.689  13.415  1.00  0.00     0.218 C 
HETATM    3  N   UNL     1     -43.389 -49.336  12.084  1.00  0.00    -0.359 N 
HETATM    4  H   UNL     1     -43.821 -49.943  11.398  1.00  0.00     0.162 HD
ENDROOT
BRANCH   3   5
HETATM    5  C   UNL     1     -43.015 -47.993  11.674  1.00  0.00     0.143 C 
BRANCH   5   6
HETATM    6  C   UNL     1     -42.960 -47.823  10.155  1.00  0.00     0.148 C 
BRANCH   6   7
HETATM    7  N   UNL     1     -44.173 -47.226   9.639  1.00  0.00    -0.350 N 
HETATM    8  C   UNL     1     -45.409 -47.803   9.606  1.00  0.00     0.108 A 
HETATM    9  C   UNL     1     -46.226 -46.850   9.042  1.00  0.00     0.106 A 
HETATM   10  N   UNL     1     -45.516 -45.719   8.734  1.00  0.00    -0.361 N 
HETATM   11  C   UNL     1     -44.278 -45.978   9.096  1.00  0.00     0.182 A 
ATOM     12  HN  UNL     1     -45.871 -44.860   8.314  1.00  0.00     0.166 HD
ENDBRANCH   6   7
ENDBRANCH   5   6
ENDBRANCH   3   5
BRANCH   2  13
HETATM   13  C   UNL     1     -43.908 -51.112  13.668  1.00  0.00     0.111 C 
BRANCH  13  14
HETATM   14  C   UNL     1     -45.412 -51.341  13.486  1.00  0.00     0.017 C 
HETATM   15  C   UNL     1     -46.249 -51.225  14.771  1.00  0.00     0.012 C 
HETATM   16  C   UNL     1     -46.662 -52.647  15.154  1.00  0.00     0.027 C 
HETATM   17  C   UNL     1     -46.447 -53.416  13.892  1.00  0.00    -0.030 C 
HETATM   18  C   UNL     1     -45.765 -52.711  12.984  1.00  0.00    -0.026 C 
ENDBRANCH  13  14
ENDBRANCH   2  13
TORSDOF 5
ENDMDL
MODEL 4
REMARK VINA RESULT:      -4.9      3.936      5.074
REMARK  5 active torsions:
REMARK  status: ('A' for Active; 'I' for Inactive)
REMARK    1  A    between atoms: C_2  and  C_3 
REMARK       I    between atoms: C_2  and  N_9 
REMARK    2  A    between atoms: C_3  and  C_4 
REMARK    3  A    between atoms: N_9  and  C_10 
REMARK    4  A    between atoms: C_10  and  C_11 
REMARK    5  A    between atoms: C_11  and  N_12 
ROOT
HETATM    1  O   UNL     1     -41.353 -52.673  12.468  1.00  0.00    -0.274 OA
HETATM    2  C   UNL     1     -42.321 -51.919  12.462  1.00  0.00     0.218 C 
HETATM    3  N   UNL     1     -42.247 -50.619  12.009  1.00  0.00    -0.359 N 
HETATM    4  H   UNL     1     -43.015 -49.989  12.204  1.00  0.00     0.162 HD
ENDROOT
BRANCH   3   5
HETATM    5  C   UNL     1     -40.992 -50.050  11.548  1.00  0.00     0.143 C 
BRANCH   5   6
HETATM    6  C   UNL     1     -40.591 -48.786  12.308  1.00  0.00     0.148 C 
BRANCH   6   7
HETATM    7  N   UNL     1     -40.717 -47.602  11.484  1.00  0.00    -0.350 N 
HETATM    8  C   UNL     1     -39.909 -46.504  11.517  1.00  0.00     0.108 A 
HETATM    9  C   UNL     1     -40.419 -45.664  10.553  1.00  0.00     0.106 A 
HETATM   10  N   UNL     1     -41.511 -46.228   9.944  1.00  0.00    -0.361 N 
HETATM   11  C   UNL     1     -41.673 -47.392  10.533  1.00  0.00     0.182 A 
ATOM     12  HN  UNL     1     -42.077 -45.829   9.194  1.00  0.00     0.166 HD
ENDBRANCH   6   7
ENDBRANCH   5   6
ENDBRANCH   3   5
BRANCH   2  13
HETATM   13  C   UNL     1     -43.693 -52.333  12.959  1.00  0.00     0.111 C 
BRANCH  13  14
HETATM   14  C   UNL     1     -44.615 -51.173  13.347  1.00  0.00     0.017 C 
HETATM   15  C   UNL     1     -44.598 -50.797  14.839  1.00  0.00     0.012 C 
HETATM   16  C   UNL     1     -45.920 -51.289  15.429  1.00  0.00     0.027 C 
HETATM   17  C   UNL     1     -46.776 -51.495  14.223  1.00  0.00    -0.030 C 
HETATM   18  C   UNL     1     -46.070 -51.435  13.090  1.00  0.00    -0.026 C 
ENDBRANCH  13  14
ENDBRANCH   2  13
TORSDOF 5
ENDMDL
MODEL 5
REMARK VINA RESULT:      -4.6      1.883      2.826
REMARK  5 active torsions:
REMARK  status: ('A' for Active; 'I' for Inactive)
REMARK    1  A    between atoms: C_2  and  C_3 
REMARK       I    between atoms: C_2  and  N_9 
REMARK    2  A    between atoms: C_3  and  C_4 
REMARK    3  A    between atoms: N_9  and  C_10 
REMARK    4  A    between atoms: C_10  and  C_11 
REMARK    5  A    between atoms: C_11  and  N_12 
ROOT
HETATM    1  O   UNL     1     -43.345 -52.723  14.514  1.00  0.00    -0.274 OA
HETATM    2  C   UNL     1     -43.689 -53.131  13.409  1.00  0.00     0.218 C 
HETATM    3  N   UNL     1     -43.093 -52.704  12.241  1.00  0.00    -0.359 N 
HETATM    4  H   UNL     1     -43.539 -52.921  11.358  1.00  0.00     0.162 HD
ENDROOT
BRANCH   3   5
HETATM    5  C   UNL     1     -42.039 -51.705  12.252  1.00  0.00     0.143 C 
BRANCH   5   6
HETATM    6  C   UNL     1     -40.642 -52.306  12.096  1.00  0.00     0.148 C 
BRANCH   6   7
HETATM    7  N   UNL     1     -40.150 -52.850  13.345  1.00  0.00    -0.350 N 
HETATM    8  C   UNL     1     -39.738 -52.137  14.432  1.00  0.00     0.108 A 
HETATM    9  C   UNL     1     -39.377 -53.087  15.359  1.00  0.00     0.106 A 
HETATM   10  N   UNL     1     -39.560 -54.351  14.858  1.00  0.00    -0.361 N 
HETATM   11  C   UNL     1     -40.017 -54.177  13.638  1.00  0.00     0.182 A 
ATOM     12  HN  UNL     1     -39.379 -55.236  15.332  1.00  0.00     0.166 HD
ENDBRANCH   6   7
ENDBRANCH   5   6
ENDBRANCH   3   5
BRANCH   2  13
HETATM   13  C   UNL     1     -44.810 -54.134  13.213  1.00  0.00     0.111 C 
BRANCH  13  14
HETATM   14  C   UNL     1     -46.222 -53.565  13.389  1.00  0.00     0.017 C 
HETATM   15  C   UNL     1     -46.382 -52.086  13.000  1.00  0.00     0.012 C 
HETATM   16  C   UNL     1     -46.525 -51.303  14.306  1.00  0.00     0.027 C 
HETATM   17  C   UNL     1     -46.885 -52.359  15.299  1.00  0.00    -0.030 C 
HETATM   18  C   UNL     1     -46.719 -53.590  14.805  1.00  0.00    -0.026 C 
ENDBRANCH  13  14
ENDBRANCH   2  13
TORSDOF 5
ENDMDL
MODEL 6
REMARK VINA RESULT:      -4.6      2.727      3.817
REMARK  5 active torsions:
REMARK  status: ('A' for Active; 'I' for Inactive)
REMARK    1  A    between atoms: C_2  and  C_3 
REMARK       I    between atoms: C_2  and  N_9 
REMARK    2  A    between atoms: C_3  and  C_4 
REMARK    3  A    between atoms: N_9  and  C_10 
REMARK    4  A    between atoms: C_10  and  C_11 
REMARK    5  A    between atoms: C_11  and  N_12 
ROOT
HETATM    1  O   UNL     1     -41.955 -54.031  13.541  1.00  0.00    -0.274 OA
HETATM    2  C   UNL     1     -42.810 -53.524  12.822  1.00  0.00     0.218 C 
HETATM    3  N   UNL     1     -42.515 -52.552  11.890  1.00  0.00    -0.359 N 
HETATM    4  H   UNL     1     -43.276 -52.036  11.465  1.00  0.00     0.162 HD
ENDROOT
BRANCH   3   5
HETATM    5  C   UNL     1     -41.165 -52.038  11.737  1.00  0.00     0.143 C 
BRANCH   5   6
HETATM    6  C   UNL     1     -40.942 -50.711  12.462  1.00  0.00     0.148 C 
BRANCH   6   7
HETATM    7  N   UNL     1     -41.683 -49.631  11.844  1.00  0.00    -0.350 N 
HETATM    8  C   UNL     1     -41.277 -48.873  10.785  1.00  0.00     0.108 A 
HETATM    9  C   UNL     1     -42.315 -47.998  10.561  1.00  0.00     0.106 A 
HETATM   10  N   UNL     1     -43.332 -48.209  11.456  1.00  0.00    -0.361 N 
HETATM   11  C   UNL     1     -42.919 -49.193  12.224  1.00  0.00     0.182 A 
ATOM     12  HN  UNL     1     -44.220 -47.709  11.514  1.00  0.00     0.166 HD
ENDBRANCH   6   7
ENDBRANCH   5   6
ENDBRANCH   3   5
BRANCH   2  13
HETATM   13  C   UNL     1     -44.277 -53.905  12.889  1.00  0.00     0.111 C 
BRANCH  13  14
HETATM   14  C   UNL     1     -45.017 -53.401  14.132  1.00  0.00     0.017 C 
HETATM   15  C   UNL     1     -46.489 -53.017  13.903  1.00  0.00     0.012 C 
HETATM   16  C   UNL     1     -46.555 -51.489  13.950  1.00  0.00     0.027 C 
HETATM   17  C   UNL     1     -45.277 -51.114  14.624  1.00  0.00    -0.030 C 
HETATM   18  C   UNL     1     -44.437 -52.149  14.723  1.00  0.00    -0.026 C 
ENDBRANCH  13  14
ENDBRANCH   2  13
TORSDOF 5
ENDMDL
MODEL 7
REMARK VINA RESULT:      -4.6      3.951      5.193
REMARK  5 active torsions:
REMARK  status: ('A' for Active; 'I' for Inactive)
REMARK    1  A    between atoms: C_2  and  C_3 
REMARK       I    between atoms: C_2  and  N_9 
REMARK    2  A    between atoms: C_3  and  C_4 
REMARK    3  A    between atoms: N_9  and  C_10 
REMARK    4  A    between atoms: C_10  and  C_11 
REMARK    5  A    between atoms: C_11  and  N_12 
ROOT
HETATM    1  O   UNL     1     -44.102 -50.945  14.759  1.00  0.00    -0.274 OA
HETATM    2  C   UNL     1     -44.587 -50.928  13.632  1.00  0.00     0.218 C 
HETATM    3  N   UNL     1     -44.088 -50.134  12.621  1.00  0.00    -0.359 N 
HETATM    4  H   UNL     1     -44.637 -50.013  11.779  1.00  0.00     0.162 HD
ENDROOT
BRANCH   3   5
HETATM    5  C   UNL     1     -42.972 -49.233  12.850  1.00  0.00     0.143 C 
BRANCH   5   6
HETATM    6  C   UNL     1     -41.957 -49.233  11.706  1.00  0.00     0.148 C 
BRANCH   6   7
HETATM    7  N   UNL     1     -42.044 -48.025  10.913  1.00  0.00    -0.350 N 
HETATM    8  C   UNL     1     -43.109 -47.627  10.159  1.00  0.00     0.108 A 
HETATM    9  C   UNL     1     -42.721 -46.426   9.610  1.00  0.00     0.106 A 
HETATM   10  N   UNL     1     -41.453 -46.094  10.012  1.00  0.00    -0.361 N 
HETATM   11  C   UNL     1     -41.066 -47.082  10.789  1.00  0.00     0.182 A 
ATOM     12  HN  UNL     1     -40.922 -45.259   9.762  1.00  0.00     0.166 HD
ENDBRANCH   6   7
ENDBRANCH   5   6
ENDBRANCH   3   5
BRANCH   2  13
HETATM   13  C   UNL     1     -45.789 -51.766  13.237  1.00  0.00     0.111 C 
BRANCH  13  14
HETATM   14  C   UNL     1     -45.466 -53.214  12.853  1.00  0.00     0.017 C 
HETATM   15  C   UNL     1     -45.663 -54.246  13.976  1.00  0.00     0.012 C 
HETATM   16  C   UNL     1     -44.266 -54.663  14.437  1.00  0.00     0.027 C 
HETATM   17  C   UNL     1     -43.390 -54.225  13.310  1.00  0.00    -0.030 C 
HETATM   18  C   UNL     1     -44.038 -53.435  12.448  1.00  0.00    -0.026 C 
ENDBRANCH  13  14
ENDBRANCH   2  13
TORSDOF 5
ENDMDL
MODEL 8
REMARK VINA RESULT:      -4.4      1.925      2.685
REMARK  5 active torsions:
REMARK  status: ('A' for Active; 'I' for Inactive)
REMARK    1  A    between atoms: C_2  and  C_3 
REMARK       I    between atoms: C_2  and  N_9 
REMARK    2  A    between atoms: C_3  and  C_4 
REMARK    3  A    between atoms: N_9  and  C_10 
REMARK    4  A    between atoms: C_10  and  C_11 
REMARK    5  A    between atoms: C_11  and  N_12 
ROOT
HETATM    1  O   UNL     1     -42.053 -52.031  16.230  1.00  0.00    -0.274 OA
HETATM    2  C   UNL     1     -42.948 -52.776  15.845  1.00  0.00     0.218 C 
HETATM    3  N   UNL     1     -42.699 -53.926  15.127  1.00  0.00    -0.359 N 
HETATM    4  H   UNL     1     -43.473 -54.395  14.672  1.00  0.00     0.162 HD
ENDROOT
BRANCH   3   5
HETATM    5  C   UNL     1     -41.348 -54.303  14.748  1.00  0.00     0.143 C 
BRANCH   5   6
HETATM    6  C   UNL     1     -41.120 -54.274  13.236  1.00  0.00     0.148 C 
BRANCH   6   7
HETATM    7  N   UNL     1     -40.826 -52.937  12.765  1.00  0.00    -0.350 N 
HETATM    8  C   UNL     1     -39.946 -52.057  13.323  1.00  0.00     0.108 A 
HETATM    9  C   UNL     1     -40.009 -50.941  12.520  1.00  0.00     0.106 A 
HETATM   10  N   UNL     1     -40.902 -51.127  11.497  1.00  0.00    -0.361 N 
HETATM   11  C   UNL     1     -41.387 -52.336  11.675  1.00  0.00     0.182 A 
ATOM     12  HN  UNL     1     -41.140 -50.467  10.755  1.00  0.00     0.166 HD
ENDBRANCH   6   7
ENDBRANCH   5   6
ENDBRANCH   3   5
BRANCH   2  13
HETATM   13  C   UNL     1     -44.418 -52.505  16.106  1.00  0.00     0.111 C 
BRANCH  13  14
HETATM   14  C   UNL     1     -44.988 -51.285  15.375  1.00  0.00     0.017 C 
HETATM   15  C   UNL     1     -46.500 -51.340  15.097  1.00  0.00     0.012 C 
HETATM   16  C   UNL     1     -46.660 -51.595  13.597  1.00  0.00     0.027 C 
HETATM   17  C   UNL     1     -45.321 -51.234  13.045  1.00  0.00    -0.030 C 
HETATM   18  C   UNL     1     -44.408 -51.067  14.007  1.00  0.00    -0.026 C 
ENDBRANCH  13  14
ENDBRANCH   2  13
TORSDOF 5
ENDMDL
MODEL 9
REMARK VINA RESULT:      -4.4      3.180      6.252
REMARK  5 active torsions:
REMARK  status: ('A' for Active; 'I' for Inactive)
REMARK    1  A    between atoms: C_2  and  C_3 
REMARK       I    between atoms: C_2  and  N_9 
REMARK    2  A    between atoms: C_3  and  C_4 
REMARK    3  A    between atoms: N_9  and  C_10 
REMARK    4  A    between atoms: C_10  and  C_11 
REMARK    5  A    between atoms: C_11  and  N_12 
ROOT
HETATM    1  O   UNL     1     -41.916 -50.019  12.682  1.00  0.00    -0.274 OA
HETATM    2  C   UNL     1     -41.010 -50.231  11.882  1.00  0.00     0.218 C 
HETATM    3  N   UNL     1     -40.737 -51.488  11.386  1.00  0.00    -0.359 N 
HETATM    4  H   UNL     1     -39.869 -51.638  10.886  1.00  0.00     0.162 HD
ENDROOT
BRANCH   3   5
HETATM    5  C   UNL     1     -41.491 -52.652  11.820  1.00  0.00     0.143 C 
BRANCH   5   6
HETATM    6  C   UNL     1     -40.860 -53.361  13.019  1.00  0.00     0.148 C 
BRANCH   6   7
HETATM    7  N   UNL     1     -41.856 -54.025  13.833  1.00  0.00    -0.350 N 
HETATM    8  C   UNL     1     -41.638 -54.664  15.018  1.00  0.00     0.108 A 
HETATM    9  C   UNL     1     -42.878 -55.118  15.406  1.00  0.00     0.106 A 
HETATM   10  N   UNL     1     -43.834 -54.769  14.486  1.00  0.00    -0.361 N 
HETATM   11  C   UNL     1     -43.187 -54.120  13.543  1.00  0.00     0.182 A 
ATOM     12  HN  UNL     1     -44.833 -54.971  14.525  1.00  0.00     0.166 HD
ENDBRANCH   6   7
ENDBRANCH   5   6
ENDBRANCH   3   5
BRANCH   2  13
HETATM   13  C   UNL     1     -40.093 -49.139  11.365  1.00  0.00     0.111 C 
BRANCH  13  14
HETATM   14  C   UNL     1     -38.760 -49.012  12.110  1.00  0.00     0.017 C 
HETATM   15  C   UNL     1     -37.570 -49.723  11.444  1.00  0.00     0.012 C 
HETATM   16  C   UNL     1     -37.269 -50.960  12.293  1.00  0.00     0.027 C 
HETATM   17  C   UNL     1     -37.957 -50.663  13.584  1.00  0.00    -0.030 C 
HETATM   18  C   UNL     1     -38.771 -49.606  13.488  1.00  0.00    -0.026 C 
ENDBRANCH  13  14
ENDBRANCH   2  13
TORSDOF 5
ENDMDL
