MODEL 1
REMARK VINA RESULT:      -6.6      0.000      0.000
REMARK  2 active torsions:
REMARK  status: ('A' for Active; 'I' for Inactive)
REMARK    1  A    between atoms: C_4  and  N_5 
REMARK       I    between atoms: N_5  and  C_6 
REMARK       I    between atoms: C_6  and  N_8 
REMARK    2  A    between atoms: N_8  and  C_9 
ROOT
HETATM    1  N   UNL     1     -39.919 -49.688  10.954  1.00  0.00    -0.293 N 
HETATM    2  C   UNL     1     -41.098 -48.895  11.006  1.00  0.00     0.322 C 
HETATM    3  O   UNL     1     -41.680 -48.651  12.049  1.00  0.00    -0.247 OA
HETATM    4  N   UNL     1     -41.517 -48.454   9.786  1.00  0.00    -0.330 N 
HETATM    5  H   UNL     1     -39.523 -49.919  10.061  1.00  0.00     0.172 HD
HETATM    6  H   UNL     1     -41.022 -48.589   8.917  1.00  0.00     0.165 HD
ENDROOT
BRANCH   1   7
HETATM    7  C   UNL     1     -39.314 -50.174  12.124  1.00  0.00     0.127 A 
HETATM    8  C   UNL     1     -38.309 -49.576  12.855  1.00  0.00     0.076 A 
HETATM    9  C   UNL     1     -38.039 -50.438  13.934  1.00  0.00     0.025 A 
HETATM   10  C   UNL     1     -37.035 -50.237  15.008  1.00  0.00     0.070 C 
HETATM   11  N   UNL     1     -38.817 -51.521  13.896  1.00  0.00    -0.302 N 
HETATM   12  N   UNL     1     -39.581 -51.344  12.795  1.00  0.00    -0.281 N 
ATOM     13  HN  UNL     1     -38.832 -52.305  14.550  1.00  0.00     0.186 HD
HETATM   14  C   UNL     1     -40.550 -52.367  12.486  1.00  0.00     0.179 C 
ENDBRANCH   1   7
BRANCH   4  15
HETATM   15  C   UNL     1     -42.708 -47.609   9.787  1.00  0.00     0.172 C 
HETATM   16  C   UNL     1     -43.537 -47.807   8.510  1.00  0.00     0.034 C 
HETATM   17  C   UNL     1     -45.018 -47.549   8.779  1.00  0.00     0.004 C 
HETATM   18  C   UNL     1     -45.448 -46.081   8.855  1.00  0.00     0.015 C 
HETATM   19  C   UNL     1     -44.388 -45.020   9.172  1.00  0.00     0.095 C 
HETATM   20  N   UNL     1     -43.503 -45.357  10.273  1.00  0.00    -0.261 NA
HETATM   21  C   UNL     1     -42.390 -46.129   9.981  1.00  0.00     0.220 C 
HETATM   22  H   UNL     1     -44.033 -45.693  11.068  1.00  0.00     0.130 HD
HETATM   23  O   UNL     1     -41.255 -45.680   9.871  1.00  0.00    -0.278 OA
ENDBRANCH   4  15
TORSDOF 2
ENDMDL
MODEL 2
REMARK VINA RESULT:      -6.5      1.234      7.357
REMARK  2 active torsions:
REMARK  status: ('A' for Active; 'I' for Inactive)
REMARK    1  A    between atoms: C_4  and  N_5 
REMARK       I    between atoms: N_5  and  C_6 
REMARK       I    between atoms: C_6  and  N_8 
REMARK    2  A    between atoms: N_8  and  C_9 
ROOT
HETATM    1  N   UNL     1     -41.920 -48.331   9.512  1.00  0.00    -0.293 N 
HETATM    2  C   UNL     1     -41.418 -48.754  10.774  1.00  0.00     0.322 C 
HETATM    3  O   UNL     1     -41.844 -48.317  11.829  1.00  0.00    -0.247 OA
HETATM    4  N   UNL     1     -40.415 -49.672  10.686  1.00  0.00    -0.330 N 
HETATM    5  H   UNL     1     -41.482 -48.668   8.673  1.00  0.00     0.172 HD
HETATM    6  H   UNL     1     -40.086 -50.095   9.831  1.00  0.00     0.165 HD
ENDROOT
BRANCH   1   7
HETATM    7  C   UNL     1     -42.995 -47.435   9.417  1.00  0.00     0.127 A 
HETATM    8  C   UNL     1     -44.280 -47.713   8.998  1.00  0.00     0.076 A 
HETATM    9  C   UNL     1     -44.992 -46.502   9.077  1.00  0.00     0.025 A 
HETATM   10  C   UNL     1     -46.418 -46.280   8.733  1.00  0.00     0.070 C 
HETATM   11  N   UNL     1     -44.214 -45.509   9.512  1.00  0.00    -0.302 N 
HETATM   12  N   UNL     1     -43.011 -46.092   9.712  1.00  0.00    -0.281 N 
ATOM     13  HN  UNL     1     -44.469 -44.532   9.660  1.00  0.00     0.186 HD
HETATM   14  C   UNL     1     -41.942 -45.259  10.203  1.00  0.00     0.179 C 
ENDBRANCH   1   7
BRANCH   4  15
HETATM   15  C   UNL     1     -39.885 -50.162  11.955  1.00  0.00     0.172 C 
HETATM   16  C   UNL     1     -38.353 -50.254  11.925  1.00  0.00     0.034 C 
HETATM   17  C   UNL     1     -37.770 -50.050  13.323  1.00  0.00     0.004 C 
HETATM   18  C   UNL     1     -37.843 -51.251  14.269  1.00  0.00     0.015 C 
HETATM   19  C   UNL     1     -38.888 -52.340  13.998  1.00  0.00     0.095 C 
HETATM   20  N   UNL     1     -40.216 -51.841  13.691  1.00  0.00    -0.261 NA
HETATM   21  C   UNL     1     -40.481 -51.504  12.373  1.00  0.00     0.220 C 
HETATM   22  H   UNL     1     -40.494 -51.129  14.356  1.00  0.00     0.130 HD
HETATM   23  O   UNL     1     -41.118 -52.210  11.600  1.00  0.00    -0.278 OA
ENDBRANCH   4  15
TORSDOF 2
ENDMDL
MODEL 3
REMARK VINA RESULT:      -6.3      4.570      7.044
REMARK  2 active torsions:
REMARK  status: ('A' for Active; 'I' for Inactive)
REMARK    1  A    between atoms: C_4  and  N_5 
REMARK       I    between atoms: N_5  and  C_6 
REMARK       I    between atoms: C_6  and  N_8 
REMARK    2  A    between atoms: N_8  and  C_9 
ROOT
HETATM    1  N   UNL     1     -44.407 -51.736  12.787  1.00  0.00    -0.293 N 
HETATM    2  C   UNL     1     -43.095 -51.304  13.127  1.00  0.00     0.322 C 
HETATM    3  O   UNL     1     -42.746 -51.111  14.278  1.00  0.00    -0.247 OA
HETATM    4  N   UNL     1     -42.284 -51.115  12.048  1.00  0.00    -0.330 N 
HETATM    5  H   UNL     1     -44.664 -51.808  11.819  1.00  0.00     0.172 HD
HETATM    6  H   UNL     1     -42.528 -51.326  11.092  1.00  0.00     0.165 HD
ENDROOT
BRANCH   1   7
HETATM    7  C   UNL     1     -45.355 -52.038  13.777  1.00  0.00     0.127 A 
HETATM    8  C   UNL     1     -46.048 -51.147  14.569  1.00  0.00     0.076 A 
HETATM    9  C   UNL     1     -46.877 -51.922  15.402  1.00  0.00     0.025 A 
HETATM   10  C   UNL     1     -47.820 -51.425  16.434  1.00  0.00     0.070 C 
HETATM   11  N   UNL     1     -46.722 -53.226  15.164  1.00  0.00    -0.302 N 
HETATM   12  N   UNL     1     -45.798 -53.276  14.179  1.00  0.00    -0.281 N 
ATOM     13  HN  UNL     1     -47.194 -54.006  15.622  1.00  0.00     0.186 HD
HETATM   14  C   UNL     1     -45.420 -54.579  13.689  1.00  0.00     0.179 C 
ENDBRANCH   1   7
BRANCH   4  15
HETATM   15  C   UNL     1     -40.915 -50.700  12.344  1.00  0.00     0.172 C 
HETATM   16  C   UNL     1     -40.362 -49.773  11.252  1.00  0.00     0.034 C 
HETATM   17  C   UNL     1     -39.332 -48.806  11.833  1.00  0.00     0.004 C 
HETATM   18  C   UNL     1     -37.933 -49.376  12.086  1.00  0.00     0.015 C 
HETATM   19  C   UNL     1     -37.775 -50.892  12.246  1.00  0.00     0.095 C 
HETATM   20  N   UNL     1     -38.753 -51.515  13.121  1.00  0.00    -0.261 NA
HETATM   21  C   UNL     1     -39.968 -51.877  12.561  1.00  0.00     0.220 C 
HETATM   22  H   UNL     1     -38.844 -50.994  13.985  1.00  0.00     0.130 HD
HETATM   23  O   UNL     1     -40.264 -53.025  12.250  1.00  0.00    -0.278 OA
ENDBRANCH   4  15
TORSDOF 2
ENDMDL
MODEL 4
REMARK VINA RESULT:      -6.1      4.127      6.413
REMARK  2 active torsions:
REMARK  status: ('A' for Active; 'I' for Inactive)
REMARK    1  A    between atoms: C_4  and  N_5 
REMARK       I    between atoms: N_5  and  C_6 
REMARK       I    between atoms: C_6  and  N_8 
REMARK    2  A    between atoms: N_8  and  C_9 
ROOT
HETATM    1  N   UNL     1     -41.871 -49.567  11.504  1.00  0.00    -0.293 N 
HETATM    2  C   UNL     1     -43.050 -49.777  12.270  1.00  0.00     0.322 C 
HETATM    3  O   UNL     1     -43.734 -48.859  12.689  1.00  0.00    -0.247 OA
HETATM    4  N   UNL     1     -43.327 -51.092  12.502  1.00  0.00    -0.330 N 
HETATM    5  H   UNL     1     -41.305 -50.356  11.248  1.00  0.00     0.172 HD
HETATM    6  H   UNL     1     -42.813 -51.871  12.117  1.00  0.00     0.165 HD
ENDROOT
BRANCH   1   7
HETATM    7  C   UNL     1     -41.471 -48.278  11.120  1.00  0.00     0.127 A 
HETATM    8  C   UNL     1     -40.455 -47.521  11.667  1.00  0.00     0.076 A 
HETATM    9  C   UNL     1     -40.436 -46.309  10.952  1.00  0.00     0.025 A 
HETATM   10  C   UNL     1     -39.520 -45.162  11.162  1.00  0.00     0.070 C 
HETATM   11  N   UNL     1     -41.383 -46.286  10.011  1.00  0.00    -0.302 N 
HETATM   12  N   UNL     1     -41.997 -47.484  10.129  1.00  0.00    -0.281 N 
ATOM     13  HN  UNL     1     -41.593 -45.535   9.353  1.00  0.00     0.186 HD
HETATM   14  C   UNL     1     -43.082 -47.767   9.221  1.00  0.00     0.179 C 
ENDBRANCH   1   7
BRANCH   4  15
HETATM   15  C   UNL     1     -44.545 -51.364  13.260  1.00  0.00     0.172 C 
HETATM   16  C   UNL     1     -44.265 -51.422  14.769  1.00  0.00     0.034 C 
HETATM   17  C   UNL     1     -45.495 -50.988  15.565  1.00  0.00     0.004 C 
HETATM   18  C   UNL     1     -46.609 -52.028  15.711  1.00  0.00     0.015 C 
HETATM   19  C   UNL     1     -46.687 -53.171  14.692  1.00  0.00     0.095 C 
HETATM   20  N   UNL     1     -46.543 -52.759  13.307  1.00  0.00    -0.261 NA
HETATM   21  C   UNL     1     -45.255 -52.639  12.810  1.00  0.00     0.220 C 
HETATM   22  H   UNL     1     -47.131 -51.959  13.108  1.00  0.00     0.130 HD
HETATM   23  O   UNL     1     -44.717 -53.472  12.090  1.00  0.00    -0.278 OA
ENDBRANCH   4  15
TORSDOF 2
ENDMDL
MODEL 5
REMARK VINA RESULT:      -6.0      3.072      4.818
REMARK  2 active torsions:
REMARK  status: ('A' for Active; 'I' for Inactive)
REMARK    1  A    between atoms: C_4  and  N_5 
REMARK       I    between atoms: N_5  and  C_6 
REMARK       I    between atoms: C_6  and  N_8 
REMARK    2  A    between atoms: N_8  and  C_9 
ROOT
HETATM    1  N   UNL     1     -42.002 -52.422  11.910  1.00  0.00    -0.293 N 
HETATM    2  C   UNL     1     -42.019 -51.017  12.132  1.00  0.00     0.322 C 
HETATM    3  O   UNL     1     -42.720 -50.495  12.981  1.00  0.00    -0.247 OA
HETATM    4  N   UNL     1     -41.195 -50.321  11.298  1.00  0.00    -0.330 N 
HETATM    5  H   UNL     1     -41.462 -52.791  11.148  1.00  0.00     0.172 HD
HETATM    6  H   UNL     1     -40.561 -50.731  10.630  1.00  0.00     0.165 HD
ENDROOT
BRANCH   1   7
HETATM    7  C   UNL     1     -42.743 -53.297  12.719  1.00  0.00     0.127 A 
HETATM    8  C   UNL     1     -44.060 -53.673  12.555  1.00  0.00     0.076 A 
HETATM    9  C   UNL     1     -44.352 -54.560  13.607  1.00  0.00     0.025 A 
HETATM   10  C   UNL     1     -45.643 -55.241  13.869  1.00  0.00     0.070 C 
HETATM   11  N   UNL     1     -43.293 -54.737  14.400  1.00  0.00    -0.302 N 
HETATM   12  N   UNL     1     -42.331 -53.966  13.847  1.00  0.00    -0.281 N 
ATOM     13  HN  UNL     1     -43.226 -55.322  15.234  1.00  0.00     0.186 HD
HETATM   14  C   UNL     1     -41.038 -53.955  14.487  1.00  0.00     0.179 C 
ENDBRANCH   1   7
BRANCH   4  15
HETATM   15  C   UNL     1     -41.153 -48.876  11.504  1.00  0.00     0.172 C 
HETATM   16  C   UNL     1     -41.773 -48.122  10.319  1.00  0.00     0.034 C 
HETATM   17  C   UNL     1     -42.380 -46.797  10.776  1.00  0.00     0.004 C 
HETATM   18  C   UNL     1     -41.397 -45.648  11.019  1.00  0.00     0.015 C 
HETATM   19  C   UNL     1     -39.927 -45.984  11.296  1.00  0.00     0.095 C 
HETATM   20  N   UNL     1     -39.721 -47.053  12.257  1.00  0.00    -0.261 NA
HETATM   21  C   UNL     1     -39.745 -48.353  11.778  1.00  0.00     0.220 C 
HETATM   22  H   UNL     1     -40.297 -46.912  13.079  1.00  0.00     0.130 HD
HETATM   23  O   UNL     1     -38.742 -49.027  11.574  1.00  0.00    -0.278 OA
ENDBRANCH   4  15
TORSDOF 2
ENDMDL
MODEL 6
REMARK VINA RESULT:      -6.0      3.144      6.840
REMARK  2 active torsions:
REMARK  status: ('A' for Active; 'I' for Inactive)
REMARK    1  A    between atoms: C_4  and  N_5 
REMARK       I    between atoms: N_5  and  C_6 
REMARK       I    between atoms: C_6  and  N_8 
REMARK    2  A    between atoms: N_8  and  C_9 
ROOT
HETATM    1  N   UNL     1     -41.378 -50.092  11.092  1.00  0.00    -0.293 N 
HETATM    2  C   UNL     1     -41.799 -50.816  12.241  1.00  0.00     0.322 C 
HETATM    3  O   UNL     1     -41.786 -50.334  13.361  1.00  0.00    -0.247 OA
HETATM    4  N   UNL     1     -42.199 -52.090  11.971  1.00  0.00    -0.330 N 
HETATM    5  H   UNL     1     -41.339 -50.561  10.205  1.00  0.00     0.172 HD
HETATM    6  H   UNL     1     -42.277 -52.493  11.049  1.00  0.00     0.165 HD
ENDROOT
BRANCH   1   7
HETATM    7  C   UNL     1     -40.992 -48.745  11.178  1.00  0.00     0.127 A 
HETATM    8  C   UNL     1     -41.716 -47.642  10.777  1.00  0.00     0.076 A 
HETATM    9  C   UNL     1     -40.918 -46.520  11.066  1.00  0.00     0.025 A 
HETATM   10  C   UNL     1     -41.256 -45.096  10.820  1.00  0.00     0.070 C 
HETATM   11  N   UNL     1     -39.755 -46.879  11.613  1.00  0.00    -0.302 N 
HETATM   12  N   UNL     1     -39.818 -48.228  11.672  1.00  0.00    -0.281 N 
ATOM     13  HN  UNL     1     -38.992 -46.273  11.917  1.00  0.00     0.186 HD
HETATM   14  C   UNL     1     -38.687 -48.922  12.237  1.00  0.00     0.179 C 
ENDBRANCH   1   7
BRANCH   4  15
HETATM   15  C   UNL     1     -42.670 -52.868  13.114  1.00  0.00     0.172 C 
HETATM   16  C   UNL     1     -41.815 -54.125  13.328  1.00  0.00     0.034 C 
HETATM   17  C   UNL     1     -41.792 -54.521  14.803  1.00  0.00     0.004 C 
HETATM   18  C   UNL     1     -43.032 -55.249  15.329  1.00  0.00     0.015 C 
HETATM   19  C   UNL     1     -44.355 -55.091  14.571  1.00  0.00     0.095 C 
HETATM   20  N   UNL     1     -44.678 -53.726  14.196  1.00  0.00    -0.261 NA
HETATM   21  C   UNL     1     -44.144 -53.249  13.009  1.00  0.00     0.220 C 
HETATM   22  H   UNL     1     -44.549 -53.098  14.980  1.00  0.00     0.130 HD
HETATM   23  O   UNL     1     -44.776 -53.150  11.964  1.00  0.00    -0.278 OA
ENDBRANCH   4  15
TORSDOF 2
ENDMDL
MODEL 7
REMARK VINA RESULT:      -5.8      4.275      6.353
REMARK  2 active torsions:
REMARK  status: ('A' for Active; 'I' for Inactive)
REMARK    1  A    between atoms: C_4  and  N_5 
REMARK       I    between atoms: N_5  and  C_6 
REMARK       I    between atoms: C_6  and  N_8 
REMARK    2  A    between atoms: N_8  and  C_9 
ROOT
HETATM    1  N   UNL     1     -41.782 -50.262  11.748  1.00  0.00    -0.293 N 
HETATM    2  C   UNL     1     -42.983 -50.377  12.502  1.00  0.00     0.322 C 
HETATM    3  O   UNL     1     -43.484 -49.433  13.086  1.00  0.00    -0.247 OA
HETATM    4  N   UNL     1     -43.501 -51.638  12.518  1.00  0.00    -0.330 N 
HETATM    5  H   UNL     1     -41.373 -51.088  11.349  1.00  0.00     0.172 HD
HETATM    6  H   UNL     1     -43.142 -52.422  11.995  1.00  0.00     0.165 HD
ENDROOT
BRANCH   1   7
HETATM    7  C   UNL     1     -41.146 -49.024  11.574  1.00  0.00     0.127 A 
HETATM    8  C   UNL     1     -41.604 -47.944  10.848  1.00  0.00     0.076 A 
HETATM    9  C   UNL     1     -40.624 -46.941  10.972  1.00  0.00     0.025 A 
HETATM   10  C   UNL     1     -40.654 -45.585  10.371  1.00  0.00     0.070 C 
HETATM   11  N   UNL     1     -39.601 -47.352  11.723  1.00  0.00    -0.302 N 
HETATM   12  N   UNL     1     -39.934 -48.613  12.078  1.00  0.00    -0.281 N 
ATOM     13  HN  UNL     1     -38.759 -46.832  11.973  1.00  0.00     0.186 HD
HETATM   14  C   UNL     1     -39.010 -49.333  12.919  1.00  0.00     0.179 C 
ENDBRANCH   1   7
BRANCH   4  15
HETATM   15  C   UNL     1     -44.752 -51.804  13.253  1.00  0.00     0.172 C 
HETATM   16  C   UNL     1     -44.536 -51.663  14.767  1.00  0.00     0.034 C 
HETATM   17  C   UNL     1     -45.793 -51.124  15.447  1.00  0.00     0.004 C 
HETATM   18  C   UNL     1     -46.921 -52.132  15.682  1.00  0.00     0.015 C 
HETATM   19  C   UNL     1     -46.967 -53.399  14.820  1.00  0.00     0.095 C 
HETATM   20  N   UNL     1     -46.762 -53.174  13.400  1.00  0.00    -0.261 NA
HETATM   21  C   UNL     1     -45.454 -53.124  12.946  1.00  0.00     0.220 C 
HETATM   22  H   UNL     1     -47.335 -52.405  13.073  1.00  0.00     0.130 HD
HETATM   23  O   UNL     1     -44.894 -54.047  12.365  1.00  0.00    -0.278 OA
ENDBRANCH   4  15
TORSDOF 2
ENDMDL
MODEL 8
REMARK VINA RESULT:      -5.6      2.462      3.292
REMARK  2 active torsions:
REMARK  status: ('A' for Active; 'I' for Inactive)
REMARK    1  A    between atoms: C_4  and  N_5 
REMARK       I    between atoms: N_5  and  C_6 
REMARK       I    between atoms: C_6  and  N_8 
REMARK    2  A    between atoms: N_8  and  C_9 
ROOT
HETATM    1  N   UNL     1     -41.101 -51.907  11.714  1.00  0.00    -0.293 N 
HETATM    2  C   UNL     1     -41.519 -50.565  11.928  1.00  0.00     0.322 C 
HETATM    3  O   UNL     1     -42.031 -50.195  12.971  1.00  0.00    -0.247 OA
HETATM    4  N   UNL     1     -41.307 -49.747  10.858  1.00  0.00    -0.330 N 
HETATM    5  H   UNL     1     -40.754 -52.174  10.810  1.00  0.00     0.172 HD
HETATM    6  H   UNL     1     -40.831 -50.012  10.009  1.00  0.00     0.165 HD
ENDROOT
BRANCH   1   7
HETATM    7  C   UNL     1     -41.189 -52.870  12.731  1.00  0.00     0.127 A 
HETATM    8  C   UNL     1     -40.178 -53.297  13.567  1.00  0.00     0.076 A 
HETATM    9  C   UNL     1     -40.748 -54.265  14.414  1.00  0.00     0.025 A 
HETATM   10  C   UNL     1     -40.065 -55.022  15.492  1.00  0.00     0.070 C 
HETATM   11  N   UNL     1     -42.040 -54.452  14.137  1.00  0.00    -0.302 N 
HETATM   12  N   UNL     1     -42.288 -53.601  13.117  1.00  0.00    -0.281 N 
ATOM     13  HN  UNL     1     -42.691 -55.093  14.592  1.00  0.00     0.186 HD
HETATM   14  C   UNL     1     -43.631 -53.565  12.592  1.00  0.00     0.179 C 
ENDBRANCH   1   7
BRANCH   4  15
HETATM   15  C   UNL     1     -41.691 -48.350  11.037  1.00  0.00     0.172 C 
HETATM   16  C   UNL     1     -42.334 -47.777   9.765  1.00  0.00     0.034 C 
HETATM   17  C   UNL     1     -43.337 -46.679  10.112  1.00  0.00     0.004 C 
HETATM   18  C   UNL     1     -42.748 -45.308  10.456  1.00  0.00     0.015 C 
HETATM   19  C   UNL     1     -41.292 -45.229  10.929  1.00  0.00     0.095 C 
HETATM   20  N   UNL     1     -40.927 -46.215  11.931  1.00  0.00    -0.261 NA
HETATM   21  C   UNL     1     -40.530 -47.464  11.481  1.00  0.00     0.220 C 
HETATM   22  H   UNL     1     -41.622 -46.251  12.668  1.00  0.00     0.130 HD
HETATM   23  O   UNL     1     -39.363 -47.832  11.424  1.00  0.00    -0.278 OA
ENDBRANCH   4  15
TORSDOF 2
ENDMDL
MODEL 9
REMARK VINA RESULT:      -5.6      1.937      7.532
REMARK  2 active torsions:
REMARK  status: ('A' for Active; 'I' for Inactive)
REMARK    1  A    between atoms: C_4  and  N_5 
REMARK       I    between atoms: N_5  and  C_6 
REMARK       I    between atoms: C_6  and  N_8 
REMARK    2  A    between atoms: N_8  and  C_9 
ROOT
HETATM    1  N   UNL     1     -40.418 -47.575  10.741  1.00  0.00    -0.293 N 
HETATM    2  C   UNL     1     -40.068 -47.881  12.085  1.00  0.00     0.322 C 
HETATM    3  O   UNL     1     -40.824 -47.689  13.021  1.00  0.00    -0.247 OA
HETATM    4  N   UNL     1     -38.810 -48.390  12.221  1.00  0.00    -0.330 N 
HETATM    5  H   UNL     1     -39.730 -47.684  10.018  1.00  0.00     0.172 HD
HETATM    6  H   UNL     1     -38.188 -48.615  11.460  1.00  0.00     0.165 HD
ENDROOT
BRANCH   1   7
HETATM    7  C   UNL     1     -41.697 -47.101  10.411  1.00  0.00     0.127 A 
HETATM    8  C   UNL     1     -42.747 -47.825   9.884  1.00  0.00     0.076 A 
HETATM    9  C   UNL     1     -43.812 -46.919   9.727  1.00  0.00     0.025 A 
HETATM   10  C   UNL     1     -45.165 -47.215   9.195  1.00  0.00     0.070 C 
HETATM   11  N   UNL     1     -43.468 -45.692  10.122  1.00  0.00    -0.302 N 
HETATM   12  N   UNL     1     -42.186 -45.822  10.531  1.00  0.00    -0.281 N 
ATOM     13  HN  UNL     1     -44.042 -44.848  10.116  1.00  0.00     0.186 HD
HETATM   14  C   UNL     1     -41.527 -44.642  11.035  1.00  0.00     0.179 C 
ENDBRANCH   1   7
BRANCH   4  15
HETATM   15  C   UNL     1     -38.411 -48.749  13.579  1.00  0.00     0.172 C 
HETATM   16  C   UNL     1     -37.485 -47.688  14.191  1.00  0.00     0.034 C 
HETATM   17  C   UNL     1     -37.642 -47.642  15.709  1.00  0.00     0.004 C 
HETATM   18  C   UNL     1     -36.932 -48.746  16.498  1.00  0.00     0.015 C 
HETATM   19  C   UNL     1     -36.574 -50.051  15.779  1.00  0.00     0.095 C 
HETATM   20  N   UNL     1     -37.638 -50.603  14.960  1.00  0.00    -0.261 NA
HETATM   21  C   UNL     1     -37.758 -50.126  13.664  1.00  0.00     0.220 C 
HETATM   22  H   UNL     1     -38.514 -50.615  15.470  1.00  0.00     0.130 HD
HETATM   23  O   UNL     1     -37.368 -50.731  12.672  1.00  0.00    -0.278 OA
ENDBRANCH   4  15
TORSDOF 2
ENDMDL
