MODEL 1
REMARK VINA RESULT:      -4.8      0.000      0.000
REMARK  6 active torsions:
REMARK  status: ('A' for Active; 'I' for Inactive)
REMARK    1  A    between atoms: O_2  and  C_3 
REMARK    2  A    between atoms: C_3  and  C_4 
REMARK    3  A    between atoms: C_4  and  O_5 
REMARK    4  A    between atoms: O_5  and  C_6 
REMARK    5  A    between atoms: C_12  and  N_13 
REMARK    6  A    between atoms: N_13  and  C_14 
ROOT
HETATM    1  C   UNL     1     -41.625 -51.761  12.449  1.00  0.00     0.169 A 
HETATM    2  N   UNL     1     -40.360 -52.149  12.752  1.00  0.00    -0.345 N 
ATOM      3  HN  UNL     1     -39.563 -51.532  12.594  1.00  0.00     0.167 HD
HETATM    4  C   UNL     1     -40.202 -53.383  13.271  1.00  0.00     0.090 A 
HETATM    5  C   UNL     1     -41.246 -54.256  13.506  1.00  0.00     0.019 A 
HETATM    6  C   UNL     1     -42.534 -53.843  13.179  1.00  0.00     0.035 A 
HETATM    7  C   UNL     1     -42.760 -52.579  12.615  1.00  0.00     0.080 A 
ENDROOT
BRANCH   7   8
HETATM    8  N   UNL     1     -44.105 -52.212  12.345  1.00  0.00    -0.382 N 
HETATM    9  H   UNL     1     -44.147 -51.285  11.927  1.00  0.00     0.160 HD
BRANCH   8  10
HETATM   10  C   UNL     1     -45.245 -52.472  13.175  1.00  0.00     0.082 C 
HETATM   11  C   UNL     1     -46.478 -51.653  12.714  1.00  0.00     0.025 C 
HETATM   12  C   UNL     1     -46.763 -51.374  14.203  1.00  0.00     0.004 C 
HETATM   13  C   UNL     1     -45.262 -51.615  14.466  1.00  0.00     0.025 C 
ENDBRANCH   8  10
ENDBRANCH   7   8
BRANCH   1  14
HETATM   14  O   UNL     1     -41.823 -50.461  12.045  1.00  0.00    -0.332 OA
BRANCH  14  15
HETATM   15  C   UNL     1     -40.726 -49.844  11.368  1.00  0.00     0.203 C 
BRANCH  15  16
HETATM   16  C   UNL     1     -41.117 -48.384  11.153  1.00  0.00     0.193 C 
BRANCH  16  17
HETATM   17  O   UNL     1     -41.888 -48.214   9.966  1.00  0.00    -0.394 OA
HETATM   18  C   UNL     1     -43.126 -47.579  10.258  1.00  0.00     0.201 C 
ENDBRANCH  16  17
ENDBRANCH  15  16
ENDBRANCH  14  15
ENDBRANCH   1  14
TORSDOF 6
ENDMDL
MODEL 2
REMARK VINA RESULT:      -4.8      1.916      4.177
REMARK  6 active torsions:
REMARK  status: ('A' for Active; 'I' for Inactive)
REMARK    1  A    between atoms: O_2  and  C_3 
REMARK    2  A    between atoms: C_3  and  C_4 
REMARK    3  A    between atoms: C_4  and  O_5 
REMARK    4  A    between atoms: O_5  and  C_6 
REMARK    5  A    between atoms: C_12  and  N_13 
REMARK    6  A    between atoms: N_13  and  C_14 
ROOT
HETATM    1  C   UNL     1     -41.149 -51.782  12.174  1.00  0.00     0.169 A 
HETATM    2  N   UNL     1     -40.011 -51.187  11.736  1.00  0.00    -0.345 N 
ATOM      3  HN  UNL     1     -39.162 -51.726  11.564  1.00  0.00     0.167 HD
HETATM    4  C   UNL     1     -40.049 -49.854  11.538  1.00  0.00     0.090 A 
HETATM    5  C   UNL     1     -41.171 -49.078  11.753  1.00  0.00     0.019 A 
HETATM    6  C   UNL     1     -42.326 -49.706  12.212  1.00  0.00     0.035 A 
HETATM    7  C   UNL     1     -42.341 -51.087  12.459  1.00  0.00     0.080 A 
ENDROOT
BRANCH   7   8
HETATM    8  N   UNL     1     -43.566 -51.663  12.888  1.00  0.00    -0.382 N 
HETATM    9  H   UNL     1     -43.810 -52.461  12.305  1.00  0.00     0.160 HD
BRANCH   8  10
HETATM   10  C   UNL     1     -44.731 -50.958  13.338  1.00  0.00     0.082 C 
HETATM   11  C   UNL     1     -45.103 -51.351  14.790  1.00  0.00     0.025 C 
HETATM   12  C   UNL     1     -46.574 -51.380  14.333  1.00  0.00     0.004 C 
HETATM   13  C   UNL     1     -46.054 -51.637  12.903  1.00  0.00     0.025 C 
ENDBRANCH   8  10
ENDBRANCH   7   8
BRANCH   1  14
HETATM   14  O   UNL     1     -41.171 -53.155  12.255  1.00  0.00    -0.332 OA
BRANCH  14  15
HETATM   15  C   UNL     1     -40.414 -53.729  13.322  1.00  0.00     0.203 C 
BRANCH  15  16
HETATM   16  C   UNL     1     -41.428 -54.266  14.330  1.00  0.00     0.193 C 
BRANCH  16  17
HETATM   17  O   UNL     1     -42.719 -54.422  13.747  1.00  0.00    -0.394 OA
HETATM   18  C   UNL     1     -43.664 -54.839  14.725  1.00  0.00     0.201 C 
ENDBRANCH  16  17
ENDBRANCH  15  16
ENDBRANCH  14  15
ENDBRANCH   1  14
TORSDOF 6
ENDMDL
MODEL 3
REMARK VINA RESULT:      -4.8      2.265      5.049
REMARK  6 active torsions:
REMARK  status: ('A' for Active; 'I' for Inactive)
REMARK    1  A    between atoms: O_2  and  C_3 
REMARK    2  A    between atoms: C_3  and  C_4 
REMARK    3  A    between atoms: C_4  and  O_5 
REMARK    4  A    between atoms: O_5  and  C_6 
REMARK    5  A    between atoms: C_12  and  N_13 
REMARK    6  A    between atoms: N_13  and  C_14 
ROOT
HETATM    1  C   UNL     1     -40.614 -51.120  12.167  1.00  0.00     0.169 A 
HETATM    2  N   UNL     1     -39.825 -51.774  13.056  1.00  0.00    -0.345 N 
ATOM      3  HN  UNL     1     -40.176 -52.564  13.597  1.00  0.00     0.167 HD
HETATM    4  C   UNL     1     -38.557 -51.336  13.192  1.00  0.00     0.090 A 
HETATM    5  C   UNL     1     -38.032 -50.274  12.483  1.00  0.00     0.019 A 
HETATM    6  C   UNL     1     -38.861 -49.611  11.583  1.00  0.00     0.035 A 
HETATM    7  C   UNL     1     -40.196 -50.005  11.414  1.00  0.00     0.080 A 
ENDROOT
BRANCH   7   8
HETATM    8  N   UNL     1     -40.969 -49.306  10.450  1.00  0.00    -0.382 N 
HETATM    9  H   UNL     1     -40.518 -49.335   9.539  1.00  0.00     0.160 HD
BRANCH   8  10
HETATM   10  C   UNL     1     -41.680 -48.077  10.652  1.00  0.00     0.082 C 
HETATM   11  C   UNL     1     -42.899 -48.276  11.589  1.00  0.00     0.025 C 
HETATM   12  C   UNL     1     -43.696 -47.369  10.632  1.00  0.00     0.004 C 
HETATM   13  C   UNL     1     -42.700 -47.775   9.526  1.00  0.00     0.025 C 
ENDBRANCH   8  10
ENDBRANCH   7   8
BRANCH   1  14
HETATM   14  O   UNL     1     -41.867 -51.632  11.915  1.00  0.00    -0.332 OA
BRANCH  14  15
HETATM   15  C   UNL     1     -42.186 -52.854  12.583  1.00  0.00     0.203 C 
BRANCH  15  16
HETATM   16  C   UNL     1     -43.702 -52.862  12.765  1.00  0.00     0.193 C 
BRANCH  16  17
HETATM   17  O   UNL     1     -44.270 -54.119  12.404  1.00  0.00    -0.394 OA
HETATM   18  C   UNL     1     -45.085 -54.622  13.454  1.00  0.00     0.201 C 
ENDBRANCH  16  17
ENDBRANCH  15  16
ENDBRANCH  14  15
ENDBRANCH   1  14
TORSDOF 6
ENDMDL
MODEL 4
REMARK VINA RESULT:      -4.8      1.252      1.882
REMARK  6 active torsions:
REMARK  status: ('A' for Active; 'I' for Inactive)
REMARK    1  A    between atoms: O_2  and  C_3 
REMARK    2  A    between atoms: C_3  and  C_4 
REMARK    3  A    between atoms: C_4  and  O_5 
REMARK    4  A    between atoms: O_5  and  C_6 
REMARK    5  A    between atoms: C_12  and  N_13 
REMARK    6  A    between atoms: N_13  and  C_14 
ROOT
HETATM    1  C   UNL     1     -41.512 -51.736  12.522  1.00  0.00     0.169 A 
HETATM    2  N   UNL     1     -40.264 -52.181  12.818  1.00  0.00    -0.345 N 
ATOM      3  HN  UNL     1     -39.440 -51.605  12.651  1.00  0.00     0.167 HD
HETATM    4  C   UNL     1     -40.161 -53.420  13.342  1.00  0.00     0.090 A 
HETATM    5  C   UNL     1     -41.244 -54.241  13.590  1.00  0.00     0.019 A 
HETATM    6  C   UNL     1     -42.514 -53.768  13.270  1.00  0.00     0.035 A 
HETATM    7  C   UNL     1     -42.683 -52.497  12.701  1.00  0.00     0.080 A 
ENDROOT
BRANCH   7   8
HETATM    8  N   UNL     1     -44.011 -52.068  12.439  1.00  0.00    -0.382 N 
HETATM    9  H   UNL     1     -44.020 -51.098  12.130  1.00  0.00     0.160 HD
BRANCH   8  10
HETATM   10  C   UNL     1     -45.181 -52.392  13.202  1.00  0.00     0.082 C 
HETATM   11  C   UNL     1     -46.422 -51.618  12.691  1.00  0.00     0.025 C 
HETATM   12  C   UNL     1     -46.797 -51.380  14.166  1.00  0.00     0.004 C 
HETATM   13  C   UNL     1     -45.303 -51.562  14.505  1.00  0.00     0.025 C 
ENDBRANCH   8  10
ENDBRANCH   7   8
BRANCH   1  14
HETATM   14  O   UNL     1     -41.650 -50.429  12.113  1.00  0.00    -0.332 OA
BRANCH  14  15
HETATM   15  C   UNL     1     -40.633 -49.938  11.239  1.00  0.00     0.203 C 
BRANCH  15  16
HETATM   16  C   UNL     1     -39.869 -48.872  12.021  1.00  0.00     0.193 C 
BRANCH  16  17
HETATM   17  O   UNL     1     -38.664 -49.389  12.580  1.00  0.00    -0.394 OA
HETATM   18  C   UNL     1     -37.778 -49.816  11.553  1.00  0.00     0.201 C 
ENDBRANCH  16  17
ENDBRANCH  15  16
ENDBRANCH  14  15
ENDBRANCH   1  14
TORSDOF 6
ENDMDL
MODEL 5
REMARK VINA RESULT:      -4.6      2.341      2.973
REMARK  6 active torsions:
REMARK  status: ('A' for Active; 'I' for Inactive)
REMARK    1  A    between atoms: O_2  and  C_3 
REMARK    2  A    between atoms: C_3  and  C_4 
REMARK    3  A    between atoms: C_4  and  O_5 
REMARK    4  A    between atoms: O_5  and  C_6 
REMARK    5  A    between atoms: C_12  and  N_13 
REMARK    6  A    between atoms: N_13  and  C_14 
ROOT
HETATM    1  C   UNL     1     -42.495 -53.141  13.602  1.00  0.00     0.169 A 
HETATM    2  N   UNL     1     -41.559 -53.549  14.496  1.00  0.00    -0.345 N 
ATOM      3  HN  UNL     1     -40.659 -53.077  14.576  1.00  0.00     0.167 HD
HETATM    4  C   UNL     1     -41.872 -54.604  15.275  1.00  0.00     0.090 A 
HETATM    5  C   UNL     1     -43.076 -55.277  15.210  1.00  0.00     0.019 A 
HETATM    6  C   UNL     1     -44.018 -54.848  14.279  1.00  0.00     0.035 A 
HETATM    7  C   UNL     1     -43.742 -53.771  13.424  1.00  0.00     0.080 A 
ENDROOT
BRANCH   7   8
HETATM    8  N   UNL     1     -44.767 -53.366  12.528  1.00  0.00    -0.382 N 
HETATM    9  H   UNL     1     -44.373 -53.110  11.626  1.00  0.00     0.160 HD
BRANCH   8  10
HETATM   10  C   UNL     1     -45.919 -52.574  12.848  1.00  0.00     0.082 C 
HETATM   11  C   UNL     1     -45.516 -51.237  13.522  1.00  0.00     0.025 C 
HETATM   12  C   UNL     1     -46.685 -51.457  14.501  1.00  0.00     0.004 C 
HETATM   13  C   UNL     1     -46.564 -52.966  14.202  1.00  0.00     0.025 C 
ENDBRANCH   8  10
ENDBRANCH   7   8
BRANCH   1  14
HETATM   14  O   UNL     1     -42.250 -51.987  12.892  1.00  0.00    -0.332 OA
BRANCH  14  15
HETATM   15  C   UNL     1     -41.262 -52.084  11.865  1.00  0.00     0.203 C 
BRANCH  15  16
HETATM   16  C   UNL     1     -40.081 -51.230  12.321  1.00  0.00     0.193 C 
BRANCH  16  17
HETATM   17  O   UNL     1     -39.136 -51.992  13.068  1.00  0.00    -0.394 OA
HETATM   18  C   UNL     1     -37.961 -51.231  13.315  1.00  0.00     0.201 C 
ENDBRANCH  16  17
ENDBRANCH  15  16
ENDBRANCH  14  15
ENDBRANCH   1  14
TORSDOF 6
ENDMDL
MODEL 6
REMARK VINA RESULT:      -4.4      2.211      3.590
REMARK  6 active torsions:
REMARK  status: ('A' for Active; 'I' for Inactive)
REMARK    1  A    between atoms: O_2  and  C_3 
REMARK    2  A    between atoms: C_3  and  C_4 
REMARK    3  A    between atoms: C_4  and  O_5 
REMARK    4  A    between atoms: O_5  and  C_6 
REMARK    5  A    between atoms: C_12  and  N_13 
REMARK    6  A    between atoms: N_13  and  C_14 
ROOT
HETATM    1  C   UNL     1     -39.821 -49.838  11.476  1.00  0.00     0.169 A 
HETATM    2  N   UNL     1     -38.619 -49.380  11.044  1.00  0.00    -0.345 N 
ATOM      3  HN  UNL     1     -38.549 -48.689  10.298  1.00  0.00     0.167 HD
HETATM    4  C   UNL     1     -37.519 -49.878  11.646  1.00  0.00     0.090 A 
HETATM    5  C   UNL     1     -37.557 -50.813  12.661  1.00  0.00     0.019 A 
HETATM    6  C   UNL     1     -38.800 -51.276  13.082  1.00  0.00     0.035 A 
HETATM    7  C   UNL     1     -39.979 -50.813  12.480  1.00  0.00     0.080 A 
ENDROOT
BRANCH   7   8
HETATM    8  N   UNL     1     -41.211 -51.301  12.989  1.00  0.00    -0.382 N 
HETATM    9  H   UNL     1     -41.184 -51.354  14.005  1.00  0.00     0.160 HD
BRANCH   8  10
HETATM   10  C   UNL     1     -42.015 -52.346  12.425  1.00  0.00     0.082 C 
HETATM   11  C   UNL     1     -43.418 -52.398  13.083  1.00  0.00     0.025 C 
HETATM   12  C   UNL     1     -43.281 -53.933  13.094  1.00  0.00     0.004 C 
HETATM   13  C   UNL     1     -41.751 -53.729  13.072  1.00  0.00     0.025 C 
ENDBRANCH   8  10
ENDBRANCH   7   8
BRANCH   1  14
HETATM   14  O   UNL     1     -40.956 -49.246  10.970  1.00  0.00    -0.332 OA
BRANCH  14  15
HETATM   15  C   UNL     1     -41.419 -48.088  11.667  1.00  0.00     0.203 C 
BRANCH  15  16
HETATM   16  C   UNL     1     -41.156 -46.897  10.749  1.00  0.00     0.193 C 
BRANCH  16  17
HETATM   17  O   UNL     1     -39.837 -46.384  10.915  1.00  0.00    -0.394 OA
HETATM   18  C   UNL     1     -39.722 -45.096  10.326  1.00  0.00     0.201 C 
ENDBRANCH  16  17
ENDBRANCH  15  16
ENDBRANCH  14  15
ENDBRANCH   1  14
TORSDOF 6
ENDMDL
MODEL 7
REMARK VINA RESULT:      -4.4      1.955      4.062
REMARK  6 active torsions:
REMARK  status: ('A' for Active; 'I' for Inactive)
REMARK    1  A    between atoms: O_2  and  C_3 
REMARK    2  A    between atoms: C_3  and  C_4 
REMARK    3  A    between atoms: C_4  and  O_5 
REMARK    4  A    between atoms: O_5  and  C_6 
REMARK    5  A    between atoms: C_12  and  N_13 
REMARK    6  A    between atoms: N_13  and  C_14 
ROOT
HETATM    1  C   UNL     1     -41.886 -50.992  12.890  1.00  0.00     0.169 A 
HETATM    2  N   UNL     1     -40.653 -50.469  13.108  1.00  0.00    -0.345 N 
ATOM      3  HN  UNL     1     -39.812 -51.039  13.027  1.00  0.00     0.167 HD
HETATM    4  C   UNL     1     -40.589 -49.162  13.436  1.00  0.00     0.090 A 
HETATM    5  C   UNL     1     -41.696 -48.346  13.557  1.00  0.00     0.019 A 
HETATM    6  C   UNL     1     -42.952 -48.905  13.339  1.00  0.00     0.035 A 
HETATM    7  C   UNL     1     -43.085 -50.264  13.017  1.00  0.00     0.080 A 
ENDROOT
BRANCH   7   8
HETATM    8  N   UNL     1     -44.395 -50.754  12.770  1.00  0.00    -0.382 N 
HETATM    9  H   UNL     1     -44.981 -50.025  12.372  1.00  0.00     0.160 HD
BRANCH   8  10
HETATM   10  C   UNL     1     -45.147 -51.642  13.609  1.00  0.00     0.082 C 
HETATM   11  C   UNL     1     -46.669 -51.517  13.341  1.00  0.00     0.025 C 
HETATM   12  C   UNL     1     -46.873 -51.579  14.867  1.00  0.00     0.004 C 
HETATM   13  C   UNL     1     -45.430 -51.052  15.014  1.00  0.00     0.025 C 
ENDBRANCH   8  10
ENDBRANCH   7   8
BRANCH   1  14
HETATM   14  O   UNL     1     -41.966 -52.285  12.425  1.00  0.00    -0.332 OA
BRANCH  14  15
HETATM   15  C   UNL     1     -41.869 -53.311  13.415  1.00  0.00     0.203 C 
BRANCH  15  16
HETATM   16  C   UNL     1     -40.627 -54.128  13.070  1.00  0.00     0.193 C 
BRANCH  16  17
HETATM   17  O   UNL     1     -39.428 -53.407  13.342  1.00  0.00    -0.394 OA
HETATM   18  C   UNL     1     -39.156 -53.393  14.737  1.00  0.00     0.201 C 
ENDBRANCH  16  17
ENDBRANCH  15  16
ENDBRANCH  14  15
ENDBRANCH   1  14
TORSDOF 6
ENDMDL
MODEL 8
REMARK VINA RESULT:      -4.4      2.436      4.591
REMARK  6 active torsions:
REMARK  status: ('A' for Active; 'I' for Inactive)
REMARK    1  A    between atoms: O_2  and  C_3 
REMARK    2  A    between atoms: C_3  and  C_4 
REMARK    3  A    between atoms: C_4  and  O_5 
REMARK    4  A    between atoms: O_5  and  C_6 
REMARK    5  A    between atoms: C_12  and  N_13 
REMARK    6  A    between atoms: N_13  and  C_14 
ROOT
HETATM    1  C   UNL     1     -42.237 -52.875  12.515  1.00  0.00     0.169 A 
HETATM    2  N   UNL     1     -43.464 -52.961  11.942  1.00  0.00    -0.345 N 
ATOM      3  HN  UNL     1     -43.684 -52.462  11.080  1.00  0.00     0.167 HD
HETATM    4  C   UNL     1     -44.379 -53.733  12.561  1.00  0.00     0.090 A 
HETATM    5  C   UNL     1     -44.133 -54.429  13.728  1.00  0.00     0.019 A 
HETATM    6  C   UNL     1     -42.871 -54.320  14.304  1.00  0.00     0.035 A 
HETATM    7  C   UNL     1     -41.884 -53.513  13.719  1.00  0.00     0.080 A 
ENDROOT
BRANCH   7   8
HETATM    8  N   UNL     1     -40.608 -53.482  14.343  1.00  0.00    -0.382 N 
HETATM    9  H   UNL     1     -40.071 -54.313  14.103  1.00  0.00     0.160 HD
BRANCH   8  10
HETATM   10  C   UNL     1     -40.317 -53.027  15.671  1.00  0.00     0.082 C 
HETATM   11  C   UNL     1     -40.378 -51.481  15.764  1.00  0.00     0.025 C 
HETATM   12  C   UNL     1     -39.105 -51.550  16.629  1.00  0.00     0.004 C 
HETATM   13  C   UNL     1     -38.797 -52.900  15.947  1.00  0.00     0.025 C 
ENDBRANCH   8  10
ENDBRANCH   7   8
BRANCH   1  14
HETATM   14  O   UNL     1     -41.250 -52.202  11.830  1.00  0.00    -0.332 OA
BRANCH  14  15
HETATM   15  C   UNL     1     -41.191 -50.791  12.049  1.00  0.00     0.203 C 
BRANCH  15  16
HETATM   16  C   UNL     1     -39.710 -50.425  12.111  1.00  0.00     0.193 C 
BRANCH  16  17
HETATM   17  O   UNL     1     -38.913 -51.524  12.546  1.00  0.00    -0.394 OA
HETATM   18  C   UNL     1     -37.638 -51.075  12.986  1.00  0.00     0.201 C 
ENDBRANCH  16  17
ENDBRANCH  15  16
ENDBRANCH  14  15
ENDBRANCH   1  14
TORSDOF 6
ENDMDL
MODEL 9
REMARK VINA RESULT:      -4.4      4.094      6.079
REMARK  6 active torsions:
REMARK  status: ('A' for Active; 'I' for Inactive)
REMARK    1  A    between atoms: O_2  and  C_3 
REMARK    2  A    between atoms: C_3  and  C_4 
REMARK    3  A    between atoms: C_4  and  O_5 
REMARK    4  A    between atoms: O_5  and  C_6 
REMARK    5  A    between atoms: C_12  and  N_13 
REMARK    6  A    between atoms: N_13  and  C_14 
ROOT
HETATM    1  C   UNL     1     -43.490 -54.459  15.298  1.00  0.00     0.169 A 
HETATM    2  N   UNL     1     -42.186 -54.551  15.661  1.00  0.00    -0.345 N 
ATOM      3  HN  UNL     1     -41.915 -54.778  16.617  1.00  0.00     0.167 HD
HETATM    4  C   UNL     1     -41.263 -54.327  14.703  1.00  0.00     0.090 A 
HETATM    5  C   UNL     1     -41.576 -54.018  13.394  1.00  0.00     0.019 A 
HETATM    6  C   UNL     1     -42.919 -53.920  13.045  1.00  0.00     0.035 A 
HETATM    7  C   UNL     1     -43.925 -54.118  14.002  1.00  0.00     0.080 A 
ENDROOT
BRANCH   7   8
HETATM    8  N   UNL     1     -45.273 -54.041  13.563  1.00  0.00    -0.382 N 
HETATM    9  H   UNL     1     -45.408 -54.596  12.721  1.00  0.00     0.160 HD
BRANCH   8  10
HETATM   10  C   UNL     1     -46.109 -52.876  13.571  1.00  0.00     0.082 C 
HETATM   11  C   UNL     1     -45.404 -51.680  14.262  1.00  0.00     0.025 C 
HETATM   12  C   UNL     1     -46.749 -51.373  14.949  1.00  0.00     0.004 C 
HETATM   13  C   UNL     1     -47.112 -52.859  14.751  1.00  0.00     0.025 C 
ENDBRANCH   8  10
ENDBRANCH   7   8
BRANCH   1  14
HETATM   14  O   UNL     1     -44.445 -54.813  16.224  1.00  0.00    -0.332 OA
BRANCH  14  15
HETATM   15  C   UNL     1     -44.636 -53.898  17.303  1.00  0.00     0.203 C 
BRANCH  15  16
HETATM   16  C   UNL     1     -45.932 -54.311  17.996  1.00  0.00     0.193 C 
BRANCH  16  17
HETATM   17  O   UNL     1     -45.768 -55.509  18.752  1.00  0.00    -0.394 OA
HETATM   18  C   UNL     1     -46.941 -55.793  19.503  1.00  0.00     0.201 C 
ENDBRANCH  16  17
ENDBRANCH  15  16
ENDBRANCH  14  15
ENDBRANCH   1  14
TORSDOF 6
ENDMDL
