MODEL 1
REMARK VINA RESULT:      -6.4      0.000      0.000
REMARK  3 active torsions:
REMARK  status: ('A' for Active; 'I' for Inactive)
REMARK    1  A    between atoms: C_5  and  N_8 
REMARK    2  A    between atoms: C_11  and  N_14 
REMARK       I    between atoms: N_14  and  C_15 
REMARK       I    between atoms: C_15  and  N_17 
REMARK    3  A    between atoms: N_17  and  C_18 
ROOT
HETATM    1  N   UNL     1     -43.088 -49.776  12.474  1.00  0.00    -0.338 N 
HETATM    2  C   UNL     1     -43.615 -50.747  13.291  1.00  0.00     0.321 C 
HETATM    3  O   UNL     1     -43.155 -51.014  14.393  1.00  0.00    -0.247 OA
HETATM    4  N   UNL     1     -44.662 -51.406  12.678  1.00  0.00    -0.306 N 
HETATM    5  H   UNL     1     -43.772 -49.280  11.920  1.00  0.00     0.164 HD
HETATM    6  H   UNL     1     -44.538 -51.489  11.675  1.00  0.00     0.171 HD
ENDROOT
BRANCH   1   7
HETATM    7  C   UNL     1     -41.901 -49.042  12.908  1.00  0.00     0.089 C 
HETATM    8  C   UNL     1     -42.252 -47.940  13.914  1.00  0.00     0.055 C 
HETATM    9  C   UNL     1     -42.887 -46.736  13.219  1.00  0.00     0.275 C 
HETATM   10  N   UNL     1     -42.059 -46.185  12.130  1.00  0.00     0.093 N 
HETATM   11  C   UNL     1     -41.834 -47.245  11.130  1.00  0.00     0.275 C 
HETATM   12  C   UNL     1     -41.144 -48.483  11.702  1.00  0.00     0.055 C 
BRANCH  10  13
HETATM   13  C   UNL     1     -40.816 -45.509  12.600  1.00  0.00     0.226 C 
HETATM   14  C   UNL     1     -41.072 -44.505  13.748  1.00  0.00     0.066 C 
HETATM   15  C   UNL     1     -41.850 -43.276  13.269  1.00  0.00     0.274 C 
HETATM   16  N   UNL     1     -41.205 -42.564  12.155  1.00  0.00     0.084 N 
HETATM   17  C   UNL     1     -40.029 -41.812  12.585  1.00  0.00     0.309 C 
HETATM   18  C   UNL     1     -40.902 -43.489  11.053  1.00  0.00     0.274 C 
HETATM   19  C   UNL     1     -40.093 -44.713  11.491  1.00  0.00     0.066 C 
ENDBRANCH  10  13
ENDBRANCH   1   7
BRANCH   4  20
HETATM   20  C   UNL     1     -45.245 -52.527  13.311  1.00  0.00     0.077 A 
HETATM   21  C   UNL     1     -44.741 -53.813  13.131  1.00  0.00     0.050 A 
HETATM   22  C   UNL     1     -45.434 -54.871  13.694  1.00  0.00     0.090 A 
HETATM   23  N   UNL     1     -46.573 -54.728  14.410  1.00  0.00    -0.372 N 
HETATM   24  C   UNL     1     -47.025 -53.464  14.585  1.00  0.00     0.132 A 
ATOM     25  HN  UNL     1     -47.066 -55.532  14.799  1.00  0.00     0.164 HD
HETATM   26  C   UNL     1     -46.385 -52.346  14.085  1.00  0.00     0.158 A 
HETATM   27  F   UNL     1     -46.898 -51.121  14.271  1.00  0.00    -0.202 F 
ENDBRANCH   4  20
TORSDOF 3
ENDMDL
MODEL 2
REMARK VINA RESULT:      -5.7      4.511      8.450
REMARK  3 active torsions:
REMARK  status: ('A' for Active; 'I' for Inactive)
REMARK    1  A    between atoms: C_5  and  N_8 
REMARK    2  A    between atoms: C_11  and  N_14 
REMARK       I    between atoms: N_14  and  C_15 
REMARK       I    between atoms: C_15  and  N_17 
REMARK    3  A    between atoms: N_17  and  C_18 
ROOT
HETATM    1  N   UNL     1     -41.965 -50.571  11.977  1.00  0.00    -0.338 N 
HETATM    2  C   UNL     1     -42.591 -49.358  11.819  1.00  0.00     0.321 C 
HETATM    3  O   UNL     1     -43.472 -48.958  12.568  1.00  0.00    -0.247 OA
HETATM    4  N   UNL     1     -42.148 -48.708  10.684  1.00  0.00    -0.306 N 
HETATM    5  H   UNL     1     -40.989 -50.574  11.714  1.00  0.00     0.164 HD
HETATM    6  H   UNL     1     -41.913 -49.348   9.933  1.00  0.00     0.171 HD
ENDROOT
BRANCH   1   7
HETATM    7  C   UNL     1     -42.380 -51.454  13.066  1.00  0.00     0.089 C 
HETATM    8  C   UNL     1     -41.854 -50.969  14.422  1.00  0.00     0.055 C 
HETATM    9  C   UNL     1     -40.366 -51.278  14.581  1.00  0.00     0.275 C 
HETATM   10  N   UNL     1     -40.039 -52.703  14.388  1.00  0.00     0.093 N 
HETATM   11  C   UNL     1     -40.463 -53.103  13.035  1.00  0.00     0.275 C 
HETATM   12  C   UNL     1     -41.956 -52.895  12.779  1.00  0.00     0.055 C 
BRANCH  10  13
HETATM   13  C   UNL     1     -40.543 -53.589  15.477  1.00  0.00     0.226 C 
HETATM   14  C   UNL     1     -40.084 -53.138  16.883  1.00  0.00     0.066 C 
HETATM   15  C   UNL     1     -38.579 -53.337  17.085  1.00  0.00     0.274 C 
HETATM   16  N   UNL     1     -38.130 -54.721  16.864  1.00  0.00     0.084 N 
HETATM   17  C   UNL     1     -38.525 -55.612  17.952  1.00  0.00     0.309 C 
HETATM   18  C   UNL     1     -38.581 -55.210  15.553  1.00  0.00     0.274 C 
HETATM   19  C   UNL     1     -40.088 -55.059  15.332  1.00  0.00     0.066 C 
ENDBRANCH  10  13
ENDBRANCH   1   7
BRANCH   4  20
HETATM   20  C   UNL     1     -42.773 -47.506  10.282  1.00  0.00     0.077 A 
HETATM   21  C   UNL     1     -43.847 -47.501   9.394  1.00  0.00     0.050 A 
HETATM   22  C   UNL     1     -44.332 -46.279   8.962  1.00  0.00     0.090 A 
HETATM   23  N   UNL     1     -43.823 -45.087   9.351  1.00  0.00    -0.372 N 
HETATM   24  C   UNL     1     -42.794 -45.126  10.230  1.00  0.00     0.132 A 
ATOM     25  HN  UNL     1     -44.196 -44.205   9.001  1.00  0.00     0.164 HD
HETATM   26  C   UNL     1     -42.263 -46.296  10.738  1.00  0.00     0.158 A 
HETATM   27  F   UNL     1     -41.226 -46.268  11.587  1.00  0.00    -0.202 F 
ENDBRANCH   4  20
TORSDOF 3
ENDMDL
MODEL 3
REMARK VINA RESULT:      -5.6      5.470      9.711
REMARK  3 active torsions:
REMARK  status: ('A' for Active; 'I' for Inactive)
REMARK    1  A    between atoms: C_5  and  N_8 
REMARK    2  A    between atoms: C_11  and  N_14 
REMARK       I    between atoms: N_14  and  C_15 
REMARK       I    between atoms: C_15  and  N_17 
REMARK    3  A    between atoms: N_17  and  C_18 
ROOT
HETATM    1  N   UNL     1     -41.214 -51.857  13.880  1.00  0.00    -0.338 N 
HETATM    2  C   UNL     1     -41.121 -50.997  12.813  1.00  0.00     0.321 C 
HETATM    3  O   UNL     1     -40.648 -51.323  11.733  1.00  0.00    -0.247 OA
HETATM    4  N   UNL     1     -41.556 -49.730  13.149  1.00  0.00    -0.306 N 
HETATM    5  H   UNL     1     -42.030 -51.715  14.460  1.00  0.00     0.164 HD
HETATM    6  H   UNL     1     -41.355 -49.490  14.113  1.00  0.00     0.171 HD
ENDROOT
BRANCH   1   7
HETATM    7  C   UNL     1     -40.701 -53.219  13.750  1.00  0.00     0.089 C 
HETATM    8  C   UNL     1     -41.581 -54.232  14.491  1.00  0.00     0.055 C 
HETATM    9  C   UNL     1     -41.352 -54.164  16.000  1.00  0.00     0.275 C 
HETATM   10  N   UNL     1     -39.940 -54.339  16.387  1.00  0.00     0.093 N 
HETATM   11  C   UNL     1     -39.142 -53.283  15.740  1.00  0.00     0.275 C 
HETATM   12  C   UNL     1     -39.245 -53.290  14.215  1.00  0.00     0.055 C 
BRANCH  10  13
HETATM   13  C   UNL     1     -39.422 -55.721  16.170  1.00  0.00     0.226 C 
HETATM   14  C   UNL     1     -40.213 -56.793  16.956  1.00  0.00     0.066 C 
HETATM   15  C   UNL     1     -39.981 -56.681  18.465  1.00  0.00     0.274 C 
HETATM   16  N   UNL     1     -38.565 -56.761  18.854  1.00  0.00     0.084 N 
HETATM   17  C   UNL     1     -38.035 -58.118  18.742  1.00  0.00     0.309 C 
HETATM   18  C   UNL     1     -37.763 -55.788  18.099  1.00  0.00     0.274 C 
HETATM   19  C   UNL     1     -37.943 -55.894  16.583  1.00  0.00     0.066 C 
ENDBRANCH  10  13
ENDBRANCH   1   7
BRANCH   4  20
HETATM   20  C   UNL     1     -41.410 -48.675  12.219  1.00  0.00     0.077 A 
HETATM   21  C   UNL     1     -42.367 -48.430  11.236  1.00  0.00     0.050 A 
HETATM   22  C   UNL     1     -42.099 -47.451  10.294  1.00  0.00     0.090 A 
HETATM   23  N   UNL     1     -40.962 -46.720  10.272  1.00  0.00    -0.372 N 
HETATM   24  C   UNL     1     -40.061 -46.968  11.252  1.00  0.00     0.132 A 
ATOM     25  HN  UNL     1     -40.791 -46.016   9.553  1.00  0.00     0.164 HD
HETATM   26  C   UNL     1     -40.255 -47.904  12.250  1.00  0.00     0.158 A 
HETATM   27  F   UNL     1     -39.312 -48.122  13.179  1.00  0.00    -0.202 F 
ENDBRANCH   4  20
TORSDOF 3
ENDMDL
MODEL 4
REMARK VINA RESULT:      -5.5      4.048      9.108
REMARK  3 active torsions:
REMARK  status: ('A' for Active; 'I' for Inactive)
REMARK    1  A    between atoms: C_5  and  N_8 
REMARK    2  A    between atoms: C_11  and  N_14 
REMARK       I    between atoms: N_14  and  C_15 
REMARK       I    between atoms: C_15  and  N_17 
REMARK    3  A    between atoms: N_17  and  C_18 
ROOT
HETATM    1  N   UNL     1     -42.410 -51.480  12.507  1.00  0.00    -0.338 N 
HETATM    2  C   UNL     1     -42.384 -50.112  12.382  1.00  0.00     0.321 C 
HETATM    3  O   UNL     1     -42.944 -49.359  13.168  1.00  0.00    -0.247 OA
HETATM    4  N   UNL     1     -41.719 -49.724  11.236  1.00  0.00    -0.306 N 
HETATM    5  H   UNL     1     -41.563 -51.942  12.206  1.00  0.00     0.164 HD
HETATM    6  H   UNL     1     -41.841 -50.379  10.472  1.00  0.00     0.171 HD
ENDROOT
BRANCH   1   7
HETATM    7  C   UNL     1     -43.163 -52.085  13.604  1.00  0.00     0.089 C 
HETATM    8  C   UNL     1     -42.590 -51.693  14.970  1.00  0.00     0.055 C 
HETATM    9  C   UNL     1     -41.304 -52.462  15.273  1.00  0.00     0.275 C 
HETATM   10  N   UNL     1     -41.463 -53.925  15.189  1.00  0.00     0.093 N 
HETATM   11  C   UNL     1     -41.913 -54.271  13.828  1.00  0.00     0.275 C 
HETATM   12  C   UNL     1     -43.230 -53.603  13.435  1.00  0.00     0.055 C 
BRANCH  10  13
HETATM   13  C   UNL     1     -42.302 -54.504  16.279  1.00  0.00     0.226 C 
HETATM   14  C   UNL     1     -41.903 -53.993  17.683  1.00  0.00     0.066 C 
HETATM   15  C   UNL     1     -40.535 -54.527  18.118  1.00  0.00     0.274 C 
HETATM   16  N   UNL     1     -40.442 -55.995  18.107  1.00  0.00     0.084 N 
HETATM   17  C   UNL     1     -41.177 -56.605  19.213  1.00  0.00     0.309 C 
HETATM   18  C   UNL     1     -40.855 -56.532  16.802  1.00  0.00     0.274 C 
HETATM   19  C   UNL     1     -42.235 -56.046  16.351  1.00  0.00     0.066 C 
ENDBRANCH  10  13
ENDBRANCH   1   7
BRANCH   4  20
HETATM   20  C   UNL     1     -41.705 -48.360  10.867  1.00  0.00     0.077 A 
HETATM   21  C   UNL     1     -42.716 -47.802  10.087  1.00  0.00     0.050 A 
HETATM   22  C   UNL     1     -42.574 -46.488   9.675  1.00  0.00     0.090 A 
HETATM   23  N   UNL     1     -41.510 -45.714   9.985  1.00  0.00    -0.372 N 
HETATM   24  C   UNL     1     -40.554 -46.278  10.761  1.00  0.00     0.132 A 
ATOM     25  HN  UNL     1     -41.430 -44.753   9.652  1.00  0.00     0.164 HD
HETATM   26  C   UNL     1     -40.624 -47.571  11.243  1.00  0.00     0.158 A 
HETATM   27  F   UNL     1     -39.631 -48.081  11.987  1.00  0.00    -0.202 F 
ENDBRANCH   4  20
TORSDOF 3
ENDMDL
MODEL 5
REMARK VINA RESULT:      -5.5      4.050      9.148
REMARK  3 active torsions:
REMARK  status: ('A' for Active; 'I' for Inactive)
REMARK    1  A    between atoms: C_5  and  N_8 
REMARK    2  A    between atoms: C_11  and  N_14 
REMARK       I    between atoms: N_14  and  C_15 
REMARK       I    between atoms: C_15  and  N_17 
REMARK    3  A    between atoms: N_17  and  C_18 
ROOT
HETATM    1  N   UNL     1     -41.542 -46.591  12.031  1.00  0.00    -0.338 N 
HETATM    2  C   UNL     1     -41.283 -45.327  11.558  1.00  0.00     0.321 C 
HETATM    3  O   UNL     1     -40.510 -45.105  10.635  1.00  0.00    -0.247 OA
HETATM    4  N   UNL     1     -41.942 -44.368  12.301  1.00  0.00    -0.306 N 
HETATM    5  H   UNL     1     -42.491 -46.730  12.350  1.00  0.00     0.164 HD
HETATM    6  H   UNL     1     -42.027 -44.620  13.279  1.00  0.00     0.171 HD
ENDROOT
BRANCH   1   7
HETATM    7  C   UNL     1     -40.848 -47.733  11.439  1.00  0.00     0.089 C 
HETATM    8  C   UNL     1     -41.770 -48.951  11.306  1.00  0.00     0.055 C 
HETATM    9  C   UNL     1     -41.986 -49.632  12.657  1.00  0.00     0.275 C 
HETATM   10  N   UNL     1     -40.730 -50.016  13.327  1.00  0.00     0.093 N 
HETATM   11  C   UNL     1     -39.918 -48.803  13.533  1.00  0.00     0.275 C 
HETATM   12  C   UNL     1     -39.586 -48.066  12.236  1.00  0.00     0.055 C 
BRANCH  10  13
HETATM   13  C   UNL     1     -40.005 -51.133  12.655  1.00  0.00     0.226 C 
HETATM   14  C   UNL     1     -40.867 -52.409  12.507  1.00  0.00     0.066 C 
HETATM   15  C   UNL     1     -41.141 -53.074  13.858  1.00  0.00     0.274 C 
HETATM   16  N   UNL     1     -39.922 -53.415  14.608  1.00  0.00     0.084 N 
HETATM   17  C   UNL     1     -39.222 -54.563  14.037  1.00  0.00     0.309 C 
HETATM   18  C   UNL     1     -39.047 -52.240  14.738  1.00  0.00     0.274 C 
HETATM   19  C   UNL     1     -38.724 -51.569  13.400  1.00  0.00     0.066 C 
ENDBRANCH  10  13
ENDBRANCH   1   7
BRANCH   4  20
HETATM   20  C   UNL     1     -41.692 -42.999  12.049  1.00  0.00     0.077 A 
HETATM   21  C   UNL     1     -42.475 -42.265  11.161  1.00  0.00     0.050 A 
HETATM   22  C   UNL     1     -42.099 -40.962  10.882  1.00  0.00     0.090 A 
HETATM   23  N   UNL     1     -41.014 -40.360  11.422  1.00  0.00    -0.372 N 
HETATM   24  C   UNL     1     -40.286 -41.094  12.297  1.00  0.00     0.132 A 
ATOM     25  HN  UNL     1     -40.758 -39.402  11.183  1.00  0.00     0.164 HD
HETATM   26  C   UNL     1     -40.601 -42.390  12.657  1.00  0.00     0.158 A 
HETATM   27  F   UNL     1     -39.824 -43.073  13.511  1.00  0.00    -0.202 F 
ENDBRANCH   4  20
TORSDOF 3
ENDMDL
MODEL 6
REMARK VINA RESULT:      -5.4      7.524     11.573
REMARK  3 active torsions:
REMARK  status: ('A' for Active; 'I' for Inactive)
REMARK    1  A    between atoms: C_5  and  N_8 
REMARK    2  A    between atoms: C_11  and  N_14 
REMARK       I    between atoms: N_14  and  C_15 
REMARK       I    between atoms: C_15  and  N_17 
REMARK    3  A    between atoms: N_17  and  C_18 
ROOT
HETATM    1  N   UNL     1     -39.307 -53.807  15.595  1.00  0.00    -0.338 N 
HETATM    2  C   UNL     1     -39.379 -53.219  14.356  1.00  0.00     0.321 C 
HETATM    3  O   UNL     1     -39.423 -53.860  13.314  1.00  0.00    -0.247 OA
HETATM    4  N   UNL     1     -39.321 -51.843  14.448  1.00  0.00    -0.306 N 
HETATM    5  H   UNL     1     -39.797 -53.306  16.324  1.00  0.00     0.164 HD
HETATM    6  H   UNL     1     -38.735 -51.526  15.213  1.00  0.00     0.171 HD
ENDROOT
BRANCH   1   7
HETATM    7  C   UNL     1     -39.246 -55.264  15.695  1.00  0.00     0.089 C 
HETATM    8  C   UNL     1     -40.378 -55.822  16.565  1.00  0.00     0.055 C 
HETATM    9  C   UNL     1     -40.099 -55.591  18.050  1.00  0.00     0.275 C 
HETATM   10  N   UNL     1     -38.802 -56.134  18.494  1.00  0.00     0.093 N 
HETATM   11  C   UNL     1     -37.732 -55.494  17.707  1.00  0.00     0.275 C 
HETATM   12  C   UNL     1     -37.874 -55.710  16.200  1.00  0.00     0.055 C 
BRANCH  10  13
HETATM   13  C   UNL     1     -38.745 -57.624  18.510  1.00  0.00     0.226 C 
HETATM   14  C   UNL     1     -39.827 -58.259  19.415  1.00  0.00     0.066 C 
HETATM   15  C   UNL     1     -39.561 -57.989  20.899  1.00  0.00     0.274 C 
HETATM   16  N   UNL     1     -38.238 -58.444  21.355  1.00  0.00     0.084 N 
HETATM   17  C   UNL     1     -38.162 -59.898  21.473  1.00  0.00     0.309 C 
HETATM   18  C   UNL     1     -37.177 -57.899  20.496  1.00  0.00     0.274 C 
HETATM   19  C   UNL     1     -37.392 -58.182  19.007  1.00  0.00     0.066 C 
ENDBRANCH  10  13
ENDBRANCH   1   7
BRANCH   4  20
HETATM   20  C   UNL     1     -39.246 -51.069  13.267  1.00  0.00     0.077 A 
HETATM   21  C   UNL     1     -40.390 -50.702  12.560  1.00  0.00     0.050 A 
HETATM   22  C   UNL     1     -40.228 -50.040  11.355  1.00  0.00     0.090 A 
HETATM   23  N   UNL     1     -39.023 -49.729  10.824  1.00  0.00    -0.372 N 
HETATM   24  C   UNL     1     -37.933 -50.081  11.545  1.00  0.00     0.132 A 
ATOM     25  HN  UNL     1     -38.941 -49.253   9.925  1.00  0.00     0.164 HD
HETATM   26  C   UNL     1     -37.998 -50.717  12.770  1.00  0.00     0.158 A 
HETATM   27  F   UNL     1     -36.879 -51.062  13.424  1.00  0.00    -0.202 F 
ENDBRANCH   4  20
TORSDOF 3
ENDMDL
MODEL 7
REMARK VINA RESULT:      -5.4     15.848     18.325
REMARK  3 active torsions:
REMARK  status: ('A' for Active; 'I' for Inactive)
REMARK    1  A    between atoms: C_5  and  N_8 
REMARK    2  A    between atoms: C_11  and  N_14 
REMARK       I    between atoms: N_14  and  C_15 
REMARK       I    between atoms: C_15  and  N_17 
REMARK    3  A    between atoms: N_17  and  C_18 
ROOT
HETATM    1  N   UNL     1     -50.767 -51.014  -0.831  1.00  0.00    -0.338 N 
HETATM    2  C   UNL     1     -50.498 -50.104   0.163  1.00  0.00     0.321 C 
HETATM    3  O   UNL     1     -50.053 -50.424   1.257  1.00  0.00    -0.247 OA
HETATM    4  N   UNL     1     -50.861 -48.826  -0.213  1.00  0.00    -0.306 N 
HETATM    5  H   UNL     1     -50.598 -50.671  -1.767  1.00  0.00     0.164 HD
HETATM    6  H   UNL     1     -51.677 -48.812  -0.814  1.00  0.00     0.171 HD
ENDROOT
BRANCH   1   7
HETATM    7  C   UNL     1     -50.550 -52.437  -0.578  1.00  0.00     0.089 C 
HETATM    8  C   UNL     1     -49.227 -52.925  -1.178  1.00  0.00     0.055 C 
HETATM    9  C   UNL     1     -49.333 -53.091  -2.693  1.00  0.00     0.275 C 
HETATM   10  N   UNL     1     -50.438 -53.975  -3.110  1.00  0.00     0.093 N 
HETATM   11  C   UNL     1     -51.704 -53.415  -2.605  1.00  0.00     0.275 C 
HETATM   12  C   UNL     1     -51.736 -53.259  -1.085  1.00  0.00     0.055 C 
BRANCH  10  13
HETATM   13  C   UNL     1     -50.222 -55.411  -2.768  1.00  0.00     0.226 C 
HETATM   14  C   UNL     1     -48.826 -55.928  -3.188  1.00  0.00     0.066 C 
HETATM   15  C   UNL     1     -48.683 -56.016  -4.710  1.00  0.00     0.274 C 
HETATM   16  N   UNL     1     -49.708 -56.853  -5.353  1.00  0.00     0.084 N 
HETATM   17  C   UNL     1     -49.488 -58.278  -5.120  1.00  0.00     0.309 C 
HETATM   18  C   UNL     1     -51.056 -56.425  -4.949  1.00  0.00     0.274 C 
HETATM   19  C   UNL     1     -51.245 -56.360  -3.431  1.00  0.00     0.066 C 
ENDBRANCH  10  13
ENDBRANCH   1   7
BRANCH   4  20
HETATM   20  C   UNL     1     -50.783 -47.775   0.729  1.00  0.00     0.077 A 
HETATM   21  C   UNL     1     -51.908 -47.327   1.419  1.00  0.00     0.050 A 
HETATM   22  C   UNL     1     -51.772 -46.222   2.241  1.00  0.00     0.090 A 
HETATM   23  N   UNL     1     -50.611 -45.550   2.412  1.00  0.00    -0.372 N 
HETATM   24  C   UNL     1     -49.533 -46.022   1.743  1.00  0.00     0.132 A 
ATOM     25  HN  UNL     1     -50.550 -44.728   3.014  1.00  0.00     0.164 HD
HETATM   26  C   UNL     1     -49.566 -47.135   0.925  1.00  0.00     0.158 A 
HETATM   27  F   UNL     1     -48.467 -47.538   0.269  1.00  0.00    -0.202 F 
ENDBRANCH   4  20
TORSDOF 3
ENDMDL
MODEL 8
REMARK VINA RESULT:      -5.4      4.758      5.539
REMARK  3 active torsions:
REMARK  status: ('A' for Active; 'I' for Inactive)
REMARK    1  A    between atoms: C_5  and  N_8 
REMARK    2  A    between atoms: C_11  and  N_14 
REMARK       I    between atoms: N_14  and  C_15 
REMARK       I    between atoms: C_15  and  N_17 
REMARK    3  A    between atoms: N_17  and  C_18 
ROOT
HETATM    1  N   UNL     1     -38.995 -51.853  14.188  1.00  0.00    -0.338 N 
HETATM    2  C   UNL     1     -39.265 -53.182  14.408  1.00  0.00     0.321 C 
HETATM    3  O   UNL     1     -39.576 -53.957  13.514  1.00  0.00    -0.247 OA
HETATM    4  N   UNL     1     -39.210 -53.489  15.753  1.00  0.00    -0.306 N 
HETATM    5  H   UNL     1     -38.278 -51.467  14.788  1.00  0.00     0.164 HD
HETATM    6  H   UNL     1     -39.517 -52.724  16.343  1.00  0.00     0.171 HD
ENDROOT
BRANCH   1   7
HETATM    7  C   UNL     1     -39.110 -51.313  12.834  1.00  0.00     0.089 C 
HETATM    8  C   UNL     1     -38.395 -49.965  12.697  1.00  0.00     0.055 C 
HETATM    9  C   UNL     1     -39.205 -48.840  13.341  1.00  0.00     0.275 C 
HETATM   10  N   UNL     1     -40.582 -48.740  12.823  1.00  0.00     0.093 N 
HETATM   11  C   UNL     1     -41.270 -50.019  13.070  1.00  0.00     0.275 C 
HETATM   12  C   UNL     1     -40.579 -51.217  12.419  1.00  0.00     0.055 C 
BRANCH  10  13
HETATM   13  C   UNL     1     -40.663 -48.260  11.413  1.00  0.00     0.226 C 
HETATM   14  C   UNL     1     -40.224 -46.786  11.251  1.00  0.00     0.066 C 
HETATM   15  C   UNL     1     -41.222 -45.819  11.894  1.00  0.00     0.274 C 
HETATM   16  N   UNL     1     -42.595 -45.960  11.386  1.00  0.00     0.084 N 
HETATM   17  C   UNL     1     -42.745 -45.422  10.036  1.00  0.00     0.309 C 
HETATM   18  C   UNL     1     -43.043 -47.358  11.480  1.00  0.00     0.274 C 
HETATM   19  C   UNL     1     -42.085 -48.350  10.815  1.00  0.00     0.066 C 
ENDBRANCH  10  13
ENDBRANCH   1   7
BRANCH   4  20
HETATM   20  C   UNL     1     -39.591 -54.779  16.188  1.00  0.00     0.077 A 
HETATM   21  C   UNL     1     -40.929 -55.134  16.341  1.00  0.00     0.050 A 
HETATM   22  C   UNL     1     -41.219 -56.377  16.877  1.00  0.00     0.090 A 
HETATM   23  N   UNL     1     -40.276 -57.268  17.262  1.00  0.00    -0.372 N 
HETATM   24  C   UNL     1     -38.985 -56.901  17.082  1.00  0.00     0.132 A 
ATOM     25  HN  UNL     1     -40.525 -58.170  17.668  1.00  0.00     0.164 HD
HETATM   26  C   UNL     1     -38.602 -55.695  16.528  1.00  0.00     0.158 A 
HETATM   27  F   UNL     1     -37.305 -55.380  16.398  1.00  0.00    -0.202 F 
ENDBRANCH   4  20
TORSDOF 3
ENDMDL
MODEL 9
REMARK VINA RESULT:      -5.3      5.155      7.508
REMARK  3 active torsions:
REMARK  status: ('A' for Active; 'I' for Inactive)
REMARK    1  A    between atoms: C_5  and  N_8 
REMARK    2  A    between atoms: C_11  and  N_14 
REMARK       I    between atoms: N_14  and  C_15 
REMARK       I    between atoms: C_15  and  N_17 
REMARK    3  A    between atoms: N_17  and  C_18 
ROOT
HETATM    1  N   UNL     1     -40.542 -47.715  12.748  1.00  0.00    -0.338 N 
HETATM    2  C   UNL     1     -41.616 -47.054  12.204  1.00  0.00     0.321 C 
HETATM    3  O   UNL     1     -42.208 -46.152  12.783  1.00  0.00    -0.247 OA
HETATM    4  N   UNL     1     -41.967 -47.587  10.980  1.00  0.00    -0.306 N 
HETATM    5  H   UNL     1     -39.842 -47.999  12.075  1.00  0.00     0.164 HD
HETATM    6  H   UNL     1     -41.809 -48.587  10.928  1.00  0.00     0.171 HD
ENDROOT
BRANCH   1   7
HETATM    7  C   UNL     1     -40.090 -47.363  14.092  1.00  0.00     0.089 C 
HETATM    8  C   UNL     1     -38.596 -47.021  14.118  1.00  0.00     0.055 C 
HETATM    9  C   UNL     1     -37.737 -48.282  14.032  1.00  0.00     0.275 C 
HETATM   10  N   UNL     1     -38.049 -49.275  15.076  1.00  0.00     0.093 N 
HETATM   11  C   UNL     1     -39.466 -49.659  14.951  1.00  0.00     0.275 C 
HETATM   12  C   UNL     1     -40.430 -48.479  15.082  1.00  0.00     0.055 C 
BRANCH  10  13
HETATM   13  C   UNL     1     -37.646 -48.854  16.449  1.00  0.00     0.226 C 
HETATM   14  C   UNL     1     -36.133 -48.554  16.569  1.00  0.00     0.066 C 
HETATM   15  C   UNL     1     -35.288 -49.826  16.447  1.00  0.00     0.274 C 
HETATM   16  N   UNL     1     -35.641 -50.867  17.423  1.00  0.00     0.084 N 
HETATM   17  C   UNL     1     -35.186 -50.539  18.772  1.00  0.00     0.309 C 
HETATM   18  C   UNL     1     -37.082 -51.156  17.377  1.00  0.00     0.274 C 
HETATM   19  C   UNL     1     -37.958 -49.910  17.532  1.00  0.00     0.066 C 
ENDBRANCH  10  13
ENDBRANCH   1   7
BRANCH   4  20
HETATM   20  C   UNL     1     -43.133 -47.124  10.328  1.00  0.00     0.077 A 
HETATM   21  C   UNL     1     -44.325 -47.845  10.361  1.00  0.00     0.050 A 
HETATM   22  C   UNL     1     -45.390 -47.383   9.607  1.00  0.00     0.090 A 
HETATM   23  N   UNL     1     -45.340 -46.271   8.838  1.00  0.00    -0.372 N 
HETATM   24  C   UNL     1     -44.175 -45.582   8.843  1.00  0.00     0.132 A 
ATOM     25  HN  UNL     1     -46.140 -45.967   8.282  1.00  0.00     0.164 HD
HETATM   26  C   UNL     1     -43.070 -45.950   9.587  1.00  0.00     0.158 A 
HETATM   27  F   UNL     1     -41.935 -45.238   9.529  1.00  0.00    -0.202 F 
ENDBRANCH   4  20
TORSDOF 3
ENDMDL
