MODEL 1
REMARK VINA RESULT:      -5.7      0.000      0.000
REMARK  3 active torsions:
REMARK  status: ('A' for Active; 'I' for Inactive)
REMARK    1  A    between atoms: O_2  and  C_3 
REMARK    2  A    between atoms: C_8  and  N_9 
REMARK       I    between atoms: N_9  and  C_10 
REMARK    3  A    between atoms: C_10  and  C_12 
ROOT
HETATM    1  N   UNL     1     -41.436 -49.310  10.580  1.00  0.00    -0.311 N 
HETATM    2  C   UNL     1     -41.793 -47.995  10.358  1.00  0.00     0.252 C 
HETATM    3  O   UNL     1     -41.164 -46.991  10.702  1.00  0.00    -0.270 OA
HETATM    4  H   UNL     1     -42.084 -50.024  10.264  1.00  0.00     0.170 HD
ENDROOT
BRANCH   1   5
HETATM    5  C   UNL     1     -40.252 -49.697  11.233  1.00  0.00     0.110 A 
HETATM    6  N   UNL     1     -39.153 -48.933  11.108  1.00  0.00    -0.352 N 
HETATM    7  C   UNL     1     -38.024 -49.304  11.739  1.00  0.00     0.092 A 
ATOM      8  HN  UNL     1     -39.174 -48.085  10.542  1.00  0.00     0.166 HD
HETATM    9  C   UNL     1     -37.928 -50.426  12.533  1.00  0.00     0.053 A 
HETATM   10  C   UNL     1     -39.068 -51.207  12.680  1.00  0.00     0.073 A 
HETATM   11  C   UNL     1     -40.241 -50.856  12.000  1.00  0.00     0.085 A 
BRANCH  10  12
HETATM   12  O   UNL     1     -39.134 -52.342  13.445  1.00  0.00    -0.356 OA
HETATM   13  C   UNL     1     -40.144 -52.347  14.454  1.00  0.00     0.210 C 
ENDBRANCH  10  12
ENDBRANCH   1   5
BRANCH   2  14
HETATM   14  C   UNL     1     -43.124 -47.798   9.616  1.00  0.00     0.214 C 
HETATM   15  C   UNL     1     -43.108 -46.464   8.875  1.00  0.00     0.044 C 
HETATM   16  C   UNL     1     -44.535 -45.963   8.922  1.00  0.00     0.034 C 
HETATM   17  C   UNL     1     -45.314 -47.100   9.556  1.00  0.00     0.118 C 
HETATM   18  C   UNL     1     -45.951 -48.010   8.505  1.00  0.00     0.039 C 
HETATM   19  O   UNL     1     -44.350 -47.820  10.353  1.00  0.00    -0.372 OA
ENDBRANCH   2  14
TORSDOF 3
ENDMDL
MODEL 2
REMARK VINA RESULT:      -5.7      1.946      6.936
REMARK  3 active torsions:
REMARK  status: ('A' for Active; 'I' for Inactive)
REMARK    1  A    between atoms: O_2  and  C_3 
REMARK    2  A    between atoms: C_8  and  N_9 
REMARK       I    between atoms: N_9  and  C_10 
REMARK    3  A    between atoms: C_10  and  C_12 
ROOT
HETATM    1  N   UNL     1     -40.636 -47.752  11.030  1.00  0.00    -0.311 N 
HETATM    2  C   UNL     1     -40.686 -48.975  11.670  1.00  0.00     0.252 C 
HETATM    3  O   UNL     1     -41.637 -49.761  11.687  1.00  0.00    -0.270 OA
HETATM    4  H   UNL     1     -39.788 -47.206  11.145  1.00  0.00     0.170 HD
ENDROOT
BRANCH   1   5
HETATM    5  C   UNL     1     -41.694 -47.228  10.266  1.00  0.00     0.110 A 
HETATM    6  N   UNL     1     -42.361 -48.037   9.425  1.00  0.00    -0.352 N 
HETATM    7  C   UNL     1     -43.376 -47.533   8.700  1.00  0.00     0.092 A 
ATOM      8  HN  UNL     1     -42.101 -49.020   9.337  1.00  0.00     0.166 HD
HETATM    9  C   UNL     1     -43.792 -46.222   8.780  1.00  0.00     0.053 A 
HETATM   10  C   UNL     1     -43.116 -45.387   9.662  1.00  0.00     0.073 A 
HETATM   11  C   UNL     1     -42.035 -45.887  10.397  1.00  0.00     0.085 A 
BRANCH  10  12
HETATM   12  O   UNL     1     -43.421 -44.067   9.863  1.00  0.00    -0.356 OA
HETATM   13  C   UNL     1     -42.786 -43.452  10.983  1.00  0.00     0.210 C 
ENDBRANCH  10  12
ENDBRANCH   1   5
BRANCH   2  14
HETATM   14  C   UNL     1     -39.415 -49.358  12.442  1.00  0.00     0.214 C 
HETATM   15  C   UNL     1     -38.257 -49.547  11.466  1.00  0.00     0.044 C 
HETATM   16  C   UNL     1     -37.407 -50.648  12.062  1.00  0.00     0.034 C 
HETATM   17  C   UNL     1     -38.041 -50.927  13.412  1.00  0.00     0.118 C 
HETATM   18  C   UNL     1     -37.352 -50.152  14.536  1.00  0.00     0.039 C 
HETATM   19  O   UNL     1     -39.420 -50.523  13.272  1.00  0.00    -0.372 OA
ENDBRANCH   2  14
TORSDOF 3
ENDMDL
MODEL 3
REMARK VINA RESULT:      -5.3      4.115      5.401
REMARK  3 active torsions:
REMARK  status: ('A' for Active; 'I' for Inactive)
REMARK    1  A    between atoms: O_2  and  C_3 
REMARK    2  A    between atoms: C_8  and  N_9 
REMARK       I    between atoms: N_9  and  C_10 
REMARK    3  A    between atoms: C_10  and  C_12 
ROOT
HETATM    1  N   UNL     1     -42.857 -51.688  12.681  1.00  0.00    -0.311 N 
HETATM    2  C   UNL     1     -43.823 -51.175  13.525  1.00  0.00     0.252 C 
HETATM    3  O   UNL     1     -43.863 -50.035  13.996  1.00  0.00    -0.270 OA
HETATM    4  H   UNL     1     -42.950 -52.661  12.411  1.00  0.00     0.170 HD
ENDROOT
BRANCH   1   5
HETATM    5  C   UNL     1     -41.759 -50.945  12.211  1.00  0.00     0.110 A 
HETATM    6  N   UNL     1     -41.977 -49.783  11.571  1.00  0.00    -0.352 N 
HETATM    7  C   UNL     1     -40.922 -49.073  11.128  1.00  0.00     0.092 A 
ATOM      8  HN  UNL     1     -42.927 -49.445  11.423  1.00  0.00     0.166 HD
HETATM    9  C   UNL     1     -39.613 -49.461  11.309  1.00  0.00     0.053 A 
HETATM   10  C   UNL     1     -39.384 -50.653  11.987  1.00  0.00     0.073 A 
HETATM   11  C   UNL     1     -40.470 -51.421  12.422  1.00  0.00     0.085 A 
BRANCH  10  12
HETATM   12  O   UNL     1     -38.141 -51.163  12.256  1.00  0.00    -0.356 OA
HETATM   13  C   UNL     1     -37.553 -50.738  13.485  1.00  0.00     0.210 C 
ENDBRANCH  10  12
ENDBRANCH   1   5
BRANCH   2  14
HETATM   14  C   UNL     1     -44.941 -52.157  13.907  1.00  0.00     0.214 C 
HETATM   15  C   UNL     1     -46.270 -51.413  13.997  1.00  0.00     0.044 C 
HETATM   16  C   UNL     1     -47.042 -52.105  15.100  1.00  0.00     0.034 C 
HETATM   17  C   UNL     1     -46.177 -53.292  15.479  1.00  0.00     0.118 C 
HETATM   18  C   UNL     1     -46.604 -54.565  14.747  1.00  0.00     0.039 C 
HETATM   19  O   UNL     1     -44.833 -52.910  15.117  1.00  0.00    -0.372 OA
ENDBRANCH   2  14
TORSDOF 3
ENDMDL
MODEL 4
REMARK VINA RESULT:      -5.3      4.490      6.496
REMARK  3 active torsions:
REMARK  status: ('A' for Active; 'I' for Inactive)
REMARK    1  A    between atoms: O_2  and  C_3 
REMARK    2  A    between atoms: C_8  and  N_9 
REMARK       I    between atoms: N_9  and  C_10 
REMARK    3  A    between atoms: C_10  and  C_12 
ROOT
HETATM    1  N   UNL     1     -41.068 -52.954  12.905  1.00  0.00    -0.311 N 
HETATM    2  C   UNL     1     -40.988 -51.595  12.677  1.00  0.00     0.252 C 
HETATM    3  O   UNL     1     -41.908 -50.777  12.758  1.00  0.00    -0.270 OA
HETATM    4  H   UNL     1     -40.223 -53.497  12.759  1.00  0.00     0.170 HD
ENDROOT
BRANCH   1   5
HETATM    5  C   UNL     1     -42.249 -53.611  13.295  1.00  0.00     0.110 A 
HETATM    6  N   UNL     1     -43.326 -53.560  12.493  1.00  0.00    -0.352 N 
HETATM    7  C   UNL     1     -44.452 -54.194  12.868  1.00  0.00     0.092 A 
ATOM      8  HN  UNL     1     -43.290 -53.048  11.611  1.00  0.00     0.166 HD
HETATM    9  C   UNL     1     -44.565 -54.918  14.034  1.00  0.00     0.053 A 
HETATM   10  C   UNL     1     -43.448 -54.988  14.858  1.00  0.00     0.073 A 
HETATM   11  C   UNL     1     -42.280 -54.304  14.500  1.00  0.00     0.085 A 
BRANCH  10  12
HETATM   12  O   UNL     1     -43.401 -55.679  16.040  1.00  0.00    -0.356 OA
HETATM   13  C   UNL     1     -42.098 -56.063  16.478  1.00  0.00     0.210 C 
ENDBRANCH  10  12
ENDBRANCH   1   5
BRANCH   2  14
HETATM   14  C   UNL     1     -39.597 -51.084  12.268  1.00  0.00     0.214 C 
HETATM   15  C   UNL     1     -38.736 -50.887  13.512  1.00  0.00     0.044 C 
HETATM   16  C   UNL     1     -37.851 -49.699  13.202  1.00  0.00     0.034 C 
HETATM   17  C   UNL     1     -38.150 -49.374  11.750  1.00  0.00     0.118 C 
HETATM   18  C   UNL     1     -37.146 -50.030  10.801  1.00  0.00     0.039 C 
HETATM   19  O   UNL     1     -39.485 -49.871  11.520  1.00  0.00    -0.372 OA
ENDBRANCH   2  14
TORSDOF 3
ENDMDL
MODEL 5
REMARK VINA RESULT:      -5.3      2.153      6.381
REMARK  3 active torsions:
REMARK  status: ('A' for Active; 'I' for Inactive)
REMARK    1  A    between atoms: O_2  and  C_3 
REMARK    2  A    between atoms: C_8  and  N_9 
REMARK       I    between atoms: N_9  and  C_10 
REMARK    3  A    between atoms: C_10  and  C_12 
ROOT
HETATM    1  N   UNL     1     -41.927 -49.400  11.307  1.00  0.00    -0.311 N 
HETATM    2  C   UNL     1     -42.590 -49.971  12.375  1.00  0.00     0.252 C 
HETATM    3  O   UNL     1     -43.589 -49.527  12.948  1.00  0.00    -0.270 OA
HETATM    4  H   UNL     1     -41.096 -49.876  10.973  1.00  0.00     0.170 HD
ENDROOT
BRANCH   1   5
HETATM    5  C   UNL     1     -42.329 -48.201  10.691  1.00  0.00     0.110 A 
HETATM    6  N   UNL     1     -43.523 -48.145  10.077  1.00  0.00    -0.352 N 
HETATM    7  C   UNL     1     -43.905 -46.994   9.494  1.00  0.00     0.092 A 
ATOM      8  HN  UNL     1     -44.131 -48.964  10.052  1.00  0.00     0.166 HD
HETATM    9  C   UNL     1     -43.144 -45.846   9.504  1.00  0.00     0.053 A 
HETATM   10  C   UNL     1     -41.917 -45.895  10.155  1.00  0.00     0.073 A 
HETATM   11  C   UNL     1     -41.488 -47.095  10.734  1.00  0.00     0.085 A 
BRANCH  10  12
HETATM   12  O   UNL     1     -41.055 -44.835  10.262  1.00  0.00    -0.356 OA
HETATM   13  C   UNL     1     -39.668 -45.166  10.265  1.00  0.00     0.210 C 
ENDBRANCH  10  12
ENDBRANCH   1   5
BRANCH   2  14
HETATM   14  C   UNL     1     -41.987 -51.288  12.887  1.00  0.00     0.214 C 
HETATM   15  C   UNL     1     -40.678 -51.005  13.617  1.00  0.00     0.044 C 
HETATM   16  C   UNL     1     -39.795 -52.202  13.334  1.00  0.00     0.034 C 
HETATM   17  C   UNL     1     -40.695 -53.166  12.583  1.00  0.00     0.118 C 
HETATM   18  C   UNL     1     -41.333 -54.194  13.517  1.00  0.00     0.039 C 
HETATM   19  O   UNL     1     -41.698 -52.337  11.959  1.00  0.00    -0.372 OA
ENDBRANCH   2  14
TORSDOF 3
ENDMDL
MODEL 6
REMARK VINA RESULT:      -5.3      4.285      7.269
REMARK  3 active torsions:
REMARK  status: ('A' for Active; 'I' for Inactive)
REMARK    1  A    between atoms: O_2  and  C_3 
REMARK    2  A    between atoms: C_8  and  N_9 
REMARK       I    between atoms: N_9  and  C_10 
REMARK    3  A    between atoms: C_10  and  C_12 
ROOT
HETATM    1  N   UNL     1     -41.822 -52.246  13.753  1.00  0.00    -0.311 N 
HETATM    2  C   UNL     1     -40.663 -52.521  13.055  1.00  0.00     0.252 C 
HETATM    3  O   UNL     1     -40.464 -53.478  12.301  1.00  0.00    -0.270 OA
HETATM    4  H   UNL     1     -41.812 -51.435  14.362  1.00  0.00     0.170 HD
ENDROOT
BRANCH   1   5
HETATM    5  C   UNL     1     -42.983 -53.038  13.680  1.00  0.00     0.110 A 
HETATM    6  N   UNL     1     -43.049 -54.175  14.394  1.00  0.00    -0.352 N 
HETATM    7  C   UNL     1     -44.163 -54.926  14.325  1.00  0.00     0.092 A 
ATOM      8  HN  UNL     1     -42.265 -54.465  14.979  1.00  0.00     0.166 HD
HETATM    9  C   UNL     1     -45.265 -54.588  13.570  1.00  0.00     0.053 A 
HETATM   10  C   UNL     1     -45.207 -53.403  12.846  1.00  0.00     0.073 A 
HETATM   11  C   UNL     1     -44.041 -52.628  12.877  1.00  0.00     0.085 A 
BRANCH  10  12
HETATM   12  O   UNL     1     -46.224 -52.926  12.062  1.00  0.00    -0.356 OA
HETATM   13  C   UNL     1     -46.657 -51.598  12.355  1.00  0.00     0.210 C 
ENDBRANCH  10  12
ENDBRANCH   1   5
BRANCH   2  14
HETATM   14  C   UNL     1     -39.519 -51.520  13.272  1.00  0.00     0.214 C 
HETATM   15  C   UNL     1     -39.531 -50.475  12.160  1.00  0.00     0.044 C 
HETATM   16  C   UNL     1     -38.078 -50.124  11.925  1.00  0.00     0.034 C 
HETATM   17  C   UNL     1     -37.328 -50.874  13.009  1.00  0.00     0.118 C 
HETATM   18  C   UNL     1     -37.064 -49.995  14.232  1.00  0.00     0.039 C 
HETATM   19  O   UNL     1     -38.172 -51.995  13.346  1.00  0.00    -0.372 OA
ENDBRANCH   2  14
TORSDOF 3
ENDMDL
MODEL 7
REMARK VINA RESULT:      -5.2      2.296      3.589
REMARK  3 active torsions:
REMARK  status: ('A' for Active; 'I' for Inactive)
REMARK    1  A    between atoms: O_2  and  C_3 
REMARK    2  A    between atoms: C_8  and  N_9 
REMARK       I    between atoms: N_9  and  C_10 
REMARK    3  A    between atoms: C_10  and  C_12 
ROOT
HETATM    1  N   UNL     1     -42.032 -50.147  11.845  1.00  0.00    -0.311 N 
HETATM    2  C   UNL     1     -42.750 -49.160  12.490  1.00  0.00     0.252 C 
HETATM    3  O   UNL     1     -43.424 -49.287  13.515  1.00  0.00    -0.270 OA
HETATM    4  H   UNL     1     -41.557 -49.887  10.987  1.00  0.00     0.170 HD
ENDROOT
BRANCH   1   5
HETATM    5  C   UNL     1     -41.951 -51.476  12.300  1.00  0.00     0.110 A 
HETATM    6  N   UNL     1     -43.077 -52.201  12.413  1.00  0.00    -0.352 N 
HETATM    7  C   UNL     1     -42.994 -53.474  12.843  1.00  0.00     0.092 A 
ATOM      8  HN  UNL     1     -43.981 -51.793  12.176  1.00  0.00     0.166 HD
HETATM    9  C   UNL     1     -41.807 -54.094  13.164  1.00  0.00     0.053 A 
HETATM   10  C   UNL     1     -40.639 -53.352  13.030  1.00  0.00     0.073 A 
HETATM   11  C   UNL     1     -40.711 -52.016  12.619  1.00  0.00     0.085 A 
BRANCH  10  12
HETATM   12  O   UNL     1     -39.384 -53.832  13.297  1.00  0.00    -0.356 OA
HETATM   13  C   UNL     1     -39.261 -54.609  14.487  1.00  0.00     0.210 C 
ENDBRANCH  10  12
ENDBRANCH   1   5
BRANCH   2  14
HETATM   14  C   UNL     1     -42.694 -47.775  11.826  1.00  0.00     0.214 C 
HETATM   15  C   UNL     1     -43.774 -47.674  10.754  1.00  0.00     0.044 C 
HETATM   16  C   UNL     1     -43.181 -46.799   9.670  1.00  0.00     0.034 C 
HETATM   17  C   UNL     1     -41.857 -46.331  10.244  1.00  0.00     0.118 C 
HETATM   18  C   UNL     1     -41.979 -44.960  10.911  1.00  0.00     0.039 C 
HETATM   19  O   UNL     1     -41.482 -47.344  11.201  1.00  0.00    -0.372 OA
ENDBRANCH   2  14
TORSDOF 3
ENDMDL
MODEL 8
REMARK VINA RESULT:      -5.0      4.245      6.568
REMARK  3 active torsions:
REMARK  status: ('A' for Active; 'I' for Inactive)
REMARK    1  A    between atoms: O_2  and  C_3 
REMARK    2  A    between atoms: C_8  and  N_9 
REMARK       I    between atoms: N_9  and  C_10 
REMARK    3  A    between atoms: C_10  and  C_12 
ROOT
HETATM    1  N   UNL     1     -42.718 -50.532  13.370  1.00  0.00    -0.311 N 
HETATM    2  C   UNL     1     -41.900 -51.290  12.555  1.00  0.00     0.252 C 
HETATM    3  O   UNL     1     -42.204 -52.332  11.968  1.00  0.00    -0.270 OA
HETATM    4  H   UNL     1     -42.303 -49.717  13.810  1.00  0.00     0.170 HD
ENDROOT
BRANCH   1   5
HETATM    5  C   UNL     1     -44.063 -50.847  13.635  1.00  0.00     0.110 A 
HETATM    6  N   UNL     1     -44.871 -51.188  12.616  1.00  0.00    -0.352 N 
HETATM    7  C   UNL     1     -46.156 -51.494  12.874  1.00  0.00     0.092 A 
ATOM      8  HN  UNL     1     -44.515 -51.215  11.660  1.00  0.00     0.166 HD
HETATM    9  C   UNL     1     -46.699 -51.496  14.140  1.00  0.00     0.053 A 
HETATM   10  C   UNL     1     -45.861 -51.162  15.198  1.00  0.00     0.073 A 
HETATM   11  C   UNL     1     -44.531 -50.806  14.943  1.00  0.00     0.085 A 
BRANCH  10  12
HETATM   12  O   UNL     1     -46.249 -51.133  16.512  1.00  0.00    -0.356 OA
HETATM   13  C   UNL     1     -45.637 -50.123  17.313  1.00  0.00     0.210 C 
ENDBRANCH  10  12
ENDBRANCH   1   5
BRANCH   2  14
HETATM   14  C   UNL     1     -40.468 -50.759  12.395  1.00  0.00     0.214 C 
HETATM   15  C   UNL     1     -40.037 -50.047  13.674  1.00  0.00     0.044 C 
HETATM   16  C   UNL     1     -39.135 -48.920  13.221  1.00  0.00     0.034 C 
HETATM   17  C   UNL     1     -38.983 -49.136  11.727  1.00  0.00     0.118 C 
HETATM   18  C   UNL     1     -37.717 -49.925  11.392  1.00  0.00     0.039 C 
HETATM   19  O   UNL     1     -40.167 -49.857  11.327  1.00  0.00    -0.372 OA
ENDBRANCH   2  14
TORSDOF 3
ENDMDL
MODEL 9
REMARK VINA RESULT:      -4.9      3.990      5.987
REMARK  3 active torsions:
REMARK  status: ('A' for Active; 'I' for Inactive)
REMARK    1  A    between atoms: O_2  and  C_3 
REMARK    2  A    between atoms: C_8  and  N_9 
REMARK       I    between atoms: N_9  and  C_10 
REMARK    3  A    between atoms: C_10  and  C_12 
ROOT
HETATM    1  N   UNL     1     -43.503 -49.622  12.469  1.00  0.00    -0.311 N 
HETATM    2  C   UNL     1     -43.466 -49.989  13.799  1.00  0.00     0.252 C 
HETATM    3  O   UNL     1     -42.679 -49.579  14.657  1.00  0.00    -0.270 OA
HETATM    4  H   UNL     1     -44.192 -50.081  11.883  1.00  0.00     0.170 HD
ENDROOT
BRANCH   1   5
HETATM    5  C   UNL     1     -42.630 -48.679  11.895  1.00  0.00     0.110 A 
HETATM    6  N   UNL     1     -41.310 -48.784  12.121  1.00  0.00    -0.352 N 
HETATM    7  C   UNL     1     -40.478 -47.883  11.566  1.00  0.00     0.092 A 
ATOM      8  HN  UNL     1     -40.942 -49.535  12.705  1.00  0.00     0.166 HD
HETATM    9  C   UNL     1     -40.902 -46.854  10.753  1.00  0.00     0.053 A 
HETATM   10  C   UNL     1     -42.266 -46.755  10.503  1.00  0.00     0.073 A 
HETATM   11  C   UNL     1     -43.148 -47.662  11.102  1.00  0.00     0.085 A 
BRANCH  10  12
HETATM   12  O   UNL     1     -42.837 -45.797   9.706  1.00  0.00    -0.356 OA
HETATM   13  C   UNL     1     -43.463 -46.278   8.518  1.00  0.00     0.210 C 
ENDBRANCH  10  12
ENDBRANCH   1   5
BRANCH   2  14
HETATM   14  C   UNL     1     -44.517 -51.028  14.218  1.00  0.00     0.214 C 
HETATM   15  C   UNL     1     -45.491 -51.265  13.068  1.00  0.00     0.044 C 
HETATM   16  C   UNL     1     -46.827 -51.539  13.725  1.00  0.00     0.034 C 
HETATM   17  C   UNL     1     -46.515 -51.587  15.209  1.00  0.00     0.118 C 
HETATM   18  C   UNL     1     -46.285 -53.017  15.696  1.00  0.00     0.039 C 
HETATM   19  O   UNL     1     -45.327 -50.784  15.371  1.00  0.00    -0.372 OA
ENDBRANCH   2  14
TORSDOF 3
ENDMDL
