MODEL 1
REMARK VINA RESULT:      -7.0      0.000      0.000
REMARK  5 active torsions:
REMARK  status: ('A' for Active; 'I' for Inactive)
REMARK    1  A    between atoms: C_2  and  C_3 
REMARK       I    between atoms: C_2  and  N_20 
REMARK    2  A    between atoms: C_3  and  N_4 
REMARK       I    between atoms: N_4  and  C_5 
REMARK       I    between atoms: C_5  and  N_7 
REMARK    3  A    between atoms: N_7  and  C_8 
REMARK    4  A    between atoms: C_14  and  N_15 
REMARK    5  A    between atoms: N_20  and  C_21 
ROOT
HETATM    1  C   UNL     1     -44.367 -47.070   9.013  1.00  0.00     0.216 C 
HETATM    2  C   UNL     1     -45.682 -47.825   8.911  1.00  0.00    -0.098 C 
HETATM    3  C   UNL     1     -46.810 -48.473   8.826  1.00  0.00     0.014 C 
ENDROOT
BRANCH   1   4
HETATM    4  N   UNL     1     -43.417 -47.769   9.858  1.00  0.00    -0.349 N 
HETATM    5  C   UNL     1     -42.223 -47.187  10.240  1.00  0.00     0.236 C 
HETATM    6  O   UNL     1     -41.905 -46.041   9.917  1.00  0.00    -0.272 OA
HETATM    7  H   UNL     1     -43.632 -48.718  10.137  1.00  0.00     0.163 HD
BRANCH   5   8
HETATM    8  C   UNL     1     -41.326 -48.067  11.133  1.00  0.00     0.226 C 
BRANCH   8   9
HETATM    9  N   UNL     1     -41.603 -49.491  10.984  1.00  0.00    -0.339 N 
HETATM   10  C   UNL     1     -41.597 -50.321  12.088  1.00  0.00     0.299 C 
HETATM   11  O   UNL     1     -41.403 -49.914  13.229  1.00  0.00    -0.254 OA
HETATM   12  N   UNL     1     -41.926 -51.619  11.728  1.00  0.00    -0.207 NA
HETATM   13  H   UNL     1     -42.696 -51.592  11.074  1.00  0.00     0.138 HD
HETATM   14  H   UNL     1     -41.321 -49.909  10.105  1.00  0.00     0.164 HD
BRANCH  12  15
HETATM   15  C   UNL     1     -42.060 -52.616  12.739  1.00  0.00     0.060 A 
HETATM   16  C   UNL     1     -40.920 -53.366  13.055  1.00  0.00     0.029 A 
HETATM   17  C   UNL     1     -40.998 -54.373  14.003  1.00  0.00     0.019 A 
HETATM   18  C   UNL     1     -42.214 -54.588  14.615  1.00  0.00     0.090 A 
HETATM   19  N   UNL     1     -43.328 -53.862  14.354  1.00  0.00    -0.351 N 
HETATM   20  C   UNL     1     -43.268 -52.858  13.436  1.00  0.00     0.125 A 
ATOM     21  HN  UNL     1     -44.201 -54.066  14.840  1.00  0.00     0.166 HD
BRANCH  20  22
HETATM   22  N   UNL     1     -44.403 -52.076  13.275  1.00  0.00    -0.366 N 
HETATM   23  C   UNL     1     -45.577 -52.620  12.598  1.00  0.00     0.124 C 
HETATM   24  C   UNL     1     -46.776 -51.907  13.227  1.00  0.00     0.021 C 
HETATM   25  C   UNL     1     -46.252 -51.315  14.522  1.00  0.00     0.021 C 
HETATM   26  C   UNL     1     -44.773 -51.073  14.261  1.00  0.00     0.124 C 
ENDBRANCH  20  22
ENDBRANCH  12  15
ENDBRANCH   8   9
ENDBRANCH   5   8
ENDBRANCH   1   4
TORSDOF 5
ENDMDL
MODEL 2
REMARK VINA RESULT:      -6.8      1.919      3.147
REMARK  5 active torsions:
REMARK  status: ('A' for Active; 'I' for Inactive)
REMARK    1  A    between atoms: C_2  and  C_3 
REMARK       I    between atoms: C_2  and  N_20 
REMARK    2  A    between atoms: C_3  and  N_4 
REMARK       I    between atoms: N_4  and  C_5 
REMARK       I    between atoms: C_5  and  N_7 
REMARK    3  A    between atoms: N_7  and  C_8 
REMARK    4  A    between atoms: C_14  and  N_15 
REMARK    5  A    between atoms: N_20  and  C_21 
ROOT
HETATM    1  C   UNL     1     -46.317 -48.093   8.899  1.00  0.00     0.216 C 
HETATM    2  C   UNL     1     -46.383 -48.934   7.635  1.00  0.00    -0.098 C 
HETATM    3  C   UNL     1     -46.438 -49.657   6.551  1.00  0.00     0.014 C 
ENDROOT
BRANCH   1   4
HETATM    4  N   UNL     1     -44.945 -47.827   9.289  1.00  0.00    -0.349 N 
HETATM    5  C   UNL     1     -44.396 -46.562   9.192  1.00  0.00     0.236 C 
HETATM    6  O   UNL     1     -45.038 -45.585   8.802  1.00  0.00    -0.272 OA
HETATM    7  H   UNL     1     -44.378 -48.605   9.604  1.00  0.00     0.163 HD
BRANCH   5   8
HETATM    8  C   UNL     1     -42.926 -46.453   9.642  1.00  0.00     0.226 C 
BRANCH   8   9
HETATM    9  N   UNL     1     -42.225 -47.730   9.593  1.00  0.00    -0.339 N 
HETATM   10  C   UNL     1     -41.466 -48.150  10.668  1.00  0.00     0.299 C 
HETATM   11  O   UNL     1     -41.375 -47.511  11.712  1.00  0.00    -0.254 OA
HETATM   12  N   UNL     1     -40.925 -49.403  10.428  1.00  0.00    -0.207 NA
HETATM   13  H   UNL     1     -41.629 -49.988  10.000  1.00  0.00     0.138 HD
HETATM   14  H   UNL     1     -41.911 -48.030   8.677  1.00  0.00     0.164 HD
BRANCH  12  15
HETATM   15  C   UNL     1     -40.178 -50.056  11.454  1.00  0.00     0.060 A 
HETATM   16  C   UNL     1     -38.813 -49.753  11.542  1.00  0.00     0.029 A 
HETATM   17  C   UNL     1     -38.028 -50.382  12.495  1.00  0.00     0.019 A 
HETATM   18  C   UNL     1     -38.639 -51.285  13.338  1.00  0.00     0.090 A 
HETATM   19  N   UNL     1     -39.962 -51.578  13.299  1.00  0.00    -0.351 N 
HETATM   20  C   UNL     1     -40.752 -50.959  12.379  1.00  0.00     0.125 A 
ATOM     21  HN  UNL     1     -40.360 -52.254  13.950  1.00  0.00     0.166 HD
BRANCH  20  22
HETATM   22  N   UNL     1     -42.115 -51.212  12.441  1.00  0.00    -0.366 N 
HETATM   23  C   UNL     1     -42.612 -52.581  12.331  1.00  0.00     0.124 C 
HETATM   24  C   UNL     1     -43.902 -52.612  13.154  1.00  0.00     0.021 C 
HETATM   25  C   UNL     1     -43.841 -51.380  14.037  1.00  0.00     0.021 C 
HETATM   26  C   UNL     1     -42.999 -50.387  13.249  1.00  0.00     0.124 C 
ENDBRANCH  20  22
ENDBRANCH  12  15
ENDBRANCH   8   9
ENDBRANCH   5   8
ENDBRANCH   1   4
TORSDOF 5
ENDMDL
MODEL 3
REMARK VINA RESULT:      -6.5      3.095      5.056
REMARK  5 active torsions:
REMARK  status: ('A' for Active; 'I' for Inactive)
REMARK    1  A    between atoms: C_2  and  C_3 
REMARK       I    between atoms: C_2  and  N_20 
REMARK    2  A    between atoms: C_3  and  N_4 
REMARK       I    between atoms: N_4  and  C_5 
REMARK       I    between atoms: C_5  and  N_7 
REMARK    3  A    between atoms: N_7  and  C_8 
REMARK    4  A    between atoms: C_14  and  N_15 
REMARK    5  A    between atoms: N_20  and  C_21 
ROOT
HETATM    1  C   UNL     1     -39.785 -44.926  10.413  1.00  0.00     0.216 C 
HETATM    2  C   UNL     1     -38.934 -44.674   9.179  1.00  0.00    -0.098 C 
HETATM    3  C   UNL     1     -38.204 -44.458   8.120  1.00  0.00     0.014 C 
ENDROOT
BRANCH   1   4
HETATM    4  N   UNL     1     -40.535 -46.163  10.296  1.00  0.00    -0.349 N 
HETATM    5  C   UNL     1     -41.908 -46.164  10.133  1.00  0.00     0.236 C 
HETATM    6  O   UNL     1     -42.571 -45.129  10.046  1.00  0.00    -0.272 OA
HETATM    7  H   UNL     1     -40.031 -47.037  10.375  1.00  0.00     0.163 HD
BRANCH   5   8
HETATM    8  C   UNL     1     -42.551 -47.561  10.033  1.00  0.00     0.226 C 
BRANCH   8   9
HETATM    9  N   UNL     1     -41.576 -48.641  10.145  1.00  0.00    -0.339 N 
HETATM   10  C   UNL     1     -41.573 -49.465  11.253  1.00  0.00     0.299 C 
HETATM   11  O   UNL     1     -42.392 -49.366  12.162  1.00  0.00    -0.254 OA
HETATM   12  N   UNL     1     -40.599 -50.444  11.135  1.00  0.00    -0.207 NA
HETATM   13  H   UNL     1     -40.610 -50.805  10.191  1.00  0.00     0.138 HD
HETATM   14  H   UNL     1     -40.679 -48.477   9.704  1.00  0.00     0.164 HD
BRANCH  12  15
HETATM   15  C   UNL     1     -40.490 -51.453  12.138  1.00  0.00     0.060 A 
HETATM   16  C   UNL     1     -41.205 -52.639  11.932  1.00  0.00     0.029 A 
HETATM   17  C   UNL     1     -41.167 -53.641  12.888  1.00  0.00     0.019 A 
HETATM   18  C   UNL     1     -40.403 -53.427  14.015  1.00  0.00     0.090 A 
HETATM   19  N   UNL     1     -39.676 -52.304  14.231  1.00  0.00    -0.351 N 
HETATM   20  C   UNL     1     -39.688 -51.314  13.296  1.00  0.00     0.125 A 
ATOM     21  HN  UNL     1     -39.126 -52.202  15.084  1.00  0.00     0.166 HD
BRANCH  20  22
HETATM   22  N   UNL     1     -38.852 -50.228  13.510  1.00  0.00    -0.366 N 
HETATM   23  C   UNL     1     -39.353 -49.041  14.198  1.00  0.00     0.124 C 
HETATM   24  C   UNL     1     -38.140 -48.444  14.915  1.00  0.00     0.021 C 
HETATM   25  C   UNL     1     -37.110 -49.558  14.950  1.00  0.00     0.021 C 
HETATM   26  C   UNL     1     -37.425 -50.407  13.727  1.00  0.00     0.124 C 
ENDBRANCH  20  22
ENDBRANCH  12  15
ENDBRANCH   8   9
ENDBRANCH   5   8
ENDBRANCH   1   4
TORSDOF 5
ENDMDL
MODEL 4
REMARK VINA RESULT:      -6.4      1.166      3.178
REMARK  5 active torsions:
REMARK  status: ('A' for Active; 'I' for Inactive)
REMARK    1  A    between atoms: C_2  and  C_3 
REMARK       I    between atoms: C_2  and  N_20 
REMARK    2  A    between atoms: C_3  and  N_4 
REMARK       I    between atoms: N_4  and  C_5 
REMARK       I    between atoms: C_5  and  N_7 
REMARK    3  A    between atoms: N_7  and  C_8 
REMARK    4  A    between atoms: C_14  and  N_15 
REMARK    5  A    between atoms: N_20  and  C_21 
ROOT
HETATM    1  C   UNL     1     -43.574 -47.258   8.817  1.00  0.00     0.216 C 
HETATM    2  C   UNL     1     -45.046 -47.632   8.860  1.00  0.00    -0.098 C 
HETATM    3  C   UNL     1     -46.310 -47.954   8.897  1.00  0.00     0.014 C 
ENDROOT
BRANCH   1   4
HETATM    4  N   UNL     1     -42.773 -48.162   9.623  1.00  0.00    -0.349 N 
HETATM    5  C   UNL     1     -41.752 -47.699  10.431  1.00  0.00     0.236 C 
HETATM    6  O   UNL     1     -41.478 -46.502  10.542  1.00  0.00    -0.272 OA
HETATM    7  H   UNL     1     -42.956 -49.155   9.553  1.00  0.00     0.163 HD
BRANCH   5   8
HETATM    8  C   UNL     1     -40.996 -48.789  11.215  1.00  0.00     0.226 C 
BRANCH   8   9
HETATM    9  N   UNL     1     -41.785 -50.002  11.399  1.00  0.00    -0.339 N 
HETATM   10  C   UNL     1     -42.493 -50.201  12.568  1.00  0.00     0.299 C 
HETATM   11  O   UNL     1     -42.532 -49.375  13.475  1.00  0.00    -0.254 OA
HETATM   12  N   UNL     1     -43.204 -51.391  12.515  1.00  0.00    -0.207 NA
HETATM   13  H   UNL     1     -43.628 -51.478  11.602  1.00  0.00     0.138 HD
HETATM   14  H   UNL     1     -41.436 -50.834  10.938  1.00  0.00     0.164 HD
BRANCH  12  15
HETATM   15  C   UNL     1     -44.072 -51.740  13.592  1.00  0.00     0.060 A 
HETATM   16  C   UNL     1     -45.381 -51.243  13.545  1.00  0.00     0.029 A 
HETATM   17  C   UNL     1     -46.260 -51.519  14.580  1.00  0.00     0.019 A 
HETATM   18  C   UNL     1     -45.802 -52.294  15.624  1.00  0.00     0.090 A 
HETATM   19  N   UNL     1     -44.553 -52.814  15.686  1.00  0.00    -0.351 N 
HETATM   20  C   UNL     1     -43.679 -52.567  14.671  1.00  0.00     0.125 A 
ATOM     21  HN  UNL     1     -44.270 -53.383  16.483  1.00  0.00     0.166 HD
BRANCH  20  22
HETATM   22  N   UNL     1     -42.446 -53.201  14.726  1.00  0.00    -0.366 N 
HETATM   23  C   UNL     1     -42.119 -54.251  13.765  1.00  0.00     0.124 C 
HETATM   24  C   UNL     1     -40.601 -54.180  13.587  1.00  0.00     0.021 C 
HETATM   25  C   UNL     1     -40.200 -52.818  14.123  1.00  0.00     0.021 C 
HETATM   26  C   UNL     1     -41.254 -52.495  15.171  1.00  0.00     0.124 C 
ENDBRANCH  20  22
ENDBRANCH  12  15
ENDBRANCH   8   9
ENDBRANCH   5   8
ENDBRANCH   1   4
TORSDOF 5
ENDMDL
MODEL 5
REMARK VINA RESULT:      -6.4      2.560      5.854
REMARK  5 active torsions:
REMARK  status: ('A' for Active; 'I' for Inactive)
REMARK    1  A    between atoms: C_2  and  C_3 
REMARK       I    between atoms: C_2  and  N_20 
REMARK    2  A    between atoms: C_3  and  N_4 
REMARK       I    between atoms: N_4  and  C_5 
REMARK       I    between atoms: C_5  and  N_7 
REMARK    3  A    between atoms: N_7  and  C_8 
REMARK    4  A    between atoms: C_14  and  N_15 
REMARK    5  A    between atoms: N_20  and  C_21 
ROOT
HETATM    1  C   UNL     1     -46.699 -51.392  14.206  1.00  0.00     0.216 C 
HETATM    2  C   UNL     1     -47.109 -51.447  15.669  1.00  0.00    -0.098 C 
HETATM    3  C   UNL     1     -47.459 -51.494  16.924  1.00  0.00     0.014 C 
ENDROOT
BRANCH   1   4
HETATM    4  N   UNL     1     -45.514 -52.193  13.956  1.00  0.00    -0.349 N 
HETATM    5  C   UNL     1     -45.326 -52.852  12.756  1.00  0.00     0.236 C 
HETATM    6  O   UNL     1     -46.126 -52.780  11.822  1.00  0.00    -0.272 OA
HETATM    7  H   UNL     1     -44.836 -52.290  14.702  1.00  0.00     0.163 HD
BRANCH   5   8
HETATM    8  C   UNL     1     -44.019 -53.663  12.656  1.00  0.00     0.226 C 
BRANCH   8   9
HETATM    9  N   UNL     1     -42.988 -52.979  11.884  1.00  0.00    -0.339 N 
HETATM   10  C   UNL     1     -42.192 -52.020  12.479  1.00  0.00     0.299 C 
HETATM   11  O   UNL     1     -42.276 -51.725  13.667  1.00  0.00    -0.254 OA
HETATM   12  N   UNL     1     -41.256 -51.532  11.581  1.00  0.00    -0.207 NA
HETATM   13  H   UNL     1     -40.872 -52.306  11.055  1.00  0.00     0.138 HD
HETATM   14  H   UNL     1     -43.182 -52.854  10.897  1.00  0.00     0.164 HD
BRANCH  12  15
HETATM   15  C   UNL     1     -40.278 -50.593  12.025  1.00  0.00     0.060 A 
HETATM   16  C   UNL     1     -39.020 -51.098  12.378  1.00  0.00     0.029 A 
HETATM   17  C   UNL     1     -38.041 -50.239  12.850  1.00  0.00     0.019 A 
HETATM   18  C   UNL     1     -38.349 -48.899  12.941  1.00  0.00     0.090 A 
HETATM   19  N   UNL     1     -39.545 -48.374  12.581  1.00  0.00    -0.351 N 
HETATM   20  C   UNL     1     -40.516 -49.200  12.100  1.00  0.00     0.125 A 
ATOM     21  HN  UNL     1     -39.717 -47.373  12.668  1.00  0.00     0.166 HD
BRANCH  20  22
HETATM   22  N   UNL     1     -41.686 -48.608  11.648  1.00  0.00    -0.366 N 
HETATM   23  C   UNL     1     -42.496 -47.799  12.555  1.00  0.00     0.124 C 
HETATM   24  C   UNL     1     -43.177 -46.754  11.669  1.00  0.00     0.021 C 
HETATM   25  C   UNL     1     -42.386 -46.752  10.375  1.00  0.00     0.021 C 
HETATM   26  C   UNL     1     -41.822 -48.161  10.271  1.00  0.00     0.124 C 
ENDBRANCH  20  22
ENDBRANCH  12  15
ENDBRANCH   8   9
ENDBRANCH   5   8
ENDBRANCH   1   4
TORSDOF 5
ENDMDL
MODEL 6
REMARK VINA RESULT:      -6.4      2.341      6.644
REMARK  5 active torsions:
REMARK  status: ('A' for Active; 'I' for Inactive)
REMARK    1  A    between atoms: C_2  and  C_3 
REMARK       I    between atoms: C_2  and  N_20 
REMARK    2  A    between atoms: C_3  and  N_4 
REMARK       I    between atoms: N_4  and  C_5 
REMARK       I    between atoms: C_5  and  N_7 
REMARK    3  A    between atoms: N_7  and  C_8 
REMARK    4  A    between atoms: C_14  and  N_15 
REMARK    5  A    between atoms: N_20  and  C_21 
ROOT
HETATM    1  C   UNL     1     -45.975 -51.817  12.836  1.00  0.00     0.216 C 
HETATM    2  C   UNL     1     -46.610 -51.622  14.203  1.00  0.00    -0.098 C 
HETATM    3  C   UNL     1     -47.153 -51.454  15.377  1.00  0.00     0.014 C 
ENDROOT
BRANCH   1   4
HETATM    4  N   UNL     1     -44.527 -51.859  12.925  1.00  0.00    -0.349 N 
HETATM    5  C   UNL     1     -43.818 -53.015  12.656  1.00  0.00     0.236 C 
HETATM    6  O   UNL     1     -44.361 -54.063  12.300  1.00  0.00    -0.272 OA
HETATM    7  H   UNL     1     -44.041 -51.023  13.226  1.00  0.00     0.163 HD
BRANCH   5   8
HETATM    8  C   UNL     1     -42.289 -52.891  12.803  1.00  0.00     0.226 C 
BRANCH   8   9
HETATM    9  N   UNL     1     -41.698 -52.000  11.812  1.00  0.00    -0.339 N 
HETATM   10  C   UNL     1     -41.719 -50.632  12.004  1.00  0.00     0.299 C 
HETATM   11  O   UNL     1     -42.187 -50.106  13.009  1.00  0.00    -0.254 OA
HETATM   12  N   UNL     1     -41.068 -49.980  10.968  1.00  0.00    -0.207 NA
HETATM   13  H   UNL     1     -40.220 -50.483  10.746  1.00  0.00     0.138 HD
HETATM   14  H   UNL     1     -41.730 -52.319  10.851  1.00  0.00     0.164 HD
BRANCH  12  15
HETATM   15  C   UNL     1     -40.903 -48.564  11.022  1.00  0.00     0.060 A 
HETATM   16  C   UNL     1     -41.930 -47.778  10.484  1.00  0.00     0.029 A 
HETATM   17  C   UNL     1     -41.810 -46.398  10.475  1.00  0.00     0.019 A 
HETATM   18  C   UNL     1     -40.669 -45.848  11.017  1.00  0.00     0.090 A 
HETATM   19  N   UNL     1     -39.670 -46.577  11.572  1.00  0.00    -0.351 N 
HETATM   20  C   UNL     1     -39.776 -47.934  11.604  1.00  0.00     0.125 A 
ATOM     21  HN  UNL     1     -38.849 -46.115  11.960  1.00  0.00     0.166 HD
BRANCH  20  22
HETATM   22  N   UNL     1     -38.781 -48.634  12.270  1.00  0.00    -0.366 N 
HETATM   23  C   UNL     1     -38.964 -49.016  13.668  1.00  0.00     0.124 C 
HETATM   24  C   UNL     1     -38.166 -50.310  13.843  1.00  0.00     0.021 C 
HETATM   25  C   UNL     1     -37.928 -50.825  12.436  1.00  0.00     0.021 C 
HETATM   26  C   UNL     1     -37.922 -49.575  11.568  1.00  0.00     0.124 C 
ENDBRANCH  20  22
ENDBRANCH  12  15
ENDBRANCH   8   9
ENDBRANCH   5   8
ENDBRANCH   1   4
TORSDOF 5
ENDMDL
MODEL 7
REMARK VINA RESULT:      -6.2      1.606      3.420
REMARK  5 active torsions:
REMARK  status: ('A' for Active; 'I' for Inactive)
REMARK    1  A    between atoms: C_2  and  C_3 
REMARK       I    between atoms: C_2  and  N_20 
REMARK    2  A    between atoms: C_3  and  N_4 
REMARK       I    between atoms: N_4  and  C_5 
REMARK       I    between atoms: C_5  and  N_7 
REMARK    3  A    between atoms: N_7  and  C_8 
REMARK    4  A    between atoms: C_14  and  N_15 
REMARK    5  A    between atoms: N_20  and  C_21 
ROOT
HETATM    1  C   UNL     1     -44.123 -46.972   9.213  1.00  0.00     0.216 C 
HETATM    2  C   UNL     1     -45.330 -47.863   8.969  1.00  0.00    -0.098 C 
HETATM    3  C   UNL     1     -46.366 -48.627   8.760  1.00  0.00     0.014 C 
ENDROOT
BRANCH   1   4
HETATM    4  N   UNL     1     -43.002 -47.730   9.738  1.00  0.00    -0.349 N 
HETATM    5  C   UNL     1     -42.641 -47.661  11.070  1.00  0.00     0.236 C 
HETATM    6  O   UNL     1     -43.258 -46.984  11.895  1.00  0.00    -0.272 OA
HETATM    7  H   UNL     1     -42.459 -48.291   9.092  1.00  0.00     0.163 HD
BRANCH   5   8
HETATM    8  C   UNL     1     -41.425 -48.522  11.462  1.00  0.00     0.226 C 
BRANCH   8   9
HETATM    9  N   UNL     1     -41.650 -49.947  11.249  1.00  0.00    -0.339 N 
HETATM   10  C   UNL     1     -42.151 -50.733  12.268  1.00  0.00     0.299 C 
HETATM   11  O   UNL     1     -42.465 -50.284  13.366  1.00  0.00    -0.254 OA
HETATM   12  N   UNL     1     -42.327 -52.040  11.840  1.00  0.00    -0.207 NA
HETATM   13  H   UNL     1     -42.732 -52.030  10.915  1.00  0.00     0.138 HD
HETATM   14  H   UNL     1     -41.024 -50.404  10.596  1.00  0.00     0.164 HD
BRANCH  12  15
HETATM   15  C   UNL     1     -42.919 -52.995  12.720  1.00  0.00     0.060 A 
HETATM   16  C   UNL     1     -44.253 -53.348  12.476  1.00  0.00     0.029 A 
HETATM   17  C   UNL     1     -44.893 -54.243  13.318  1.00  0.00     0.019 A 
HETATM   18  C   UNL     1     -44.172 -54.766  14.369  1.00  0.00     0.090 A 
HETATM   19  N   UNL     1     -42.874 -54.468  14.616  1.00  0.00    -0.351 N 
HETATM   20  C   UNL     1     -42.222 -53.602  13.791  1.00  0.00     0.125 A 
ATOM     21  HN  UNL     1     -42.390 -54.888  15.409  1.00  0.00     0.166 HD
BRANCH  20  22
HETATM   22  N   UNL     1     -40.868 -53.405  14.020  1.00  0.00    -0.366 N 
HETATM   23  C   UNL     1     -40.427 -52.540  15.112  1.00  0.00     0.124 C 
HETATM   24  C   UNL     1     -39.079 -53.108  15.561  1.00  0.00     0.021 C 
HETATM   25  C   UNL     1     -39.030 -54.514  14.993  1.00  0.00     0.021 C 
HETATM   26  C   UNL     1     -39.896 -54.452  13.744  1.00  0.00     0.124 C 
ENDBRANCH  20  22
ENDBRANCH  12  15
ENDBRANCH   8   9
ENDBRANCH   5   8
ENDBRANCH   1   4
TORSDOF 5
ENDMDL
MODEL 8
REMARK VINA RESULT:      -6.2      3.400      7.925
REMARK  5 active torsions:
REMARK  status: ('A' for Active; 'I' for Inactive)
REMARK    1  A    between atoms: C_2  and  C_3 
REMARK       I    between atoms: C_2  and  N_20 
REMARK    2  A    between atoms: C_3  and  N_4 
REMARK       I    between atoms: N_4  and  C_5 
REMARK       I    between atoms: C_5  and  N_7 
REMARK    3  A    between atoms: N_7  and  C_8 
REMARK    4  A    between atoms: C_14  and  N_15 
REMARK    5  A    between atoms: N_20  and  C_21 
ROOT
HETATM    1  C   UNL     1     -39.924 -54.462  16.223  1.00  0.00     0.216 C 
HETATM    2  C   UNL     1     -40.025 -55.913  16.663  1.00  0.00    -0.098 C 
HETATM    3  C   UNL     1     -40.112 -57.158  17.040  1.00  0.00     0.014 C 
ENDROOT
BRANCH   1   4
HETATM    4  N   UNL     1     -40.786 -54.190  15.087  1.00  0.00    -0.349 N 
HETATM    5  C   UNL     1     -40.279 -54.064  13.807  1.00  0.00     0.236 C 
HETATM    6  O   UNL     1     -39.083 -54.203  13.547  1.00  0.00    -0.272 OA
HETATM    7  H   UNL     1     -41.775 -54.057  15.258  1.00  0.00     0.163 HD
BRANCH   5   8
HETATM    8  C   UNL     1     -41.328 -53.770  12.717  1.00  0.00     0.226 C 
BRANCH   8   9
HETATM    9  N   UNL     1     -40.886 -52.754  11.768  1.00  0.00    -0.339 N 
HETATM   10  C   UNL     1     -41.127 -51.417  12.016  1.00  0.00     0.299 C 
HETATM   11  O   UNL     1     -41.674 -51.015  13.039  1.00  0.00    -0.254 OA
HETATM   12  N   UNL     1     -40.588 -50.626  11.013  1.00  0.00    -0.207 NA
HETATM   13  H   UNL     1     -39.670 -50.977  10.777  1.00  0.00     0.138 HD
HETATM   14  H   UNL     1     -40.866 -53.034  10.795  1.00  0.00     0.164 HD
BRANCH  12  15
HETATM   15  C   UNL     1     -40.652 -49.205  11.127  1.00  0.00     0.060 A 
HETATM   16  C   UNL     1     -41.817 -48.578  10.666  1.00  0.00     0.029 A 
HETATM   17  C   UNL     1     -41.922 -47.198  10.717  1.00  0.00     0.019 A 
HETATM   18  C   UNL     1     -40.862 -46.490  11.240  1.00  0.00     0.090 A 
HETATM   19  N   UNL     1     -39.734 -47.067  11.721  1.00  0.00    -0.351 N 
HETATM   20  C   UNL     1     -39.617 -48.423  11.693  1.00  0.00     0.125 A 
ATOM     21  HN  UNL     1     -38.981 -46.492  12.098  1.00  0.00     0.166 HD
BRANCH  20  22
HETATM   22  N   UNL     1     -38.492 -48.976  12.287  1.00  0.00    -0.366 N 
HETATM   23  C   UNL     1     -38.545 -49.434  13.674  1.00  0.00     0.124 C 
HETATM   24  C   UNL     1     -37.543 -50.587  13.759  1.00  0.00     0.021 C 
HETATM   25  C   UNL     1     -37.292 -51.005  12.322  1.00  0.00     0.021 C 
HETATM   26  C   UNL     1     -37.528 -49.740  11.511  1.00  0.00     0.124 C 
ENDBRANCH  20  22
ENDBRANCH  12  15
ENDBRANCH   8   9
ENDBRANCH   5   8
ENDBRANCH   1   4
TORSDOF 5
ENDMDL
MODEL 9
REMARK VINA RESULT:      -5.9      1.572      2.252
REMARK  5 active torsions:
REMARK  status: ('A' for Active; 'I' for Inactive)
REMARK    1  A    between atoms: C_2  and  C_3 
REMARK       I    between atoms: C_2  and  N_20 
REMARK    2  A    between atoms: C_3  and  N_4 
REMARK       I    between atoms: N_4  and  C_5 
REMARK       I    between atoms: C_5  and  N_7 
REMARK    3  A    between atoms: N_7  and  C_8 
REMARK    4  A    between atoms: C_14  and  N_15 
REMARK    5  A    between atoms: N_20  and  C_21 
ROOT
HETATM    1  C   UNL     1     -43.570 -47.658  11.043  1.00  0.00     0.216 C 
HETATM    2  C   UNL     1     -44.537 -47.501   9.882  1.00  0.00    -0.098 C 
HETATM    3  C   UNL     1     -45.368 -47.367   8.885  1.00  0.00     0.014 C 
ENDROOT
BRANCH   1   4
HETATM    4  N   UNL     1     -42.500 -48.584  10.720  1.00  0.00    -0.349 N 
HETATM    5  C   UNL     1     -41.354 -48.663  11.490  1.00  0.00     0.236 C 
HETATM    6  O   UNL     1     -41.182 -47.982  12.503  1.00  0.00    -0.272 OA
HETATM    7  H   UNL     1     -42.594 -49.154   9.889  1.00  0.00     0.163 HD
BRANCH   5   8
HETATM    8  C   UNL     1     -40.314 -49.692  11.007  1.00  0.00     0.226 C 
BRANCH   8   9
HETATM    9  N   UNL     1     -40.729 -51.069  11.248  1.00  0.00    -0.339 N 
HETATM   10  C   UNL     1     -40.419 -51.692  12.442  1.00  0.00     0.299 C 
HETATM   11  O   UNL     1     -39.830 -51.125  13.357  1.00  0.00    -0.254 OA
HETATM   12  N   UNL     1     -40.943 -52.975  12.477  1.00  0.00    -0.207 NA
HETATM   13  H   UNL     1     -41.882 -52.956  12.103  1.00  0.00     0.138 HD
HETATM   14  H   UNL     1     -40.785 -51.666  10.432  1.00  0.00     0.164 HD
BRANCH  12  15
HETATM   15  C   UNL     1     -40.809 -53.757  13.663  1.00  0.00     0.060 A 
HETATM   16  C   UNL     1     -39.518 -54.172  14.014  1.00  0.00     0.029 A 
HETATM   17  C   UNL     1     -39.329 -54.963  15.135  1.00  0.00     0.019 A 
HETATM   18  C   UNL     1     -40.440 -55.303  15.877  1.00  0.00     0.090 A 
HETATM   19  N   UNL     1     -41.698 -54.895  15.582  1.00  0.00    -0.351 N 
HETATM   20  C   UNL     1     -41.902 -54.104  14.493  1.00  0.00     0.125 A 
ATOM     21  HN  UNL     1     -42.482 -55.177  16.170  1.00  0.00     0.166 HD
BRANCH  20  22
HETATM   22  N   UNL     1     -43.188 -53.626  14.287  1.00  0.00    -0.366 N 
HETATM   23  C   UNL     1     -43.488 -52.213  14.500  1.00  0.00     0.124 C 
HETATM   24  C   UNL     1     -44.623 -51.887  13.527  1.00  0.00     0.021 C 
HETATM   25  C   UNL     1     -44.615 -53.016  12.513  1.00  0.00     0.021 C 
HETATM   26  C   UNL     1     -44.055 -54.208  13.274  1.00  0.00     0.124 C 
ENDBRANCH  20  22
ENDBRANCH  12  15
ENDBRANCH   8   9
ENDBRANCH   5   8
ENDBRANCH   1   4
TORSDOF 5
ENDMDL
