MODEL 1
REMARK VINA RESULT:      -6.5      0.000      0.000
REMARK  5 active torsions:
REMARK  status: ('A' for Active; 'I' for Inactive)
REMARK    1  A    between atoms: N_5  and  C_6 
REMARK    2  A    between atoms: C_6  and  C_7 
REMARK    3  A    between atoms: C_7  and  O_8 
REMARK    4  A    between atoms: C_7  and  C_9 
REMARK    5  A    between atoms: C_9  and  N_10 
ROOT
HETATM    1  N   UNL     1     -41.001 -47.545  11.231  1.00  0.00    -0.339 N 
HETATM    2  C   UNL     1     -40.165 -46.514  10.900  1.00  0.00     0.184 A 
HETATM    3  N   UNL     1     -40.764 -45.625  10.145  1.00  0.00    -0.350 N 
ATOM      4  HN  UNL     1     -40.361 -44.774   9.752  1.00  0.00     0.166 HD
HETATM    5  C   UNL     1     -42.047 -46.084   9.996  1.00  0.00     0.063 A 
HETATM    6  C   UNL     1     -43.126 -45.493   9.324  1.00  0.00     0.077 A 
HETATM    7  C   UNL     1     -44.339 -46.179   9.299  1.00  0.00     0.157 A 
HETATM    8  F   UNL     1     -45.384 -45.628   8.665  1.00  0.00    -0.203 F 
HETATM    9  C   UNL     1     -44.484 -47.415   9.919  1.00  0.00     0.157 A 
HETATM   10  F   UNL     1     -45.662 -48.054   9.868  1.00  0.00    -0.203 F 
HETATM   11  C   UNL     1     -43.430 -48.017  10.612  1.00  0.00     0.077 A 
HETATM   12  C   UNL     1     -42.218 -47.316  10.633  1.00  0.00     0.065 A 
ENDROOT
BRANCH   1  13
HETATM   13  C   UNL     1     -40.666 -48.617  12.152  1.00  0.00     0.163 C 
BRANCH  13  14
HETATM   14  C   UNL     1     -39.754 -49.653  11.483  1.00  0.00     0.164 C 
BRANCH  14  15
HETATM   15  C   UNL     1     -39.538 -50.878  12.408  1.00  0.00     0.305 C 
BRANCH  15  16
HETATM   16  N   UNL     1     -40.691 -51.197  13.275  1.00  0.00     0.091 N 
HETATM   17  C   UNL     1     -40.265 -51.614  14.623  1.00  0.00     0.273 C 
HETATM   18  C   UNL     1     -39.599 -52.995  14.665  1.00  0.00     0.034 C 
HETATM   19  C   UNL     1     -40.449 -54.084  14.005  1.00  0.00    -0.015 C 
HETATM   20  C   UNL     1     -41.593 -54.538  14.928  1.00  0.00     0.010 C 
HETATM   21  C   UNL     1     -40.985 -53.614  12.646  1.00  0.00     0.034 C 
HETATM   22  C   UNL     1     -41.600 -52.213  12.715  1.00  0.00     0.273 C 
ENDBRANCH  15  16
ENDBRANCH  14  15
BRANCH  14  23
HETATM   23  O   UNL     1     -40.355 -50.054  10.244  1.00  0.00    -0.392 OA
HETATM   24  H   UNL     1     -39.809 -50.759   9.852  1.00  0.00     0.210 HD
ENDBRANCH  14  23
ENDBRANCH  13  14
ENDBRANCH   1  13
TORSDOF 5
ENDMDL
MODEL 2
REMARK VINA RESULT:      -6.4      2.543      6.781
REMARK  5 active torsions:
REMARK  status: ('A' for Active; 'I' for Inactive)
REMARK    1  A    between atoms: N_5  and  C_6 
REMARK    2  A    between atoms: C_6  and  C_7 
REMARK    3  A    between atoms: C_7  and  O_8 
REMARK    4  A    between atoms: C_7  and  C_9 
REMARK    5  A    between atoms: C_9  and  N_10 
ROOT
HETATM    1  N   UNL     1     -41.471 -51.654  12.710  1.00  0.00    -0.339 N 
HETATM    2  C   UNL     1     -40.895 -52.843  12.356  1.00  0.00     0.184 A 
HETATM    3  N   UNL     1     -41.757 -53.831  12.392  1.00  0.00    -0.350 N 
ATOM      4  HN  UNL     1     -41.580 -54.815  12.187  1.00  0.00     0.166 HD
HETATM    5  C   UNL     1     -42.945 -53.259  12.764  1.00  0.00     0.063 A 
HETATM    6  C   UNL     1     -44.206 -53.853  12.907  1.00  0.00     0.077 A 
HETATM    7  C   UNL     1     -45.268 -53.050  13.322  1.00  0.00     0.157 A 
HETATM    8  F   UNL     1     -46.482 -53.599  13.461  1.00  0.00    -0.203 F 
HETATM    9  C   UNL     1     -45.089 -51.697  13.590  1.00  0.00     0.157 A 
HETATM   10  F   UNL     1     -46.128 -50.955  13.998  1.00  0.00    -0.203 F 
HETATM   11  C   UNL     1     -43.846 -51.076  13.436  1.00  0.00     0.077 A 
HETATM   12  C   UNL     1     -42.790 -51.894  13.015  1.00  0.00     0.065 A 
ENDROOT
BRANCH   1  13
HETATM   13  C   UNL     1     -40.805 -50.364  12.651  1.00  0.00     0.163 C 
BRANCH  13  14
HETATM   14  C   UNL     1     -41.213 -49.591  11.391  1.00  0.00     0.164 C 
BRANCH  14  15
HETATM   15  C   UNL     1     -41.133 -48.062  11.631  1.00  0.00     0.305 C 
BRANCH  15  16
HETATM   16  N   UNL     1     -42.446 -47.395  11.757  1.00  0.00     0.091 N 
HETATM   17  C   UNL     1     -43.441 -47.962  10.829  1.00  0.00     0.273 C 
HETATM   18  C   UNL     1     -43.185 -47.617   9.357  1.00  0.00     0.034 C 
HETATM   19  C   UNL     1     -43.019 -46.114   9.119  1.00  0.00    -0.015 C 
HETATM   20  C   UNL     1     -44.378 -45.393   9.118  1.00  0.00     0.010 C 
HETATM   21  C   UNL     1     -42.065 -45.497  10.152  1.00  0.00     0.034 C 
HETATM   22  C   UNL     1     -42.395 -45.933  11.583  1.00  0.00     0.273 C 
ENDBRANCH  15  16
ENDBRANCH  14  15
BRANCH  14  23
HETATM   23  O   UNL     1     -40.346 -49.981  10.317  1.00  0.00    -0.392 OA
HETATM   24  H   UNL     1     -39.449 -49.655  10.513  1.00  0.00     0.210 HD
ENDBRANCH  14  23
ENDBRANCH  13  14
ENDBRANCH   1  13
TORSDOF 5
ENDMDL
MODEL 3
REMARK VINA RESULT:      -6.3      2.756      6.802
REMARK  5 active torsions:
REMARK  status: ('A' for Active; 'I' for Inactive)
REMARK    1  A    between atoms: N_5  and  C_6 
REMARK    2  A    between atoms: C_6  and  C_7 
REMARK    3  A    between atoms: C_7  and  O_8 
REMARK    4  A    between atoms: C_7  and  C_9 
REMARK    5  A    between atoms: C_9  and  N_10 
ROOT
HETATM    1  N   UNL     1     -41.433 -51.334  12.626  1.00  0.00    -0.339 N 
HETATM    2  C   UNL     1     -40.819 -52.473  12.185  1.00  0.00     0.184 A 
HETATM    3  N   UNL     1     -41.653 -53.483  12.123  1.00  0.00    -0.350 N 
ATOM      4  HN  UNL     1     -41.445 -54.441  11.841  1.00  0.00     0.166 HD
HETATM    5  C   UNL     1     -42.863 -52.976  12.517  1.00  0.00     0.063 A 
HETATM    6  C   UNL     1     -44.110 -53.613  12.586  1.00  0.00     0.077 A 
HETATM    7  C   UNL     1     -45.200 -52.875  13.046  1.00  0.00     0.157 A 
HETATM    8  F   UNL     1     -46.401 -53.465  13.115  1.00  0.00    -0.203 F 
HETATM    9  C   UNL     1     -45.063 -51.545  13.428  1.00  0.00     0.157 A 
HETATM   10  F   UNL     1     -46.130 -50.867  13.876  1.00  0.00    -0.203 F 
HETATM   11  C   UNL     1     -43.836 -50.881  13.351  1.00  0.00     0.077 A 
HETATM   12  C   UNL     1     -42.750 -51.632  12.884  1.00  0.00     0.065 A 
ENDROOT
BRANCH   1  13
HETATM   13  C   UNL     1     -40.803 -50.026  12.686  1.00  0.00     0.163 C 
BRANCH  13  14
HETATM   14  C   UNL     1     -41.008 -49.254  11.377  1.00  0.00     0.164 C 
BRANCH  14  15
HETATM   15  C   UNL     1     -40.322 -47.866  11.441  1.00  0.00     0.305 C 
BRANCH  15  16
HETATM   16  N   UNL     1     -41.252 -46.735  11.642  1.00  0.00     0.091 N 
HETATM   17  C   UNL     1     -41.227 -45.796  10.507  1.00  0.00     0.273 C 
HETATM   18  C   UNL     1     -39.936 -44.974  10.409  1.00  0.00     0.034 C 
HETATM   19  C   UNL     1     -39.590 -44.254  11.714  1.00  0.00    -0.015 C 
HETATM   20  C   UNL     1     -40.452 -42.994  11.906  1.00  0.00     0.010 C 
HETATM   21  C   UNL     1     -39.718 -45.201  12.914  1.00  0.00     0.034 C 
HETATM   22  C   UNL     1     -41.030 -45.992  12.895  1.00  0.00     0.273 C 
ENDBRANCH  15  16
ENDBRANCH  14  15
BRANCH  14  23
HETATM   23  O   UNL     1     -40.472 -50.035  10.300  1.00  0.00    -0.392 OA
HETATM   24  H   UNL     1     -39.526 -50.189  10.473  1.00  0.00     0.210 HD
ENDBRANCH  14  23
ENDBRANCH  13  14
ENDBRANCH   1  13
TORSDOF 5
ENDMDL
MODEL 4
REMARK VINA RESULT:      -6.3      3.036      4.510
REMARK  5 active torsions:
REMARK  status: ('A' for Active; 'I' for Inactive)
REMARK    1  A    between atoms: N_5  and  C_6 
REMARK    2  A    between atoms: C_6  and  C_7 
REMARK    3  A    between atoms: C_7  and  O_8 
REMARK    4  A    between atoms: C_7  and  C_9 
REMARK    5  A    between atoms: C_9  and  N_10 
ROOT
HETATM    1  N   UNL     1     -40.698 -50.335  13.110  1.00  0.00    -0.339 N 
HETATM    2  C   UNL     1     -40.240 -50.435  14.395  1.00  0.00     0.184 A 
HETATM    3  N   UNL     1     -40.692 -49.461  15.149  1.00  0.00    -0.350 N 
ATOM      4  HN  UNL     1     -40.490 -49.297  16.136  1.00  0.00     0.166 HD
HETATM    5  C   UNL     1     -41.492 -48.711  14.328  1.00  0.00     0.063 A 
HETATM    6  C   UNL     1     -42.262 -47.581  14.634  1.00  0.00     0.077 A 
HETATM    7  C   UNL     1     -42.982 -46.977  13.604  1.00  0.00     0.157 A 
HETATM    8  F   UNL     1     -43.728 -45.898  13.878  1.00  0.00    -0.203 F 
HETATM    9  C   UNL     1     -42.942 -47.476  12.306  1.00  0.00     0.157 A 
HETATM   10  F   UNL     1     -43.639 -46.866  11.336  1.00  0.00    -0.203 F 
HETATM   11  C   UNL     1     -42.198 -48.612  11.978  1.00  0.00     0.077 A 
HETATM   12  C   UNL     1     -41.482 -49.210  13.023  1.00  0.00     0.065 A 
ENDROOT
BRANCH   1  13
HETATM   13  C   UNL     1     -40.470 -51.328  12.074  1.00  0.00     0.163 C 
BRANCH  13  14
HETATM   14  C   UNL     1     -41.132 -52.664  12.435  1.00  0.00     0.164 C 
BRANCH  14  15
HETATM   15  C   UNL     1     -42.670 -52.582  12.267  1.00  0.00     0.305 C 
BRANCH  15  16
HETATM   16  N   UNL     1     -43.437 -53.026  13.449  1.00  0.00     0.091 N 
HETATM   17  C   UNL     1     -44.743 -53.595  13.074  1.00  0.00     0.273 C 
HETATM   18  C   UNL     1     -45.750 -52.557  12.564  1.00  0.00     0.034 C 
HETATM   19  C   UNL     1     -45.930 -51.381  13.528  1.00  0.00    -0.015 C 
HETATM   20  C   UNL     1     -46.829 -51.763  14.717  1.00  0.00     0.010 C 
HETATM   21  C   UNL     1     -44.571 -50.852  14.007  1.00  0.00     0.034 C 
HETATM   22  C   UNL     1     -43.636 -51.976  14.464  1.00  0.00     0.273 C 
ENDBRANCH  15  16
ENDBRANCH  14  15
BRANCH  14  23
HETATM   23  O   UNL     1     -40.584 -53.685  11.590  1.00  0.00    -0.392 OA
HETATM   24  H   UNL     1     -40.661 -54.540  12.050  1.00  0.00     0.210 HD
ENDBRANCH  14  23
ENDBRANCH  13  14
ENDBRANCH   1  13
TORSDOF 5
ENDMDL
MODEL 5
REMARK VINA RESULT:      -6.2      3.190      6.982
REMARK  5 active torsions:
REMARK  status: ('A' for Active; 'I' for Inactive)
REMARK    1  A    between atoms: N_5  and  C_6 
REMARK    2  A    between atoms: C_6  and  C_7 
REMARK    3  A    between atoms: C_7  and  O_8 
REMARK    4  A    between atoms: C_7  and  C_9 
REMARK    5  A    between atoms: C_9  and  N_10 
ROOT
HETATM    1  N   UNL     1     -42.264 -53.244  14.167  1.00  0.00    -0.339 N 
HETATM    2  C   UNL     1     -42.035 -54.538  14.547  1.00  0.00     0.184 A 
HETATM    3  N   UNL     1     -43.149 -55.161  14.845  1.00  0.00    -0.350 N 
ATOM      4  HN  UNL     1     -43.253 -56.124  15.168  1.00  0.00     0.166 HD
HETATM    5  C   UNL     1     -44.144 -54.245  14.629  1.00  0.00     0.063 A 
HETATM    6  C   UNL     1     -45.532 -54.401  14.746  1.00  0.00     0.077 A 
HETATM    7  C   UNL     1     -46.342 -53.296  14.489  1.00  0.00     0.157 A 
HETATM    8  F   UNL     1     -47.672 -53.427  14.591  1.00  0.00    -0.203 F 
HETATM    9  C   UNL     1     -45.797 -52.069  14.127  1.00  0.00     0.157 A 
HETATM   10  F   UNL     1     -46.603 -51.023  13.897  1.00  0.00    -0.203 F 
HETATM   11  C   UNL     1     -44.418 -51.891  13.985  1.00  0.00     0.077 A 
HETATM   12  C   UNL     1     -43.616 -53.010  14.243  1.00  0.00     0.065 A 
ENDROOT
BRANCH   1  13
HETATM   13  C   UNL     1     -41.245 -52.339  13.664  1.00  0.00     0.163 C 
BRANCH  13  14
HETATM   14  C   UNL     1     -41.342 -52.190  12.140  1.00  0.00     0.164 C 
BRANCH  14  15
HETATM   15  C   UNL     1     -40.842 -50.795  11.688  1.00  0.00     0.305 C 
BRANCH  15  16
HETATM   16  N   UNL     1     -41.329 -49.674  12.520  1.00  0.00     0.091 N 
HETATM   17  C   UNL     1     -42.391 -48.909  11.843  1.00  0.00     0.273 C 
HETATM   18  C   UNL     1     -41.893 -48.073  10.657  1.00  0.00     0.034 C 
HETATM   19  C   UNL     1     -40.720 -47.161  11.023  1.00  0.00    -0.015 C 
HETATM   20  C   UNL     1     -41.196 -45.913  11.786  1.00  0.00     0.010 C 
HETATM   21  C   UNL     1     -39.658 -47.929  11.823  1.00  0.00     0.034 C 
HETATM   22  C   UNL     1     -40.269 -48.751  12.962  1.00  0.00     0.273 C 
ENDBRANCH  15  16
ENDBRANCH  14  15
BRANCH  14  23
HETATM   23  O   UNL     1     -40.563 -53.229  11.532  1.00  0.00    -0.392 OA
HETATM   24  H   UNL     1     -40.580 -54.008  12.115  1.00  0.00     0.210 HD
ENDBRANCH  14  23
ENDBRANCH  13  14
ENDBRANCH   1  13
TORSDOF 5
ENDMDL
MODEL 6
REMARK VINA RESULT:      -6.2      4.365      5.563
REMARK  5 active torsions:
REMARK  status: ('A' for Active; 'I' for Inactive)
REMARK    1  A    between atoms: N_5  and  C_6 
REMARK    2  A    between atoms: C_6  and  C_7 
REMARK    3  A    between atoms: C_7  and  O_8 
REMARK    4  A    between atoms: C_7  and  C_9 
REMARK    5  A    between atoms: C_9  and  N_10 
ROOT
HETATM    1  N   UNL     1     -42.492 -51.937  12.470  1.00  0.00    -0.339 N 
HETATM    2  C   UNL     1     -42.695 -50.591  12.601  1.00  0.00     0.184 A 
HETATM    3  N   UNL     1     -43.887 -50.323  13.075  1.00  0.00    -0.350 N 
ATOM      4  HN  UNL     1     -44.290 -49.402  13.252  1.00  0.00     0.166 HD
HETATM    5  C   UNL     1     -44.476 -51.543  13.281  1.00  0.00     0.063 A 
HETATM    6  C   UNL     1     -45.734 -51.837  13.823  1.00  0.00     0.077 A 
HETATM    7  C   UNL     1     -46.115 -53.176  13.909  1.00  0.00     0.157 A 
HETATM    8  F   UNL     1     -47.314 -53.478  14.428  1.00  0.00    -0.203 F 
HETATM    9  C   UNL     1     -45.277 -54.196  13.472  1.00  0.00     0.157 A 
HETATM   10  F   UNL     1     -45.678 -55.472  13.560  1.00  0.00    -0.203 F 
HETATM   11  C   UNL     1     -44.010 -53.930  12.946  1.00  0.00     0.077 A 
HETATM   12  C   UNL     1     -43.638 -52.582  12.868  1.00  0.00     0.065 A 
ENDROOT
BRANCH   1  13
HETATM   13  C   UNL     1     -41.231 -52.549  12.085  1.00  0.00     0.163 C 
BRANCH  13  14
HETATM   14  C   UNL     1     -40.082 -52.046  12.968  1.00  0.00     0.164 C 
BRANCH  14  15
HETATM   15  C   UNL     1     -39.553 -53.179  13.883  1.00  0.00     0.305 C 
BRANCH  15  16
HETATM   16  N   UNL     1     -39.858 -52.996  15.317  1.00  0.00     0.091 N 
HETATM   17  C   UNL     1     -38.938 -53.763  16.176  1.00  0.00     0.273 C 
HETATM   18  C   UNL     1     -39.156 -55.281  16.120  1.00  0.00     0.034 C 
HETATM   19  C   UNL     1     -40.608 -55.683  16.388  1.00  0.00    -0.015 C 
HETATM   20  C   UNL     1     -40.937 -55.627  17.890  1.00  0.00     0.010 C 
HETATM   21  C   UNL     1     -41.577 -54.813  15.576  1.00  0.00     0.034 C 
HETATM   22  C   UNL     1     -41.249 -53.321  15.681  1.00  0.00     0.273 C 
ENDBRANCH  15  16
ENDBRANCH  14  15
BRANCH  14  23
HETATM   23  O   UNL     1     -39.038 -51.552  12.117  1.00  0.00    -0.392 OA
HETATM   24  H   UNL     1     -39.062 -50.579  12.135  1.00  0.00     0.210 HD
ENDBRANCH  14  23
ENDBRANCH  13  14
ENDBRANCH   1  13
TORSDOF 5
ENDMDL
MODEL 7
REMARK VINA RESULT:      -6.2      5.036      7.016
REMARK  5 active torsions:
REMARK  status: ('A' for Active; 'I' for Inactive)
REMARK    1  A    between atoms: N_5  and  C_6 
REMARK    2  A    between atoms: C_6  and  C_7 
REMARK    3  A    between atoms: C_7  and  O_8 
REMARK    4  A    between atoms: C_7  and  C_9 
REMARK    5  A    between atoms: C_9  and  N_10 
ROOT
HETATM    1  N   UNL     1     -39.550 -51.583  13.923  1.00  0.00    -0.339 N 
HETATM    2  C   UNL     1     -39.614 -52.581  14.856  1.00  0.00     0.184 A 
HETATM    3  N   UNL     1     -38.832 -52.340  15.880  1.00  0.00    -0.350 N 
ATOM      4  HN  UNL     1     -38.686 -52.930  16.700  1.00  0.00     0.166 HD
HETATM    5  C   UNL     1     -38.252 -51.127  15.614  1.00  0.00     0.063 A 
HETATM    6  C   UNL     1     -37.369 -50.377  16.402  1.00  0.00     0.077 A 
HETATM    7  C   UNL     1     -36.898 -49.168  15.891  1.00  0.00     0.157 A 
HETATM    8  F   UNL     1     -36.056 -48.434  16.632  1.00  0.00    -0.203 F 
HETATM    9  C   UNL     1     -37.288 -48.712  14.637  1.00  0.00     0.157 A 
HETATM   10  F   UNL     1     -36.809 -47.550  14.171  1.00  0.00    -0.203 F 
HETATM   11  C   UNL     1     -38.183 -49.432  13.839  1.00  0.00     0.077 A 
HETATM   12  C   UNL     1     -38.650 -50.643  14.366  1.00  0.00     0.065 A 
ENDROOT
BRANCH   1  13
HETATM   13  C   UNL     1     -40.388 -51.505  12.739  1.00  0.00     0.163 C 
BRANCH  13  14
HETATM   14  C   UNL     1     -41.104 -52.836  12.481  1.00  0.00     0.164 C 
BRANCH  14  15
HETATM   15  C   UNL     1     -42.631 -52.623  12.332  1.00  0.00     0.305 C 
BRANCH  15  16
HETATM   16  N   UNL     1     -43.422 -53.039  13.508  1.00  0.00     0.091 N 
HETATM   17  C   UNL     1     -44.735 -53.586  13.121  1.00  0.00     0.273 C 
HETATM   18  C   UNL     1     -45.714 -52.532  12.588  1.00  0.00     0.034 C 
HETATM   19  C   UNL     1     -45.882 -51.343  13.537  1.00  0.00    -0.015 C 
HETATM   20  C   UNL     1     -46.804 -51.694  14.718  1.00  0.00     0.010 C 
HETATM   21  C   UNL     1     -44.519 -50.837  14.029  1.00  0.00     0.034 C 
HETATM   22  C   UNL     1     -43.613 -51.975  14.509  1.00  0.00     0.273 C 
ENDBRANCH  15  16
ENDBRANCH  14  15
BRANCH  14  23
HETATM   23  O   UNL     1     -40.556 -53.423  11.292  1.00  0.00    -0.392 OA
HETATM   24  H   UNL     1     -40.081 -54.236  11.541  1.00  0.00     0.210 HD
ENDBRANCH  14  23
ENDBRANCH  13  14
ENDBRANCH   1  13
TORSDOF 5
ENDMDL
MODEL 8
REMARK VINA RESULT:      -6.2      3.588      5.297
REMARK  5 active torsions:
REMARK  status: ('A' for Active; 'I' for Inactive)
REMARK    1  A    between atoms: N_5  and  C_6 
REMARK    2  A    between atoms: C_6  and  C_7 
REMARK    3  A    between atoms: C_7  and  O_8 
REMARK    4  A    between atoms: C_7  and  C_9 
REMARK    5  A    between atoms: C_9  and  N_10 
ROOT
HETATM    1  N   UNL     1     -39.940 -50.405  12.701  1.00  0.00    -0.339 N 
HETATM    2  C   UNL     1     -39.243 -51.033  13.697  1.00  0.00     0.184 A 
HETATM    3  N   UNL     1     -38.596 -50.177  14.452  1.00  0.00    -0.350 N 
ATOM      4  HN  UNL     1     -37.994 -50.387  15.249  1.00  0.00     0.166 HD
HETATM    5  C   UNL     1     -38.901 -48.943  13.941  1.00  0.00     0.063 A 
HETATM    6  C   UNL     1     -38.517 -47.676  14.400  1.00  0.00     0.077 A 
HETATM    7  C   UNL     1     -38.947 -46.560  13.684  1.00  0.00     0.157 A 
HETATM    8  F   UNL     1     -38.593 -45.339  14.110  1.00  0.00    -0.203 F 
HETATM    9  C   UNL     1     -39.735 -46.691  12.546  1.00  0.00     0.157 A 
HETATM   10  F   UNL     1     -40.124 -45.597  11.874  1.00  0.00    -0.203 F 
HETATM   11  C   UNL     1     -40.148 -47.941  12.078  1.00  0.00     0.077 A 
HETATM   12  C   UNL     1     -39.712 -49.054  12.809  1.00  0.00     0.065 A 
ENDROOT
BRANCH   1  13
HETATM   13  C   UNL     1     -40.845 -51.071  11.781  1.00  0.00     0.163 C 
BRANCH  13  14
HETATM   14  C   UNL     1     -41.232 -52.462  12.298  1.00  0.00     0.164 C 
BRANCH  14  15
HETATM   15  C   UNL     1     -42.758 -52.694  12.171  1.00  0.00     0.305 C 
BRANCH  15  16
HETATM   16  N   UNL     1     -43.438 -52.991  13.449  1.00  0.00     0.091 N 
HETATM   17  C   UNL     1     -44.764 -53.600  13.237  1.00  0.00     0.273 C 
HETATM   18  C   UNL     1     -45.811 -52.628  12.678  1.00  0.00     0.034 C 
HETATM   19  C   UNL     1     -45.931 -51.345  13.504  1.00  0.00    -0.015 C 
HETATM   20  C   UNL     1     -46.742 -51.579  14.790  1.00  0.00     0.010 C 
HETATM   21  C   UNL     1     -44.546 -50.764  13.820  1.00  0.00     0.034 C 
HETATM   22  C   UNL     1     -43.573 -51.827  14.342  1.00  0.00     0.273 C 
ENDBRANCH  15  16
ENDBRANCH  14  15
BRANCH  14  23
HETATM   23  O   UNL     1     -40.506 -53.444  11.545  1.00  0.00    -0.392 OA
HETATM   24  H   UNL     1     -40.184 -54.127  12.161  1.00  0.00     0.210 HD
ENDBRANCH  14  23
ENDBRANCH  13  14
ENDBRANCH   1  13
TORSDOF 5
ENDMDL
MODEL 9
REMARK VINA RESULT:      -6.1      4.295      6.418
REMARK  5 active torsions:
REMARK  status: ('A' for Active; 'I' for Inactive)
REMARK    1  A    between atoms: N_5  and  C_6 
REMARK    2  A    between atoms: C_6  and  C_7 
REMARK    3  A    between atoms: C_7  and  O_8 
REMARK    4  A    between atoms: C_7  and  C_9 
REMARK    5  A    between atoms: C_9  and  N_10 
ROOT
HETATM    1  N   UNL     1     -43.270 -53.172  13.552  1.00  0.00    -0.339 N 
HETATM    2  C   UNL     1     -43.944 -54.102  12.809  1.00  0.00     0.184 A 
HETATM    3  N   UNL     1     -45.239 -54.036  13.007  1.00  0.00    -0.350 N 
ATOM      4  HN  UNL     1     -45.960 -54.624  12.588  1.00  0.00     0.166 HD
HETATM    5  C   UNL     1     -45.417 -53.009  13.896  1.00  0.00     0.063 A 
HETATM    6  C   UNL     1     -46.608 -52.479  14.409  1.00  0.00     0.077 A 
HETATM    7  C   UNL     1     -46.520 -51.435  15.328  1.00  0.00     0.157 A 
HETATM    8  F   UNL     1     -47.649 -50.912  15.828  1.00  0.00    -0.203 F 
HETATM    9  C   UNL     1     -45.289 -50.927  15.730  1.00  0.00     0.157 A 
HETATM   10  F   UNL     1     -45.240 -49.928  16.624  1.00  0.00    -0.203 F 
HETATM   11  C   UNL     1     -44.087 -51.424  15.219  1.00  0.00     0.077 A 
HETATM   12  C   UNL     1     -44.190 -52.471  14.294  1.00  0.00     0.065 A 
ENDROOT
BRANCH   1  13
HETATM   13  C   UNL     1     -41.842 -52.918  13.459  1.00  0.00     0.163 C 
BRANCH  13  14
HETATM   14  C   UNL     1     -41.468 -52.374  12.075  1.00  0.00     0.164 C 
BRANCH  14  15
HETATM   15  C   UNL     1     -40.667 -51.053  12.200  1.00  0.00     0.305 C 
BRANCH  15  16
HETATM   16  N   UNL     1     -40.049 -50.838  13.525  1.00  0.00     0.091 N 
HETATM   17  C   UNL     1     -40.328 -49.488  14.048  1.00  0.00     0.273 C 
HETATM   18  C   UNL     1     -39.592 -48.368  13.303  1.00  0.00     0.034 C 
HETATM   19  C   UNL     1     -38.083 -48.610  13.209  1.00  0.00    -0.015 C 
HETATM   20  C   UNL     1     -37.378 -48.278  14.535  1.00  0.00     0.010 C 
HETATM   21  C   UNL     1     -37.785 -50.049  12.767  1.00  0.00     0.034 C 
HETATM   22  C   UNL     1     -38.596 -51.081  13.556  1.00  0.00     0.273 C 
ENDBRANCH  15  16
ENDBRANCH  14  15
BRANCH  14  23
HETATM   23  O   UNL     1     -40.698 -53.370  11.388  1.00  0.00    -0.392 OA
HETATM   24  H   UNL     1     -39.756 -53.222  11.588  1.00  0.00     0.210 HD
ENDBRANCH  14  23
ENDBRANCH  13  14
ENDBRANCH   1  13
TORSDOF 5
ENDMDL
