MODEL 1
REMARK VINA RESULT:      -5.9      0.000      0.000
REMARK  4 active torsions:
REMARK  status: ('A' for Active; 'I' for Inactive)
REMARK    1  A    between atoms: C_2  and  C_3 
REMARK    2  A    between atoms: C_3  and  C_5 
REMARK       I    between atoms: C_5  and  N_7 
REMARK    3  A    between atoms: N_7  and  C_8 
REMARK    4  A    between atoms: C_11  and  N_15 
ROOT
HETATM    1  C   UNL     1     -41.310 -47.819  10.639  1.00  0.00     0.107 A 
HETATM    2  C   UNL     1     -40.570 -46.967  11.444  1.00  0.00     0.051 A 
HETATM    3  C   UNL     1     -39.519 -47.495  12.211  1.00  0.00     0.034 A 
HETATM    4  C   UNL     1     -39.191 -48.856  12.178  1.00  0.00     0.046 A 
HETATM    5  C   UNL     1     -40.035 -49.610  11.365  1.00  0.00     0.119 A 
HETATM    6  N   UNL     1     -41.055 -49.132  10.611  1.00  0.00    -0.350 N 
ATOM      7  HN  UNL     1     -41.616 -49.759  10.034  1.00  0.00     0.166 HD
ENDROOT
BRANCH   1   8
HETATM    8  N   UNL     1     -42.312 -47.275   9.819  1.00  0.00    -0.313 N 
HETATM    9  C   UNL     1     -43.669 -47.446  10.037  1.00  0.00     0.227 C 
HETATM   10  O   UNL     1     -44.177 -48.007  11.005  1.00  0.00    -0.273 OA
HETATM   11  H   UNL     1     -42.011 -46.755   9.009  1.00  0.00     0.170 HD
BRANCH   9  12
HETATM   12  C   UNL     1     -44.556 -46.867   8.921  1.00  0.00     0.074 C 
HETATM   13  C   UNL     1     -44.423 -45.347   8.856  1.00  0.00     0.020 C 
BRANCH  12  14
HETATM   14  C   UNL     1     -46.015 -47.313   9.162  1.00  0.00     0.009 C 
HETATM   15  C   UNL     1     -46.453 -48.543   8.383  1.00  0.00     0.006 C 
ENDBRANCH  12  14
ENDBRANCH   9  12
ENDBRANCH   1   8
BRANCH   4  16
HETATM   16  N   UNL     1     -38.152 -49.385  12.922  1.00  0.00    -0.376 N 
HETATM   17  C   UNL     1     -37.936 -50.843  13.020  1.00  0.00     0.149 C 
HETATM   18  C   UNL     1     -38.245 -51.344  14.444  1.00  0.00     0.187 C 
HETATM   19  O   UNL     1     -37.519 -50.615  15.445  1.00  0.00    -0.388 OA
HETATM   20  C   UNL     1     -37.849 -49.216  15.376  1.00  0.00     0.187 C 
HETATM   21  C   UNL     1     -37.480 -48.636  14.003  1.00  0.00     0.149 C 
ENDBRANCH   4  16
TORSDOF 4
ENDMDL
MODEL 2
REMARK VINA RESULT:      -5.7      3.061      6.574
REMARK  4 active torsions:
REMARK  status: ('A' for Active; 'I' for Inactive)
REMARK    1  A    between atoms: C_2  and  C_3 
REMARK    2  A    between atoms: C_3  and  C_5 
REMARK       I    between atoms: C_5  and  N_7 
REMARK    3  A    between atoms: N_7  and  C_8 
REMARK    4  A    between atoms: C_11  and  N_15 
ROOT
HETATM    1  C   UNL     1     -40.474 -49.808  11.466  1.00  0.00     0.107 A 
HETATM    2  C   UNL     1     -39.558 -48.872  11.920  1.00  0.00     0.051 A 
HETATM    3  C   UNL     1     -39.772 -47.514  11.633  1.00  0.00     0.034 A 
HETATM    4  C   UNL     1     -40.889 -47.078  10.910  1.00  0.00     0.046 A 
HETATM    5  C   UNL     1     -41.708 -48.118  10.475  1.00  0.00     0.119 A 
HETATM    6  N   UNL     1     -41.532 -49.437  10.737  1.00  0.00    -0.350 N 
ATOM      7  HN  UNL     1     -42.192 -50.131  10.385  1.00  0.00     0.166 HD
ENDROOT
BRANCH   1   8
HETATM    8  N   UNL     1     -40.295 -51.157  11.818  1.00  0.00    -0.313 N 
HETATM    9  C   UNL     1     -41.309 -51.976  12.285  1.00  0.00     0.227 C 
HETATM   10  O   UNL     1     -42.497 -51.674  12.372  1.00  0.00    -0.273 OA
HETATM   11  H   UNL     1     -39.361 -51.529  11.748  1.00  0.00     0.170 HD
BRANCH   9  12
HETATM   12  C   UNL     1     -40.828 -53.368  12.731  1.00  0.00     0.074 C 
HETATM   13  C   UNL     1     -41.992 -54.195  13.273  1.00  0.00     0.020 C 
BRANCH  12  14
HETATM   14  C   UNL     1     -39.702 -53.196  13.775  1.00  0.00     0.009 C 
HETATM   15  C   UNL     1     -39.179 -54.489  14.382  1.00  0.00     0.006 C 
ENDBRANCH  12  14
ENDBRANCH   9  12
ENDBRANCH   1   8
BRANCH   4  16
HETATM   16  N   UNL     1     -41.114 -45.743  10.630  1.00  0.00    -0.376 N 
HETATM   17  C   UNL     1     -40.002 -44.776  10.526  1.00  0.00     0.149 C 
HETATM   18  C   UNL     1     -40.033 -43.783  11.704  1.00  0.00     0.187 C 
HETATM   19  O   UNL     1     -41.309 -43.138  11.835  1.00  0.00    -0.388 OA
HETATM   20  C   UNL     1     -42.341 -44.117  12.042  1.00  0.00     0.187 C 
HETATM   21  C   UNL     1     -42.419 -45.088  10.854  1.00  0.00     0.149 C 
ENDBRANCH   4  16
TORSDOF 4
ENDMDL
MODEL 3
REMARK VINA RESULT:      -5.4      4.942      7.269
REMARK  4 active torsions:
REMARK  status: ('A' for Active; 'I' for Inactive)
REMARK    1  A    between atoms: C_2  and  C_3 
REMARK    2  A    between atoms: C_3  and  C_5 
REMARK       I    between atoms: C_5  and  N_7 
REMARK    3  A    between atoms: N_7  and  C_8 
REMARK    4  A    between atoms: C_11  and  N_15 
ROOT
HETATM    1  C   UNL     1     -41.898 -50.420  12.580  1.00  0.00     0.107 A 
HETATM    2  C   UNL     1     -42.757 -49.809  13.481  1.00  0.00     0.051 A 
HETATM    3  C   UNL     1     -43.909 -50.496  13.897  1.00  0.00     0.034 A 
HETATM    4  C   UNL     1     -44.211 -51.782  13.435  1.00  0.00     0.046 A 
HETATM    5  C   UNL     1     -43.294 -52.266  12.504  1.00  0.00     0.119 A 
HETATM    6  N   UNL     1     -42.172 -51.631  12.083  1.00  0.00    -0.350 N 
ATOM      7  HN  UNL     1     -41.549 -52.069  11.403  1.00  0.00     0.166 HD
ENDROOT
BRANCH   1   8
HETATM    8  N   UNL     1     -40.710 -49.761  12.223  1.00  0.00    -0.313 N 
HETATM    9  C   UNL     1     -39.460 -50.355  12.241  1.00  0.00     0.227 C 
HETATM   10  O   UNL     1     -39.228 -51.538  12.478  1.00  0.00    -0.273 OA
HETATM   11  H   UNL     1     -40.784 -48.788  11.968  1.00  0.00     0.170 HD
BRANCH   9  12
HETATM   12  C   UNL     1     -38.305 -49.383  11.941  1.00  0.00     0.074 C 
HETATM   13  C   UNL     1     -37.279 -50.031  11.013  1.00  0.00     0.020 C 
BRANCH  12  14
HETATM   14  C   UNL     1     -37.675 -48.930  13.276  1.00  0.00     0.009 C 
HETATM   15  C   UNL     1     -38.336 -47.725  13.927  1.00  0.00     0.006 C 
ENDBRANCH  12  14
ENDBRANCH   9  12
ENDBRANCH   1   8
BRANCH   4  16
HETATM   16  N   UNL     1     -45.337 -52.470  13.845  1.00  0.00    -0.376 N 
HETATM   17  C   UNL     1     -45.890 -52.310  15.206  1.00  0.00     0.149 C 
HETATM   18  C   UNL     1     -45.693 -53.598  16.028  1.00  0.00     0.187 C 
HETATM   19  O   UNL     1     -46.218 -54.754  15.358  1.00  0.00    -0.388 OA
HETATM   20  C   UNL     1     -45.570 -54.926  14.085  1.00  0.00     0.187 C 
HETATM   21  C   UNL     1     -45.806 -53.706  13.183  1.00  0.00     0.149 C 
ENDBRANCH   4  16
TORSDOF 4
ENDMDL
MODEL 4
REMARK VINA RESULT:      -5.4      3.027      7.110
REMARK  4 active torsions:
REMARK  status: ('A' for Active; 'I' for Inactive)
REMARK    1  A    between atoms: C_2  and  C_3 
REMARK    2  A    between atoms: C_3  and  C_5 
REMARK       I    between atoms: C_5  and  N_7 
REMARK    3  A    between atoms: N_7  and  C_8 
REMARK    4  A    between atoms: C_11  and  N_15 
ROOT
HETATM    1  C   UNL     1     -42.089 -50.237  12.263  1.00  0.00     0.107 A 
HETATM    2  C   UNL     1     -43.075 -49.293  12.507  1.00  0.00     0.051 A 
HETATM    3  C   UNL     1     -43.106 -48.124  11.729  1.00  0.00     0.034 A 
HETATM    4  C   UNL     1     -42.177 -47.889  10.709  1.00  0.00     0.046 A 
HETATM    5  C   UNL     1     -41.215 -48.892  10.594  1.00  0.00     0.119 A 
HETATM    6  N   UNL     1     -41.158 -50.032  11.325  1.00  0.00    -0.350 N 
ATOM      7  HN  UNL     1     -40.421 -50.718  11.164  1.00  0.00     0.166 HD
ENDROOT
BRANCH   1   8
HETATM    8  N   UNL     1     -42.106 -51.437  12.993  1.00  0.00    -0.313 N 
HETATM    9  C   UNL     1     -40.970 -52.067  13.474  1.00  0.00     0.227 C 
HETATM   10  O   UNL     1     -39.823 -51.631  13.409  1.00  0.00    -0.273 OA
HETATM   11  H   UNL     1     -43.003 -51.870  13.145  1.00  0.00     0.170 HD
BRANCH   9  12
HETATM   12  C   UNL     1     -41.244 -53.436  14.121  1.00  0.00     0.074 C 
HETATM   13  C   UNL     1     -40.070 -54.387  13.893  1.00  0.00     0.020 C 
BRANCH  12  14
HETATM   14  C   UNL     1     -42.566 -53.999  13.555  1.00  0.00     0.009 C 
HETATM   15  C   UNL     1     -43.405 -54.796  14.541  1.00  0.00     0.006 C 
ENDBRANCH  12  14
ENDBRANCH   9  12
ENDBRANCH   1   8
BRANCH   4  16
HETATM   16  N   UNL     1     -42.204 -46.747   9.932  1.00  0.00    -0.376 N 
HETATM   17  C   UNL     1     -41.678 -45.459  10.430  1.00  0.00     0.149 C 
HETATM   18  C   UNL     1     -42.824 -44.454  10.657  1.00  0.00     0.187 C 
HETATM   19  O   UNL     1     -43.644 -44.295   9.490  1.00  0.00    -0.388 OA
HETATM   20  C   UNL     1     -44.218 -45.558   9.111  1.00  0.00     0.187 C 
HETATM   21  C   UNL     1     -43.121 -46.581   8.784  1.00  0.00     0.149 C 
ENDBRANCH   4  16
TORSDOF 4
ENDMDL
MODEL 5
REMARK VINA RESULT:      -5.4      1.637      2.038
REMARK  4 active torsions:
REMARK  status: ('A' for Active; 'I' for Inactive)
REMARK    1  A    between atoms: C_2  and  C_3 
REMARK    2  A    between atoms: C_3  and  C_5 
REMARK       I    between atoms: C_5  and  N_7 
REMARK    3  A    between atoms: N_7  and  C_8 
REMARK    4  A    between atoms: C_11  and  N_15 
ROOT
HETATM    1  C   UNL     1     -42.940 -48.320  11.719  1.00  0.00     0.107 A 
HETATM    2  C   UNL     1     -42.702 -47.749  12.960  1.00  0.00     0.051 A 
HETATM    3  C   UNL     1     -41.726 -48.317  13.796  1.00  0.00     0.034 A 
HETATM    4  C   UNL     1     -40.980 -49.436  13.407  1.00  0.00     0.046 A 
HETATM    5  C   UNL     1     -41.344 -49.938  12.159  1.00  0.00     0.119 A 
HETATM    6  N   UNL     1     -42.278 -49.413  11.327  1.00  0.00    -0.350 N 
ATOM      7  HN  UNL     1     -42.471 -49.844  10.423  1.00  0.00     0.166 HD
ENDROOT
BRANCH   1   8
HETATM    8  N   UNL     1     -43.865 -47.706  10.858  1.00  0.00    -0.313 N 
HETATM    9  C   UNL     1     -43.655 -47.522   9.501  1.00  0.00     0.227 C 
HETATM   10  O   UNL     1     -42.695 -47.940   8.858  1.00  0.00    -0.273 OA
HETATM   11  H   UNL     1     -44.715 -47.357  11.271  1.00  0.00     0.170 HD
BRANCH   9  12
HETATM   12  C   UNL     1     -44.757 -46.702   8.807  1.00  0.00     0.074 C 
HETATM   13  C   UNL     1     -44.586 -45.212   9.097  1.00  0.00     0.020 C 
BRANCH  12  14
HETATM   14  C   UNL     1     -46.135 -47.229   9.266  1.00  0.00     0.009 C 
HETATM   15  C   UNL     1     -46.571 -48.540   8.631  1.00  0.00     0.006 C 
ENDBRANCH  12  14
ENDBRANCH   9  12
ENDBRANCH   1   8
BRANCH   4  16
HETATM   16  N   UNL     1     -40.010 -49.996  14.217  1.00  0.00    -0.376 N 
HETATM   17  C   UNL     1     -39.241 -49.182  15.180  1.00  0.00     0.149 C 
HETATM   18  C   UNL     1     -37.769 -49.064  14.738  1.00  0.00     0.187 C 
HETATM   19  O   UNL     1     -37.169 -50.347  14.504  1.00  0.00    -0.388 OA
HETATM   20  C   UNL     1     -37.892 -51.054  13.482  1.00  0.00     0.187 C 
HETATM   21  C   UNL     1     -39.351 -51.282  13.904  1.00  0.00     0.149 C 
ENDBRANCH   4  16
TORSDOF 4
ENDMDL
MODEL 6
REMARK VINA RESULT:      -5.3      4.672      7.687
REMARK  4 active torsions:
REMARK  status: ('A' for Active; 'I' for Inactive)
REMARK    1  A    between atoms: C_2  and  C_3 
REMARK    2  A    between atoms: C_3  and  C_5 
REMARK       I    between atoms: C_5  and  N_7 
REMARK    3  A    between atoms: N_7  and  C_8 
REMARK    4  A    between atoms: C_11  and  N_15 
ROOT
HETATM    1  C   UNL     1     -41.305 -51.134  12.796  1.00  0.00     0.107 A 
HETATM    2  C   UNL     1     -42.253 -50.278  13.335  1.00  0.00     0.051 A 
HETATM    3  C   UNL     1     -43.580 -50.722  13.460  1.00  0.00     0.034 A 
HETATM    4  C   UNL     1     -43.969 -52.008  13.066  1.00  0.00     0.046 A 
HETATM    5  C   UNL     1     -42.934 -52.752  12.502  1.00  0.00     0.119 A 
HETATM    6  N   UNL     1     -41.645 -52.354  12.369  1.00  0.00    -0.350 N 
ATOM      7  HN  UNL     1     -40.949 -52.974  11.952  1.00  0.00     0.166 HD
ENDROOT
BRANCH   1   8
HETATM    8  N   UNL     1     -39.966 -50.711  12.740  1.00  0.00    -0.313 N 
HETATM    9  C   UNL     1     -38.892 -51.488  13.143  1.00  0.00     0.227 C 
HETATM   10  O   UNL     1     -38.948 -52.658  13.512  1.00  0.00    -0.273 OA
HETATM   11  H   UNL     1     -39.794 -49.774  12.412  1.00  0.00     0.170 HD
BRANCH   9  12
HETATM   12  C   UNL     1     -37.544 -50.747  13.111  1.00  0.00     0.074 C 
HETATM   13  C   UNL     1     -37.221 -50.153  14.481  1.00  0.00     0.020 C 
BRANCH  12  14
HETATM   14  C   UNL     1     -37.592 -49.669  12.007  1.00  0.00     0.009 C 
HETATM   15  C   UNL     1     -37.068 -50.110  10.649  1.00  0.00     0.006 C 
ENDBRANCH  12  14
ENDBRANCH   9  12
ENDBRANCH   1   8
BRANCH   4  16
HETATM   16  N   UNL     1     -45.270 -52.459  13.193  1.00  0.00    -0.376 N 
HETATM   17  C   UNL     1     -46.397 -51.524  13.386  1.00  0.00     0.149 C 
HETATM   18  C   UNL     1     -46.982 -51.660  14.805  1.00  0.00     0.187 C 
HETATM   19  O   UNL     1     -47.336 -53.017  15.117  1.00  0.00    -0.388 OA
HETATM   20  C   UNL     1     -46.180 -53.866  15.020  1.00  0.00     0.187 C 
HETATM   21  C   UNL     1     -45.602 -53.841  13.597  1.00  0.00     0.149 C 
ENDBRANCH   4  16
TORSDOF 4
ENDMDL
MODEL 7
REMARK VINA RESULT:      -5.3      3.328      6.389
REMARK  4 active torsions:
REMARK  status: ('A' for Active; 'I' for Inactive)
REMARK    1  A    between atoms: C_2  and  C_3 
REMARK    2  A    between atoms: C_3  and  C_5 
REMARK       I    between atoms: C_5  and  N_7 
REMARK    3  A    between atoms: N_7  and  C_8 
REMARK    4  A    between atoms: C_11  and  N_15 
ROOT
HETATM    1  C   UNL     1     -40.971 -50.133  11.971  1.00  0.00     0.107 A 
HETATM    2  C   UNL     1     -39.842 -49.345  12.135  1.00  0.00     0.051 A 
HETATM    3  C   UNL     1     -39.858 -48.024  11.658  1.00  0.00     0.034 A 
HETATM    4  C   UNL     1     -40.984 -47.478  11.032  1.00  0.00     0.046 A 
HETATM    5  C   UNL     1     -42.034 -48.384  10.890  1.00  0.00     0.119 A 
HETATM    6  N   UNL     1     -42.052 -49.662  11.341  1.00  0.00    -0.350 N 
ATOM      7  HN  UNL     1     -42.873 -50.252  11.201  1.00  0.00     0.166 HD
ENDROOT
BRANCH   1   8
HETATM    8  N   UNL     1     -40.976 -51.429  12.513  1.00  0.00    -0.313 N 
HETATM    9  C   UNL     1     -42.013 -51.946  13.272  1.00  0.00     0.227 C 
HETATM   10  O   UNL     1     -43.086 -51.392  13.498  1.00  0.00    -0.273 OA
HETATM   11  H   UNL     1     -40.157 -51.996  12.357  1.00  0.00     0.170 HD
BRANCH   9  12
HETATM   12  C   UNL     1     -41.717 -53.336  13.865  1.00  0.00     0.074 C 
HETATM   13  C   UNL     1     -40.566 -54.008  13.118  1.00  0.00     0.020 C 
BRANCH  12  14
HETATM   14  C   UNL     1     -43.009 -54.180  13.824  1.00  0.00     0.009 C 
HETATM   15  C   UNL     1     -43.180 -55.157  14.977  1.00  0.00     0.006 C 
ENDBRANCH  12  14
ENDBRANCH   9  12
ENDBRANCH   1   8
BRANCH   4  16
HETATM   16  N   UNL     1     -41.014 -46.176  10.567  1.00  0.00    -0.376 N 
HETATM   17  C   UNL     1     -39.794 -45.345  10.516  1.00  0.00     0.149 C 
HETATM   18  C   UNL     1     -39.867 -44.207  11.552  1.00  0.00     0.187 C 
HETATM   19  O   UNL     1     -41.066 -43.427  11.418  1.00  0.00    -0.388 OA
HETATM   20  C   UNL     1     -42.222 -44.265  11.584  1.00  0.00     0.187 C 
HETATM   21  C   UNL     1     -42.253 -45.371  10.519  1.00  0.00     0.149 C 
ENDBRANCH   4  16
TORSDOF 4
ENDMDL
MODEL 8
REMARK VINA RESULT:      -5.2      4.398      5.335
REMARK  4 active torsions:
REMARK  status: ('A' for Active; 'I' for Inactive)
REMARK    1  A    between atoms: C_2  and  C_3 
REMARK    2  A    between atoms: C_3  and  C_5 
REMARK       I    between atoms: C_5  and  N_7 
REMARK    3  A    between atoms: N_7  and  C_8 
REMARK    4  A    between atoms: C_11  and  N_15 
ROOT
HETATM    1  C   UNL     1     -43.102 -49.896  12.840  1.00  0.00     0.107 A 
HETATM    2  C   UNL     1     -42.928 -48.920  13.809  1.00  0.00     0.051 A 
HETATM    3  C   UNL     1     -41.861 -48.016  13.682  1.00  0.00     0.034 A 
HETATM    4  C   UNL     1     -40.975 -48.066  12.599  1.00  0.00     0.046 A 
HETATM    5  C   UNL     1     -41.232 -49.117  11.721  1.00  0.00     0.119 A 
HETATM    6  N   UNL     1     -42.253 -50.004  11.813  1.00  0.00    -0.350 N 
ATOM      7  HN  UNL     1     -42.371 -50.738  11.114  1.00  0.00     0.166 HD
ENDROOT
BRANCH   1   8
HETATM    8  N   UNL     1     -44.213 -50.751  12.933  1.00  0.00    -0.313 N 
HETATM    9  C   UNL     1     -44.150 -52.124  12.756  1.00  0.00     0.227 C 
HETATM   10  O   UNL     1     -43.127 -52.782  12.586  1.00  0.00    -0.273 OA
HETATM   11  H   UNL     1     -45.108 -50.324  13.111  1.00  0.00     0.170 HD
BRANCH   9  12
HETATM   12  C   UNL     1     -45.525 -52.816  12.772  1.00  0.00     0.074 C 
HETATM   13  C   UNL     1     -46.650 -51.786  12.701  1.00  0.00     0.020 C 
BRANCH  12  14
HETATM   14  C   UNL     1     -45.624 -53.699  14.035  1.00  0.00     0.009 C 
HETATM   15  C   UNL     1     -45.467 -55.193  13.795  1.00  0.00     0.006 C 
ENDBRANCH  12  14
ENDBRANCH   9  12
ENDBRANCH   1   8
BRANCH   4  16
HETATM   16  N   UNL     1     -39.927 -47.175  12.459  1.00  0.00    -0.376 N 
HETATM   17  C   UNL     1     -39.017 -46.868  13.582  1.00  0.00     0.149 C 
HETATM   18  C   UNL     1     -39.224 -45.422  14.071  1.00  0.00     0.187 C 
HETATM   19  O   UNL     1     -39.116 -44.468  13.003  1.00  0.00    -0.388 OA
HETATM   20  C   UNL     1     -40.096 -44.748  11.988  1.00  0.00     0.187 C 
HETATM   21  C   UNL     1     -39.885 -46.149  11.397  1.00  0.00     0.149 C 
ENDBRANCH   4  16
TORSDOF 4
ENDMDL
MODEL 9
REMARK VINA RESULT:      -5.2      3.957      6.119
REMARK  4 active torsions:
REMARK  status: ('A' for Active; 'I' for Inactive)
REMARK    1  A    between atoms: C_2  and  C_3 
REMARK    2  A    between atoms: C_3  and  C_5 
REMARK       I    between atoms: C_5  and  N_7 
REMARK    3  A    between atoms: N_7  and  C_8 
REMARK    4  A    between atoms: C_11  and  N_15 
ROOT
HETATM    1  C   UNL     1     -42.822 -49.839  12.565  1.00  0.00     0.107 A 
HETATM    2  C   UNL     1     -43.084 -48.865  13.516  1.00  0.00     0.051 A 
HETATM    3  C   UNL     1     -42.725 -47.534  13.247  1.00  0.00     0.034 A 
HETATM    4  C   UNL     1     -42.119 -47.162  12.041  1.00  0.00     0.046 A 
HETATM    5  C   UNL     1     -41.872 -48.237  11.190  1.00  0.00     0.119 A 
HETATM    6  N   UNL     1     -42.208 -49.531  11.418  1.00  0.00    -0.350 N 
ATOM      7  HN  UNL     1     -41.996 -50.254  10.730  1.00  0.00     0.166 HD
ENDROOT
BRANCH   1   8
HETATM    8  N   UNL     1     -43.248 -51.155  12.809  1.00  0.00    -0.313 N 
HETATM    9  C   UNL     1     -42.521 -52.281  12.461  1.00  0.00     0.227 C 
HETATM   10  O   UNL     1     -41.389 -52.289  11.984  1.00  0.00    -0.273 OA
HETATM   11  H   UNL     1     -44.153 -51.272  13.237  1.00  0.00     0.170 HD
BRANCH   9  12
HETATM   12  C   UNL     1     -43.267 -53.604  12.710  1.00  0.00     0.074 C 
HETATM   13  C   UNL     1     -44.773 -53.366  12.809  1.00  0.00     0.020 C 
BRANCH  12  14
HETATM   14  C   UNL     1     -42.699 -54.265  13.985  1.00  0.00     0.009 C 
HETATM   15  C   UNL     1     -43.675 -55.148  14.747  1.00  0.00     0.006 C 
ENDBRANCH  12  14
ENDBRANCH   9  12
ENDBRANCH   1   8
BRANCH   4  16
HETATM   16  N   UNL     1     -41.771 -45.854  11.761  1.00  0.00    -0.376 N 
HETATM   17  C   UNL     1     -41.336 -45.441  10.411  1.00  0.00     0.149 C 
HETATM   18  C   UNL     1     -39.840 -45.074  10.409  1.00  0.00     0.187 C 
HETATM   19  O   UNL     1     -39.521 -44.095  11.409  1.00  0.00    -0.388 OA
HETATM   20  C   UNL     1     -39.864 -44.590  12.715  1.00  0.00     0.187 C 
HETATM   21  C   UNL     1     -41.367 -44.892  12.807  1.00  0.00     0.149 C 
ENDBRANCH   4  16
TORSDOF 4
ENDMDL
