MODEL 1
REMARK VINA RESULT:      -5.8      0.000      0.000
REMARK  4 active torsions:
REMARK  status: ('A' for Active; 'I' for Inactive)
REMARK    1  A    between atoms: C_2  and  C_3 
REMARK    2  A    between atoms: C_2  and  N_10 
REMARK    3  A    between atoms: C_3  and  N_4 
REMARK       I    between atoms: N_10  and  C_11 
REMARK    4  A    between atoms: C_11  and  C_13 
REMARK       I    between atoms: N_17  and  C_18 
ROOT
HETATM    1  N   UNL     1     -41.757 -49.840  11.600  1.00  0.00    -0.353 N 
HETATM    2  C   UNL     1     -42.313 -50.631  12.574  1.00  0.00     0.241 C 
HETATM    3  O   UNL     1     -42.793 -50.168  13.607  1.00  0.00    -0.271 OA
HETATM    4  H   UNL     1     -41.472 -50.279  10.729  1.00  0.00     0.163 HD
ENDROOT
BRANCH   1   5
HETATM    5  C   UNL     1     -41.752 -48.377  11.694  1.00  0.00     0.100 C 
HETATM    6  C   UNL     1     -40.618 -47.954  12.623  1.00  0.00     0.034 C 
BRANCH   5   7
HETATM    7  C   UNL     1     -41.675 -47.749  10.293  1.00  0.00     0.172 C 
BRANCH   7   8
HETATM    8  N   UNL     1     -42.947 -47.717   9.602  1.00  0.00    -0.302 N 
HETATM    9  C   UNL     1     -44.173 -47.468  10.147  1.00  0.00     0.111 A 
HETATM   10  C   UNL     1     -45.071 -47.540   9.107  1.00  0.00     0.037 A 
HETATM   11  C   UNL     1     -44.289 -47.851   7.980  1.00  0.00     0.108 A 
HETATM   12  N   UNL     1     -42.994 -47.975   8.281  1.00  0.00    -0.310 N 
ATOM     13  HN  UNL     1     -42.222 -48.209   7.657  1.00  0.00     0.186 HD
ENDBRANCH   7   8
ENDBRANCH   5   7
ENDBRANCH   1   5
BRANCH   2  14
HETATM   14  C   UNL     1     -42.165 -52.142  12.361  1.00  0.00     0.179 C 
HETATM   15  C   UNL     1     -43.548 -52.806  12.521  1.00  0.00     0.037 C 
HETATM   16  C   UNL     1     -43.310 -54.132  13.241  1.00  0.00     0.022 C 
HETATM   17  C   UNL     1     -41.807 -54.269  13.321  1.00  0.00     0.127 C 
HETATM   18  N   UNL     1     -41.312 -52.906  13.284  1.00  0.00    -0.339 N 
HETATM   19  C   UNL     1     -39.939 -52.756  13.412  1.00  0.00     0.216 C 
HETATM   20  O   UNL     1     -39.199 -53.711  13.653  1.00  0.00    -0.274 OA
HETATM   21  C   UNL     1     -39.371 -51.359  13.402  1.00  0.00     0.117 C 
ENDBRANCH   2  14
TORSDOF 4
ENDMDL
MODEL 2
REMARK VINA RESULT:      -5.8      2.265      3.164
REMARK  4 active torsions:
REMARK  status: ('A' for Active; 'I' for Inactive)
REMARK    1  A    between atoms: C_2  and  C_3 
REMARK    2  A    between atoms: C_2  and  N_10 
REMARK    3  A    between atoms: C_3  and  N_4 
REMARK       I    between atoms: N_10  and  C_11 
REMARK    4  A    between atoms: C_11  and  C_13 
REMARK       I    between atoms: N_17  and  C_18 
ROOT
HETATM    1  N   UNL     1     -42.297 -51.222  12.233  1.00  0.00    -0.353 N 
HETATM    2  C   UNL     1     -43.131 -51.292  13.321  1.00  0.00     0.241 C 
HETATM    3  O   UNL     1     -42.828 -50.828  14.418  1.00  0.00    -0.271 OA
HETATM    4  H   UNL     1     -42.652 -51.534  11.335  1.00  0.00     0.163 HD
ENDROOT
BRANCH   1   5
HETATM    5  C   UNL     1     -41.004 -50.533  12.288  1.00  0.00     0.100 C 
HETATM    6  C   UNL     1     -39.920 -51.558  12.608  1.00  0.00     0.034 C 
BRANCH   5   7
HETATM    7  C   UNL     1     -40.757 -49.753  10.986  1.00  0.00     0.172 C 
BRANCH   7   8
HETATM    8  N   UNL     1     -41.626 -48.605  10.826  1.00  0.00    -0.302 N 
HETATM    9  C   UNL     1     -42.174 -47.843  11.817  1.00  0.00     0.111 A 
HETATM   10  C   UNL     1     -42.914 -46.873  11.182  1.00  0.00     0.037 A 
HETATM   11  C   UNL     1     -42.759 -47.145   9.811  1.00  0.00     0.108 A 
HETATM   12  N   UNL     1     -41.986 -48.210   9.590  1.00  0.00    -0.310 N 
ATOM     13  HN  UNL     1     -41.729 -48.627   8.695  1.00  0.00     0.186 HD
ENDBRANCH   7   8
ENDBRANCH   5   7
ENDBRANCH   1   5
BRANCH   2  14
HETATM   14  C   UNL     1     -44.409 -52.117  13.121  1.00  0.00     0.179 C 
HETATM   15  C   UNL     1     -45.630 -51.185  13.258  1.00  0.00     0.037 C 
HETATM   16  C   UNL     1     -46.704 -51.986  13.991  1.00  0.00     0.022 C 
HETATM   17  C   UNL     1     -46.141 -53.385  14.101  1.00  0.00     0.127 C 
HETATM   18  N   UNL     1     -44.703 -53.205  14.064  1.00  0.00    -0.339 N 
HETATM   19  C   UNL     1     -43.945 -54.356  14.218  1.00  0.00     0.216 C 
HETATM   20  O   UNL     1     -44.458 -55.445  14.480  1.00  0.00    -0.274 OA
HETATM   21  C   UNL     1     -42.442 -54.225  14.211  1.00  0.00     0.117 C 
ENDBRANCH   2  14
TORSDOF 4
ENDMDL
MODEL 3
REMARK VINA RESULT:      -5.8      4.288      7.233
REMARK  4 active torsions:
REMARK  status: ('A' for Active; 'I' for Inactive)
REMARK    1  A    between atoms: C_2  and  C_3 
REMARK    2  A    between atoms: C_2  and  N_10 
REMARK    3  A    between atoms: C_3  and  N_4 
REMARK       I    between atoms: N_10  and  C_11 
REMARK    4  A    between atoms: C_11  and  C_13 
REMARK       I    between atoms: N_17  and  C_18 
ROOT
HETATM    1  N   UNL     1     -41.554 -46.140  12.074  1.00  0.00    -0.353 N 
HETATM    2  C   UNL     1     -41.531 -45.052  11.237  1.00  0.00     0.241 C 
HETATM    3  O   UNL     1     -41.155 -45.124  10.069  1.00  0.00    -0.271 OA
HETATM    4  H   UNL     1     -41.972 -46.030  12.993  1.00  0.00     0.163 HD
ENDROOT
BRANCH   1   5
HETATM    5  C   UNL     1     -41.187 -47.483  11.614  1.00  0.00     0.100 C 
HETATM    6  C   UNL     1     -40.234 -48.102  12.632  1.00  0.00     0.034 C 
BRANCH   5   7
HETATM    7  C   UNL     1     -42.448 -48.323  11.352  1.00  0.00     0.172 C 
BRANCH   7   8
HETATM    8  N   UNL     1     -43.184 -47.910  10.174  1.00  0.00    -0.302 N 
HETATM    9  C   UNL     1     -44.493 -47.529  10.114  1.00  0.00     0.111 A 
HETATM   10  C   UNL     1     -44.738 -47.226   8.795  1.00  0.00     0.037 A 
HETATM   11  C   UNL     1     -43.518 -47.470   8.140  1.00  0.00     0.108 A 
HETATM   12  N   UNL     1     -42.571 -47.902   8.976  1.00  0.00    -0.310 N 
ATOM     13  HN  UNL     1     -41.610 -48.165   8.758  1.00  0.00     0.186 HD
ENDBRANCH   7   8
ENDBRANCH   5   7
ENDBRANCH   1   5
BRANCH   2  14
HETATM   14  C   UNL     1     -41.866 -43.707  11.894  1.00  0.00     0.179 C 
HETATM   15  C   UNL     1     -42.940 -42.993  11.048  1.00  0.00     0.037 C 
HETATM   16  C   UNL     1     -42.583 -41.508  11.062  1.00  0.00     0.022 C 
HETATM   17  C   UNL     1     -41.433 -41.391  12.036  1.00  0.00     0.127 C 
HETATM   18  N   UNL     1     -40.804 -42.698  12.020  1.00  0.00    -0.339 N 
HETATM   19  C   UNL     1     -39.663 -42.830  12.796  1.00  0.00     0.216 C 
HETATM   20  O   UNL     1     -39.153 -41.870  13.376  1.00  0.00    -0.274 OA
HETATM   21  C   UNL     1     -38.954 -44.162  12.800  1.00  0.00     0.117 C 
ENDBRANCH   2  14
TORSDOF 4
ENDMDL
MODEL 4
REMARK VINA RESULT:      -5.7      2.378      6.186
REMARK  4 active torsions:
REMARK  status: ('A' for Active; 'I' for Inactive)
REMARK    1  A    between atoms: C_2  and  C_3 
REMARK    2  A    between atoms: C_2  and  N_10 
REMARK    3  A    between atoms: C_3  and  N_4 
REMARK       I    between atoms: N_10  and  C_11 
REMARK    4  A    between atoms: C_11  and  C_13 
REMARK       I    between atoms: N_17  and  C_18 
ROOT
HETATM    1  N   UNL     1     -42.422 -49.420  11.703  1.00  0.00    -0.353 N 
HETATM    2  C   UNL     1     -42.798 -48.215  12.244  1.00  0.00     0.241 C 
HETATM    3  O   UNL     1     -42.876 -48.032  13.457  1.00  0.00    -0.271 OA
HETATM    4  H   UNL     1     -42.281 -49.471  10.698  1.00  0.00     0.163 HD
ENDROOT
BRANCH   1   5
HETATM    5  C   UNL     1     -42.026 -50.558  12.538  1.00  0.00     0.100 C 
HETATM    6  C   UNL     1     -43.273 -51.368  12.878  1.00  0.00     0.034 C 
BRANCH   5   7
HETATM    7  C   UNL     1     -40.925 -51.375  11.842  1.00  0.00     0.172 C 
BRANCH   7   8
HETATM    8  N   UNL     1     -39.597 -50.823  12.016  1.00  0.00    -0.302 N 
HETATM    9  C   UNL     1     -38.784 -50.964  13.103  1.00  0.00     0.111 A 
HETATM   10  C   UNL     1     -37.632 -50.273  12.807  1.00  0.00     0.037 A 
HETATM   11  C   UNL     1     -37.856 -49.740  11.524  1.00  0.00     0.108 A 
HETATM   12  N   UNL     1     -39.060 -50.061  11.045  1.00  0.00    -0.310 N 
ATOM     13  HN  UNL     1     -39.475 -49.792  10.153  1.00  0.00     0.186 HD
ENDBRANCH   7   8
ENDBRANCH   5   7
ENDBRANCH   1   5
BRANCH   2  14
HETATM   14  C   UNL     1     -43.259 -47.155  11.237  1.00  0.00     0.179 C 
HETATM   15  C   UNL     1     -44.377 -47.754  10.359  1.00  0.00     0.037 C 
HETATM   16  C   UNL     1     -44.150 -47.219   8.946  1.00  0.00     0.022 C 
HETATM   17  C   UNL     1     -43.032 -46.211   9.085  1.00  0.00     0.127 C 
HETATM   18  N   UNL     1     -42.292 -46.644  10.255  1.00  0.00    -0.339 N 
HETATM   19  C   UNL     1     -41.157 -45.908  10.560  1.00  0.00     0.216 C 
HETATM   20  O   UNL     1     -40.742 -45.013   9.822  1.00  0.00    -0.274 OA
HETATM   21  C   UNL     1     -40.335 -46.327  11.753  1.00  0.00     0.117 C 
ENDBRANCH   2  14
TORSDOF 4
ENDMDL
MODEL 5
REMARK VINA RESULT:      -5.6      2.316      4.028
REMARK  4 active torsions:
REMARK  status: ('A' for Active; 'I' for Inactive)
REMARK    1  A    between atoms: C_2  and  C_3 
REMARK    2  A    between atoms: C_2  and  N_10 
REMARK    3  A    between atoms: C_3  and  N_4 
REMARK       I    between atoms: N_10  and  C_11 
REMARK    4  A    between atoms: C_11  and  C_13 
REMARK       I    between atoms: N_17  and  C_18 
ROOT
HETATM    1  N   UNL     1     -41.751 -51.925  13.032  1.00  0.00    -0.353 N 
HETATM    2  C   UNL     1     -42.818 -51.738  13.875  1.00  0.00     0.241 C 
HETATM    3  O   UNL     1     -42.688 -51.321  15.024  1.00  0.00    -0.271 OA
HETATM    4  H   UNL     1     -41.940 -52.175  12.066  1.00  0.00     0.163 HD
ENDROOT
BRANCH   1   5
HETATM    5  C   UNL     1     -40.381 -51.580  13.423  1.00  0.00     0.100 C 
HETATM    6  C   UNL     1     -39.649 -52.862  13.809  1.00  0.00     0.034 C 
BRANCH   5   7
HETATM    7  C   UNL     1     -39.689 -50.783  12.306  1.00  0.00     0.172 C 
BRANCH   7   8
HETATM    8  N   UNL     1     -40.431 -49.611  11.887  1.00  0.00    -0.302 N 
HETATM    9  C   UNL     1     -40.802 -48.551  12.663  1.00  0.00     0.111 A 
HETATM   10  C   UNL     1     -41.478 -47.691  11.829  1.00  0.00     0.037 A 
HETATM   11  C   UNL     1     -41.472 -48.329  10.576  1.00  0.00     0.108 A 
HETATM   12  N   UNL     1     -40.847 -49.508  10.611  1.00  0.00    -0.310 N 
ATOM     13  HN  UNL     1     -40.715 -50.174   9.850  1.00  0.00     0.186 HD
ENDBRANCH   7   8
ENDBRANCH   5   7
ENDBRANCH   1   5
BRANCH   2  14
HETATM   14  C   UNL     1     -44.172 -52.224  13.343  1.00  0.00     0.179 C 
HETATM   15  C   UNL     1     -45.158 -51.037  13.332  1.00  0.00     0.037 C 
HETATM   16  C   UNL     1     -46.514 -51.599  13.752  1.00  0.00     0.022 C 
HETATM   17  C   UNL     1     -46.312 -53.095  13.826  1.00  0.00     0.127 C 
HETATM   18  N   UNL     1     -44.896 -53.261  14.093  1.00  0.00    -0.339 N 
HETATM   19  C   UNL     1     -44.462 -54.565  14.274  1.00  0.00     0.216 C 
HETATM   20  O   UNL     1     -45.248 -55.514  14.315  1.00  0.00    -0.274 OA
HETATM   21  C   UNL     1     -43.003 -54.796  14.576  1.00  0.00     0.117 C 
ENDBRANCH   2  14
TORSDOF 4
ENDMDL
MODEL 6
REMARK VINA RESULT:      -5.5      3.172      5.746
REMARK  4 active torsions:
REMARK  status: ('A' for Active; 'I' for Inactive)
REMARK    1  A    between atoms: C_2  and  C_3 
REMARK    2  A    between atoms: C_2  and  N_10 
REMARK    3  A    between atoms: C_3  and  N_4 
REMARK       I    between atoms: N_10  and  C_11 
REMARK    4  A    between atoms: C_11  and  C_13 
REMARK       I    between atoms: N_17  and  C_18 
ROOT
HETATM    1  N   UNL     1     -43.413 -51.255  13.429  1.00  0.00    -0.353 N 
HETATM    2  C   UNL     1     -44.038 -52.419  13.055  1.00  0.00     0.241 C 
HETATM    3  O   UNL     1     -43.642 -53.111  12.120  1.00  0.00    -0.271 OA
HETATM    4  H   UNL     1     -43.732 -50.788  14.272  1.00  0.00     0.163 HD
ENDROOT
BRANCH   1   5
HETATM    5  C   UNL     1     -42.187 -50.786  12.775  1.00  0.00     0.100 C 
HETATM    6  C   UNL     1     -42.437 -49.385  12.224  1.00  0.00     0.034 C 
BRANCH   5   7
HETATM    7  C   UNL     1     -40.997 -50.869  13.745  1.00  0.00     0.172 C 
BRANCH   7   8
HETATM    8  N   UNL     1     -40.514 -52.218  13.954  1.00  0.00    -0.302 N 
HETATM    9  C   UNL     1     -39.940 -52.720  15.086  1.00  0.00     0.111 A 
HETATM   10  C   UNL     1     -39.653 -54.037  14.813  1.00  0.00     0.037 A 
HETATM   11  C   UNL     1     -40.081 -54.228  13.486  1.00  0.00     0.108 A 
HETATM   12  N   UNL     1     -40.593 -53.116  12.954  1.00  0.00    -0.310 N 
ATOM     13  HN  UNL     1     -40.958 -52.979  12.012  1.00  0.00     0.186 HD
ENDBRANCH   7   8
ENDBRANCH   5   7
ENDBRANCH   1   5
BRANCH   2  14
HETATM   14  C   UNL     1     -45.351 -52.726  13.785  1.00  0.00     0.179 C 
HETATM   15  C   UNL     1     -46.276 -51.494  13.686  1.00  0.00     0.037 C 
HETATM   16  C   UNL     1     -46.990 -51.382  15.031  1.00  0.00     0.022 C 
HETATM   17  C   UNL     1     -46.592 -52.627  15.791  1.00  0.00     0.127 C 
HETATM   18  N   UNL     1     -45.310 -53.006  15.228  1.00  0.00    -0.339 N 
HETATM   19  C   UNL     1     -44.692 -54.101  15.812  1.00  0.00     0.216 C 
HETATM   20  O   UNL     1     -45.149 -54.650  16.816  1.00  0.00    -0.274 OA
HETATM   21  C   UNL     1     -43.346 -54.526  15.281  1.00  0.00     0.117 C 
ENDBRANCH   2  14
TORSDOF 4
ENDMDL
MODEL 7
REMARK VINA RESULT:      -5.4      3.212      5.057
REMARK  4 active torsions:
REMARK  status: ('A' for Active; 'I' for Inactive)
REMARK    1  A    between atoms: C_2  and  C_3 
REMARK    2  A    between atoms: C_2  and  N_10 
REMARK    3  A    between atoms: C_3  and  N_4 
REMARK       I    between atoms: N_10  and  C_11 
REMARK    4  A    between atoms: C_11  and  C_13 
REMARK       I    between atoms: N_17  and  C_18 
ROOT
HETATM    1  N   UNL     1     -43.434 -51.220  13.358  1.00  0.00    -0.353 N 
HETATM    2  C   UNL     1     -44.032 -52.406  13.011  1.00  0.00     0.241 C 
HETATM    3  O   UNL     1     -43.628 -53.104  12.084  1.00  0.00    -0.271 OA
HETATM    4  H   UNL     1     -43.756 -50.746  14.196  1.00  0.00     0.163 HD
ENDROOT
BRANCH   1   5
HETATM    5  C   UNL     1     -42.228 -50.730  12.682  1.00  0.00     0.100 C 
HETATM    6  C   UNL     1     -42.447 -49.270  12.296  1.00  0.00     0.034 C 
BRANCH   5   7
HETATM    7  C   UNL     1     -40.989 -50.961  13.562  1.00  0.00     0.172 C 
BRANCH   7   8
HETATM    8  N   UNL     1     -39.773 -50.402  13.008  1.00  0.00    -0.302 N 
HETATM    9  C   UNL     1     -38.978 -49.445  13.569  1.00  0.00     0.111 A 
HETATM   10  C   UNL     1     -37.945 -49.245  12.682  1.00  0.00     0.037 A 
HETATM   11  C   UNL     1     -38.217 -50.119  11.614  1.00  0.00     0.108 A 
HETATM   12  N   UNL     1     -39.340 -50.816  11.802  1.00  0.00    -0.310 N 
ATOM     13  HN  UNL     1     -39.769 -51.501  11.180  1.00  0.00     0.186 HD
ENDBRANCH   7   8
ENDBRANCH   5   7
ENDBRANCH   1   5
BRANCH   2  14
HETATM   14  C   UNL     1     -45.329 -52.734  13.761  1.00  0.00     0.179 C 
HETATM   15  C   UNL     1     -46.274 -51.517  13.679  1.00  0.00     0.037 C 
HETATM   16  C   UNL     1     -46.968 -51.418  15.035  1.00  0.00     0.022 C 
HETATM   17  C   UNL     1     -46.540 -52.658  15.786  1.00  0.00     0.127 C 
HETATM   18  N   UNL     1     -45.261 -53.016  15.202  1.00  0.00    -0.339 N 
HETATM   19  C   UNL     1     -44.617 -54.102  15.774  1.00  0.00     0.216 C 
HETATM   20  O   UNL     1     -45.050 -54.660  16.784  1.00  0.00    -0.274 OA
HETATM   21  C   UNL     1     -43.273 -54.506  15.222  1.00  0.00     0.117 C 
ENDBRANCH   2  14
TORSDOF 4
ENDMDL
MODEL 8
REMARK VINA RESULT:      -5.4      2.932      4.297
REMARK  4 active torsions:
REMARK  status: ('A' for Active; 'I' for Inactive)
REMARK    1  A    between atoms: C_2  and  C_3 
REMARK    2  A    between atoms: C_2  and  N_10 
REMARK    3  A    between atoms: C_3  and  N_4 
REMARK       I    between atoms: N_10  and  C_11 
REMARK    4  A    between atoms: C_11  and  C_13 
REMARK       I    between atoms: N_17  and  C_18 
ROOT
HETATM    1  N   UNL     1     -42.481 -51.343  12.891  1.00  0.00    -0.353 N 
HETATM    2  C   UNL     1     -41.972 -52.537  12.443  1.00  0.00     0.241 C 
HETATM    3  O   UNL     1     -41.035 -52.600  11.651  1.00  0.00    -0.271 OA
HETATM    4  H   UNL     1     -43.187 -51.365  13.621  1.00  0.00     0.163 HD
ENDROOT
BRANCH   1   5
HETATM    5  C   UNL     1     -41.898 -50.055  12.503  1.00  0.00     0.100 C 
HETATM    6  C   UNL     1     -43.006 -49.004  12.494  1.00  0.00     0.034 C 
BRANCH   5   7
HETATM    7  C   UNL     1     -40.716 -49.703  13.420  1.00  0.00     0.172 C 
BRANCH   7   8
HETATM    8  N   UNL     1     -39.422 -49.916  12.803  1.00  0.00    -0.302 N 
HETATM    9  C   UNL     1     -38.825 -49.136  11.855  1.00  0.00     0.111 A 
HETATM   10  C   UNL     1     -37.615 -49.731  11.585  1.00  0.00     0.037 A 
HETATM   11  C   UNL     1     -37.584 -50.869  12.411  1.00  0.00     0.108 A 
HETATM   12  N   UNL     1     -38.691 -50.993  13.145  1.00  0.00    -0.310 N 
ATOM     13  HN  UNL     1     -38.929 -51.731  13.808  1.00  0.00     0.186 HD
ENDBRANCH   7   8
ENDBRANCH   5   7
ENDBRANCH   1   5
BRANCH   2  14
HETATM   14  C   UNL     1     -42.745 -53.788  12.878  1.00  0.00     0.179 C 
HETATM   15  C   UNL     1     -44.232 -53.609  12.509  1.00  0.00     0.037 C 
HETATM   16  C   UNL     1     -45.038 -54.220  13.653  1.00  0.00     0.022 C 
HETATM   17  C   UNL     1     -44.010 -54.873  14.550  1.00  0.00     0.127 C 
HETATM   18  N   UNL     1     -42.788 -54.131  14.307  1.00  0.00    -0.339 N 
HETATM   19  C   UNL     1     -41.693 -54.501  15.073  1.00  0.00     0.216 C 
HETATM   20  O   UNL     1     -41.781 -55.331  15.979  1.00  0.00    -0.274 OA
HETATM   21  C   UNL     1     -40.400 -53.748  14.879  1.00  0.00     0.117 C 
ENDBRANCH   2  14
TORSDOF 4
ENDMDL
MODEL 9
REMARK VINA RESULT:      -5.3      3.607      5.457
REMARK  4 active torsions:
REMARK  status: ('A' for Active; 'I' for Inactive)
REMARK    1  A    between atoms: C_2  and  C_3 
REMARK    2  A    between atoms: C_2  and  N_10 
REMARK    3  A    between atoms: C_3  and  N_4 
REMARK       I    between atoms: N_10  and  C_11 
REMARK    4  A    between atoms: C_11  and  C_13 
REMARK       I    between atoms: N_17  and  C_18 
ROOT
HETATM    1  N   UNL     1     -42.206 -52.395  13.235  1.00  0.00    -0.353 N 
HETATM    2  C   UNL     1     -40.967 -52.231  12.667  1.00  0.00     0.241 C 
HETATM    3  O   UNL     1     -40.397 -53.130  12.053  1.00  0.00    -0.271 OA
HETATM    4  H   UNL     1     -42.661 -51.582  13.639  1.00  0.00     0.163 HD
ENDROOT
BRANCH   1   5
HETATM    5  C   UNL     1     -42.967 -53.641  13.095  1.00  0.00     0.100 C 
HETATM    6  C   UNL     1     -43.106 -54.282  14.473  1.00  0.00     0.034 C 
BRANCH   5   7
HETATM    7  C   UNL     1     -44.309 -53.373  12.396  1.00  0.00     0.172 C 
BRANCH   7   8
HETATM    8  N   UNL     1     -45.326 -52.839  13.279  1.00  0.00    -0.302 N 
HETATM    9  C   UNL     1     -45.465 -51.543  13.684  1.00  0.00     0.111 A 
HETATM   10  C   UNL     1     -46.568 -51.521  14.506  1.00  0.00     0.037 A 
HETATM   11  C   UNL     1     -47.013 -52.855  14.543  1.00  0.00     0.108 A 
HETATM   12  N   UNL     1     -46.249 -53.665  13.807  1.00  0.00    -0.310 N 
ATOM     13  HN  UNL     1     -46.342 -54.672  13.676  1.00  0.00     0.186 HD
ENDBRANCH   7   8
ENDBRANCH   5   7
ENDBRANCH   1   5
BRANCH   2  14
HETATM   14  C   UNL     1     -40.272 -50.899  12.975  1.00  0.00     0.179 C 
HETATM   15  C   UNL     1     -40.031 -50.145  11.650  1.00  0.00     0.037 C 
HETATM   16  C   UNL     1     -38.667 -49.471  11.779  1.00  0.00     0.022 C 
HETATM   17  C   UNL     1     -38.246 -49.711  13.211  1.00  0.00     0.127 C 
HETATM   18  N   UNL     1     -38.941 -50.923  13.599  1.00  0.00    -0.339 N 
HETATM   19  C   UNL     1     -38.665 -51.398  14.872  1.00  0.00     0.216 C 
HETATM   20  O   UNL     1     -37.801 -50.886  15.586  1.00  0.00    -0.274 OA
HETATM   21  C   UNL     1     -39.343 -52.668  15.321  1.00  0.00     0.117 C 
ENDBRANCH   2  14
TORSDOF 4
ENDMDL
