MODEL 1
REMARK VINA RESULT:      -5.6      0.000      0.000
REMARK  7 active torsions:
REMARK  status: ('A' for Active; 'I' for Inactive)
REMARK    1  A    between atoms: N_6  and  C_7 
REMARK    2  A    between atoms: C_7  and  C_8 
REMARK    3  A    between atoms: C_8  and  O_9 
REMARK    4  A    between atoms: C_8  and  C_10 
REMARK    5  A    between atoms: C_10  and  O_11 
REMARK    6  A    between atoms: O_11  and  C_12 
REMARK    7  A    between atoms: C_12  and  C_13 
ROOT
HETATM    1  C   UNL     1     -40.392 -51.257  12.497  1.00  0.00     0.166 C 
ENDROOT
BRANCH   1   2
HETATM    2  N   UNL     1     -40.985 -49.981  12.113  1.00  0.00    -0.307 N 
HETATM    3  C   UNL     1     -42.344 -49.837  12.056  1.00  0.00     0.186 A 
HETATM    4  N   UNL     1     -42.961 -48.772  11.674  1.00  0.00    -0.355 N 
HETATM    5  C   UNL     1     -42.190 -47.699  11.299  1.00  0.00     0.017 A 
ATOM      6  HN  UNL     1     -43.980 -48.727  11.651  1.00  0.00     0.166 HD
HETATM    7  C   UNL     1     -42.977 -46.511  10.806  1.00  0.00     0.069 C 
HETATM    8  C   UNL     1     -40.846 -47.680  11.356  1.00  0.00     0.028 A 
HETATM    9  C   UNL     1     -40.161 -48.911  11.831  1.00  0.00     0.256 A 
HETATM   10  C   UNL     1     -39.996 -46.512  10.958  1.00  0.00     0.056 C 
HETATM   11  O   UNL     1     -38.938 -48.950  11.945  1.00  0.00    -0.267 OA
ENDBRANCH   1   2
BRANCH   1  12
HETATM   12  C   UNL     1     -41.295 -52.466  12.182  1.00  0.00     0.160 C 
BRANCH  12  13
HETATM   13  O   UNL     1     -40.579 -53.444  11.416  1.00  0.00    -0.392 OA
HETATM   14  H   UNL     1     -41.058 -54.288  11.458  1.00  0.00     0.210 HD
ENDBRANCH  12  13
BRANCH  12  15
HETATM   15  C   UNL     1     -41.816 -53.105  13.481  1.00  0.00     0.201 C 
BRANCH  15  16
HETATM   16  O   UNL     1     -42.973 -53.873  13.186  1.00  0.00    -0.384 OA
BRANCH  16  17
HETATM   17  C   UNL     1     -43.907 -53.193  12.354  1.00  0.00     0.213 C 
BRANCH  17  18
HETATM   18  C   UNL     1     -45.028 -52.755  13.245  1.00  0.00     0.006 A 
HETATM   19  C   UNL     1     -45.570 -51.492  13.396  1.00  0.00     0.017 A 
HETATM   20  C   UNL     1     -46.632 -51.460  14.342  1.00  0.00     0.008 A 
HETATM   21  C   UNL     1     -46.873 -52.704  14.883  1.00  0.00     0.050 A 
HETATM   22  S   UNL     1     -45.826 -53.896  14.245  1.00  0.00    -0.104 SA
ENDBRANCH  17  18
ENDBRANCH  16  17
ENDBRANCH  15  16
ENDBRANCH  12  15
ENDBRANCH   1  12
TORSDOF 7
ENDMDL
MODEL 2
REMARK VINA RESULT:      -5.6      1.307      1.665
REMARK  7 active torsions:
REMARK  status: ('A' for Active; 'I' for Inactive)
REMARK    1  A    between atoms: N_6  and  C_7 
REMARK    2  A    between atoms: C_7  and  C_8 
REMARK    3  A    between atoms: C_8  and  O_9 
REMARK    4  A    between atoms: C_8  and  C_10 
REMARK    5  A    between atoms: C_10  and  O_11 
REMARK    6  A    between atoms: O_11  and  C_12 
REMARK    7  A    between atoms: C_12  and  C_13 
ROOT
HETATM    1  C   UNL     1     -40.597 -51.632  12.957  1.00  0.00     0.166 C 
ENDROOT
BRANCH   1   2
HETATM    2  N   UNL     1     -40.944 -50.331  12.396  1.00  0.00    -0.307 N 
HETATM    3  C   UNL     1     -40.382 -49.910  11.223  1.00  0.00     0.186 A 
HETATM    4  N   UNL     1     -40.580 -48.758  10.679  1.00  0.00    -0.355 N 
HETATM    5  C   UNL     1     -41.422 -47.890  11.329  1.00  0.00     0.017 A 
ATOM      6  HN  UNL     1     -40.128 -48.501   9.800  1.00  0.00     0.166 HD
HETATM    7  C   UNL     1     -41.557 -46.543  10.668  1.00  0.00     0.069 C 
HETATM    8  C   UNL     1     -42.085 -48.191  12.462  1.00  0.00     0.028 A 
HETATM    9  C   UNL     1     -41.864 -49.538  13.050  1.00  0.00     0.256 A 
HETATM   10  C   UNL     1     -43.013 -47.256  13.175  1.00  0.00     0.056 C 
HETATM   11  O   UNL     1     -42.466 -49.893  14.061  1.00  0.00    -0.267 OA
ENDBRANCH   1   2
BRANCH   1  12
HETATM   12  C   UNL     1     -41.388 -52.795  12.325  1.00  0.00     0.160 C 
BRANCH  12  13
HETATM   13  O   UNL     1     -40.578 -53.496  11.372  1.00  0.00    -0.392 OA
HETATM   14  H   UNL     1     -39.668 -53.542  11.707  1.00  0.00     0.210 HD
ENDBRANCH  12  13
BRANCH  12  15
HETATM   15  C   UNL     1     -41.874 -53.772  13.411  1.00  0.00     0.201 C 
BRANCH  15  16
HETATM   16  O   UNL     1     -43.228 -54.109  13.156  1.00  0.00    -0.384 OA
BRANCH  16  17
HETATM   17  C   UNL     1     -43.943 -53.094  12.458  1.00  0.00     0.213 C 
BRANCH  17  18
HETATM   18  C   UNL     1     -45.081 -52.693  13.345  1.00  0.00     0.006 A 
HETATM   19  C   UNL     1     -45.661 -51.447  13.495  1.00  0.00     0.017 A 
HETATM   20  C   UNL     1     -46.729 -51.449  14.436  1.00  0.00     0.008 A 
HETATM   21  C   UNL     1     -46.936 -52.701  14.972  1.00  0.00     0.050 A 
HETATM   22  S   UNL     1     -45.851 -53.860  14.337  1.00  0.00    -0.104 SA
ENDBRANCH  17  18
ENDBRANCH  16  17
ENDBRANCH  15  16
ENDBRANCH  12  15
ENDBRANCH   1  12
TORSDOF 7
ENDMDL
MODEL 3
REMARK VINA RESULT:      -5.4      3.141      6.597
REMARK  7 active torsions:
REMARK  status: ('A' for Active; 'I' for Inactive)
REMARK    1  A    between atoms: N_6  and  C_7 
REMARK    2  A    between atoms: C_7  and  C_8 
REMARK    3  A    between atoms: C_8  and  O_9 
REMARK    4  A    between atoms: C_8  and  C_10 
REMARK    5  A    between atoms: C_10  and  O_11 
REMARK    6  A    between atoms: O_11  and  C_12 
REMARK    7  A    between atoms: C_12  and  C_13 
ROOT
HETATM    1  C   UNL     1     -41.712 -54.498  13.532  1.00  0.00     0.166 C 
ENDROOT
BRANCH   1   2
HETATM    2  N   UNL     1     -43.009 -53.839  13.431  1.00  0.00    -0.307 N 
HETATM    3  C   UNL     1     -43.152 -52.700  12.686  1.00  0.00     0.186 A 
HETATM    4  N   UNL     1     -44.240 -52.016  12.582  1.00  0.00    -0.355 N 
HETATM    5  C   UNL     1     -45.338 -52.470  13.270  1.00  0.00     0.017 A 
ATOM      6  HN  UNL     1     -44.283 -51.171  12.011  1.00  0.00     0.166 HD
HETATM    7  C   UNL     1     -46.554 -51.588  13.150  1.00  0.00     0.069 C 
HETATM    8  C   UNL     1     -45.357 -53.603  13.997  1.00  0.00     0.028 A 
HETATM    9  C   UNL     1     -44.098 -54.390  14.074  1.00  0.00     0.256 A 
HETATM   10  C   UNL     1     -46.551 -54.112  14.744  1.00  0.00     0.056 C 
HETATM   11  O   UNL     1     -44.054 -55.454  14.688  1.00  0.00    -0.267 OA
ENDBRANCH   1   2
BRANCH   1  12
HETATM   12  C   UNL     1     -40.903 -54.058  14.769  1.00  0.00     0.160 C 
BRANCH  12  13
HETATM   13  O   UNL     1     -41.397 -54.705  15.950  1.00  0.00    -0.392 OA
HETATM   14  H   UNL     1     -41.390 -54.068  16.683  1.00  0.00     0.210 HD
ENDBRANCH  12  13
BRANCH  12  15
HETATM   15  C   UNL     1     -39.411 -54.386  14.585  1.00  0.00     0.201 C 
BRANCH  15  16
HETATM   16  O   UNL     1     -38.832 -53.425  13.715  1.00  0.00    -0.384 OA
BRANCH  16  17
HETATM   17  C   UNL     1     -38.632 -52.155  14.326  1.00  0.00     0.213 C 
BRANCH  17  18
HETATM   18  C   UNL     1     -38.513 -51.162  13.211  1.00  0.00     0.006 A 
HETATM   19  C   UNL     1     -37.372 -50.713  12.572  1.00  0.00     0.017 A 
HETATM   20  C   UNL     1     -37.654 -49.763  11.551  1.00  0.00     0.008 A 
HETATM   21  C   UNL     1     -39.004 -49.519  11.437  1.00  0.00     0.050 A 
HETATM   22  S   UNL     1     -39.920 -50.436  12.553  1.00  0.00    -0.104 SA
ENDBRANCH  17  18
ENDBRANCH  16  17
ENDBRANCH  15  16
ENDBRANCH  12  15
ENDBRANCH   1  12
TORSDOF 7
ENDMDL
MODEL 4
REMARK VINA RESULT:      -5.4      3.091      6.482
REMARK  7 active torsions:
REMARK  status: ('A' for Active; 'I' for Inactive)
REMARK    1  A    between atoms: N_6  and  C_7 
REMARK    2  A    between atoms: C_7  and  C_8 
REMARK    3  A    between atoms: C_8  and  O_9 
REMARK    4  A    between atoms: C_8  and  C_10 
REMARK    5  A    between atoms: C_10  and  O_11 
REMARK    6  A    between atoms: O_11  and  C_12 
REMARK    7  A    between atoms: C_12  and  C_13 
ROOT
HETATM    1  C   UNL     1     -42.118 -51.963  12.509  1.00  0.00     0.166 C 
ENDROOT
BRANCH   1   2
HETATM    2  N   UNL     1     -43.313 -52.509  13.142  1.00  0.00    -0.307 N 
HETATM    3  C   UNL     1     -43.408 -53.848  13.406  1.00  0.00     0.186 A 
HETATM    4  N   UNL     1     -44.442 -54.432  13.908  1.00  0.00    -0.355 N 
HETATM    5  C   UNL     1     -45.529 -53.646  14.202  1.00  0.00     0.017 A 
ATOM      6  HN  UNL     1     -44.453 -55.438  14.079  1.00  0.00     0.166 HD
HETATM    7  C   UNL     1     -46.721 -54.405  14.726  1.00  0.00     0.069 C 
HETATM    8  C   UNL     1     -45.557 -52.310  14.044  1.00  0.00     0.028 A 
HETATM    9  C   UNL     1     -44.339 -51.657  13.495  1.00  0.00     0.256 A 
HETATM   10  C   UNL     1     -46.733 -51.441  14.370  1.00  0.00     0.056 C 
HETATM   11  O   UNL     1     -44.281 -50.437  13.362  1.00  0.00    -0.267 OA
ENDBRANCH   1   2
BRANCH   1  12
HETATM   12  C   UNL     1     -40.889 -52.885  12.637  1.00  0.00     0.160 C 
BRANCH  12  13
HETATM   13  O   UNL     1     -40.457 -53.331  11.344  1.00  0.00    -0.392 OA
HETATM   14  H   UNL     1     -39.860 -54.089  11.456  1.00  0.00     0.210 HD
ENDBRANCH  12  13
BRANCH  12  15
HETATM   15  C   UNL     1     -39.735 -52.154  13.345  1.00  0.00     0.201 C 
BRANCH  15  16
HETATM   16  O   UNL     1     -38.877 -51.588  12.366  1.00  0.00    -0.384 OA
BRANCH  16  17
HETATM   17  C   UNL     1     -37.898 -50.708  12.910  1.00  0.00     0.213 C 
BRANCH  17  18
HETATM   18  C   UNL     1     -38.499 -49.336  12.881  1.00  0.00     0.006 A 
HETATM   19  C   UNL     1     -39.276 -48.754  11.897  1.00  0.00     0.017 A 
HETATM   20  C   UNL     1     -39.669 -47.426  12.223  1.00  0.00     0.008 A 
HETATM   21  C   UNL     1     -39.184 -47.035  13.451  1.00  0.00     0.050 A 
HETATM   22  S   UNL     1     -38.267 -48.268  14.202  1.00  0.00    -0.104 SA
ENDBRANCH  17  18
ENDBRANCH  16  17
ENDBRANCH  15  16
ENDBRANCH  12  15
ENDBRANCH   1  12
TORSDOF 7
ENDMDL
MODEL 5
REMARK VINA RESULT:      -5.2      3.057      5.723
REMARK  7 active torsions:
REMARK  status: ('A' for Active; 'I' for Inactive)
REMARK    1  A    between atoms: N_6  and  C_7 
REMARK    2  A    between atoms: C_7  and  C_8 
REMARK    3  A    between atoms: C_8  and  O_9 
REMARK    4  A    between atoms: C_8  and  C_10 
REMARK    5  A    between atoms: C_10  and  O_11 
REMARK    6  A    between atoms: O_11  and  C_12 
REMARK    7  A    between atoms: C_12  and  C_13 
ROOT
HETATM    1  C   UNL     1     -41.726 -50.305  12.367  1.00  0.00     0.166 C 
ENDROOT
BRANCH   1   2
HETATM    2  N   UNL     1     -42.380 -51.475  12.941  1.00  0.00    -0.307 N 
HETATM    3  C   UNL     1     -42.648 -52.570  12.166  1.00  0.00     0.186 A 
HETATM    4  N   UNL     1     -43.272 -53.625  12.565  1.00  0.00    -0.355 N 
HETATM    5  C   UNL     1     -43.696 -53.650  13.871  1.00  0.00     0.017 A 
ATOM      6  HN  UNL     1     -43.444 -54.410  11.937  1.00  0.00     0.166 HD
HETATM    7  C   UNL     1     -44.471 -54.886  14.250  1.00  0.00     0.069 C 
HETATM    8  C   UNL     1     -43.456 -52.668  14.760  1.00  0.00     0.028 A 
HETATM    9  C   UNL     1     -42.706 -51.477  14.282  1.00  0.00     0.256 A 
HETATM   10  C   UNL     1     -43.906 -52.688  16.189  1.00  0.00     0.056 C 
HETATM   11  O   UNL     1     -42.418 -50.561  15.049  1.00  0.00    -0.267 OA
ENDBRANCH   1   2
BRANCH   1  12
HETATM   12  C   UNL     1     -40.449 -50.651  11.575  1.00  0.00     0.160 C 
BRANCH  12  13
HETATM   13  O   UNL     1     -40.481 -50.043  10.277  1.00  0.00    -0.392 OA
HETATM   14  H   UNL     1     -41.403 -49.836  10.050  1.00  0.00     0.210 HD
ENDBRANCH  12  13
BRANCH  12  15
HETATM   15  C   UNL     1     -39.196 -50.183  12.336  1.00  0.00     0.201 C 
BRANCH  15  16
HETATM   16  O   UNL     1     -38.471 -51.321  12.775  1.00  0.00    -0.384 OA
BRANCH  16  17
HETATM   17  C   UNL     1     -38.277 -51.361  14.185  1.00  0.00     0.213 C 
BRANCH  17  18
HETATM   18  C   UNL     1     -39.084 -52.518  14.690  1.00  0.00     0.006 A 
HETATM   19  C   UNL     1     -39.531 -53.627  13.998  1.00  0.00     0.017 A 
HETATM   20  C   UNL     1     -40.274 -54.523  14.818  1.00  0.00     0.008 A 
HETATM   21  C   UNL     1     -40.366 -54.071  16.115  1.00  0.00     0.050 A 
HETATM   22  S   UNL     1     -39.557 -52.581  16.337  1.00  0.00    -0.104 SA
ENDBRANCH  17  18
ENDBRANCH  16  17
ENDBRANCH  15  16
ENDBRANCH  12  15
ENDBRANCH   1  12
TORSDOF 7
ENDMDL
MODEL 6
REMARK VINA RESULT:      -5.1      2.633      3.495
REMARK  7 active torsions:
REMARK  status: ('A' for Active; 'I' for Inactive)
REMARK    1  A    between atoms: N_6  and  C_7 
REMARK    2  A    between atoms: C_7  and  C_8 
REMARK    3  A    between atoms: C_8  and  O_9 
REMARK    4  A    between atoms: C_8  and  C_10 
REMARK    5  A    between atoms: C_10  and  O_11 
REMARK    6  A    between atoms: O_11  and  C_12 
REMARK    7  A    between atoms: C_12  and  C_13 
ROOT
HETATM    1  C   UNL     1     -41.419 -54.223  13.135  1.00  0.00     0.166 C 
ENDROOT
BRANCH   1   2
HETATM    2  N   UNL     1     -40.774 -52.945  12.857  1.00  0.00    -0.307 N 
HETATM    3  C   UNL     1     -41.200 -52.163  11.820  1.00  0.00     0.186 A 
HETATM    4  N   UNL     1     -40.660 -51.049  11.461  1.00  0.00    -0.355 N 
HETATM    5  C   UNL     1     -39.573 -50.615  12.180  1.00  0.00     0.017 A 
ATOM      6  HN  UNL     1     -41.024 -50.511  10.673  1.00  0.00     0.166 HD
HETATM    7  C   UNL     1     -38.957 -49.340  11.666  1.00  0.00     0.069 C 
HETATM    8  C   UNL     1     -39.079 -51.254  13.256  1.00  0.00     0.028 A 
HETATM    9  C   UNL     1     -39.742 -52.520  13.669  1.00  0.00     0.256 A 
HETATM   10  C   UNL     1     -37.900 -50.786  14.054  1.00  0.00     0.056 C 
HETATM   11  O   UNL     1     -39.367 -53.134  14.665  1.00  0.00    -0.267 OA
ENDBRANCH   1   2
BRANCH   1  12
HETATM   12  C   UNL     1     -42.859 -54.073  13.666  1.00  0.00     0.160 C 
BRANCH  12  13
HETATM   13  O   UNL     1     -43.806 -54.215  12.600  1.00  0.00    -0.392 OA
HETATM   14  H   UNL     1     -44.327 -55.022  12.748  1.00  0.00     0.210 HD
ENDBRANCH  12  13
BRANCH  12  15
HETATM   15  C   UNL     1     -43.145 -55.120  14.757  1.00  0.00     0.201 C 
BRANCH  15  16
HETATM   16  O   UNL     1     -44.172 -54.634  15.605  1.00  0.00    -0.384 OA
BRANCH  16  17
HETATM   17  C   UNL     1     -43.943 -53.307  16.070  1.00  0.00     0.213 C 
BRANCH  17  18
HETATM   18  C   UNL     1     -45.232 -52.566  15.887  1.00  0.00     0.006 A 
HETATM   19  C   UNL     1     -45.707 -51.925  14.758  1.00  0.00     0.017 A 
HETATM   20  C   UNL     1     -46.982 -51.327  14.962  1.00  0.00     0.008 A 
HETATM   21  C   UNL     1     -47.445 -51.535  16.243  1.00  0.00     0.050 A 
HETATM   22  S   UNL     1     -46.347 -52.450  17.183  1.00  0.00    -0.104 SA
ENDBRANCH  17  18
ENDBRANCH  16  17
ENDBRANCH  15  16
ENDBRANCH  12  15
ENDBRANCH   1  12
TORSDOF 7
ENDMDL
MODEL 7
REMARK VINA RESULT:      -5.1      2.970      6.277
REMARK  7 active torsions:
REMARK  status: ('A' for Active; 'I' for Inactive)
REMARK    1  A    between atoms: N_6  and  C_7 
REMARK    2  A    between atoms: C_7  and  C_8 
REMARK    3  A    between atoms: C_8  and  O_9 
REMARK    4  A    between atoms: C_8  and  C_10 
REMARK    5  A    between atoms: C_10  and  O_11 
REMARK    6  A    between atoms: O_11  and  C_12 
REMARK    7  A    between atoms: C_12  and  C_13 
ROOT
HETATM    1  C   UNL     1     -42.330 -51.896  12.345  1.00  0.00     0.166 C 
ENDROOT
BRANCH   1   2
HETATM    2  N   UNL     1     -43.247 -52.304  13.403  1.00  0.00    -0.307 N 
HETATM    3  C   UNL     1     -42.926 -53.338  14.238  1.00  0.00     0.186 A 
HETATM    4  N   UNL     1     -43.692 -53.809  15.163  1.00  0.00    -0.355 N 
HETATM    5  C   UNL     1     -44.923 -53.221  15.320  1.00  0.00     0.017 A 
ATOM      6  HN  UNL     1     -43.395 -54.586  15.753  1.00  0.00     0.166 HD
HETATM    7  C   UNL     1     -45.786 -53.862  16.376  1.00  0.00     0.069 C 
HETATM    8  C   UNL     1     -45.350 -52.163  14.606  1.00  0.00     0.028 A 
HETATM    9  C   UNL     1     -44.433 -51.619  13.569  1.00  0.00     0.256 A 
HETATM   10  C   UNL     1     -46.687 -51.509  14.775  1.00  0.00     0.056 C 
HETATM   11  O   UNL     1     -44.743 -50.631  12.908  1.00  0.00    -0.267 OA
ENDBRANCH   1   2
BRANCH   1  12
HETATM   12  C   UNL     1     -40.909 -52.468  12.519  1.00  0.00     0.160 C 
BRANCH  12  13
HETATM   13  O   UNL     1     -40.599 -53.378  11.455  1.00  0.00    -0.392 OA
HETATM   14  H   UNL     1     -41.251 -54.099  11.458  1.00  0.00     0.210 HD
ENDBRANCH  12  13
BRANCH  12  15
HETATM   15  C   UNL     1     -39.869 -51.335  12.550  1.00  0.00     0.201 C 
BRANCH  15  16
HETATM   16  O   UNL     1     -40.545 -50.087  12.508  1.00  0.00    -0.384 OA
BRANCH  16  17
HETATM   17  C   UNL     1     -39.791 -49.056  11.879  1.00  0.00     0.213 C 
BRANCH  17  18
HETATM   18  C   UNL     1     -40.787 -48.108  11.284  1.00  0.00     0.006 A 
HETATM   19  C   UNL     1     -42.093 -48.353  10.902  1.00  0.00     0.017 A 
HETATM   20  C   UNL     1     -42.736 -47.199  10.373  1.00  0.00     0.008 A 
HETATM   21  C   UNL     1     -41.901 -46.104  10.372  1.00  0.00     0.050 A 
HETATM   22  S   UNL     1     -40.357 -46.471  11.009  1.00  0.00    -0.104 SA
ENDBRANCH  17  18
ENDBRANCH  16  17
ENDBRANCH  15  16
ENDBRANCH  12  15
ENDBRANCH   1  12
TORSDOF 7
ENDMDL
MODEL 8
REMARK VINA RESULT:      -5.0      1.505      1.838
REMARK  7 active torsions:
REMARK  status: ('A' for Active; 'I' for Inactive)
REMARK    1  A    between atoms: N_6  and  C_7 
REMARK    2  A    between atoms: C_7  and  C_8 
REMARK    3  A    between atoms: C_8  and  O_9 
REMARK    4  A    between atoms: C_8  and  C_10 
REMARK    5  A    between atoms: C_10  and  O_11 
REMARK    6  A    between atoms: O_11  and  C_12 
REMARK    7  A    between atoms: C_12  and  C_13 
ROOT
HETATM    1  C   UNL     1     -41.539 -50.174  12.733  1.00  0.00     0.166 C 
ENDROOT
BRANCH   1   2
HETATM    2  N   UNL     1     -41.105 -48.876  12.231  1.00  0.00    -0.307 N 
HETATM    3  C   UNL     1     -41.360 -48.511  10.937  1.00  0.00     0.186 A 
HETATM    4  N   UNL     1     -40.969 -47.414  10.386  1.00  0.00    -0.355 N 
HETATM    5  C   UNL     1     -40.241 -46.544  11.161  1.00  0.00     0.017 A 
ATOM      6  HN  UNL     1     -41.190 -47.200   9.413  1.00  0.00     0.166 HD
HETATM    7  C   UNL     1     -39.766 -45.313  10.434  1.00  0.00     0.069 C 
HETATM    8  C   UNL     1     -39.961 -46.748  12.462  1.00  0.00     0.028 A 
HETATM    9  C   UNL     1     -40.453 -48.007  13.082  1.00  0.00     0.256 A 
HETATM   10  C   UNL     1     -39.176 -45.803  13.319  1.00  0.00     0.056 C 
HETATM   11  O   UNL     1     -40.267 -48.239  14.273  1.00  0.00    -0.267 OA
ENDBRANCH   1   2
BRANCH   1  12
HETATM   12  C   UNL     1     -41.064 -51.353  11.859  1.00  0.00     0.160 C 
BRANCH  12  13
HETATM   13  O   UNL     1     -39.656 -51.569  12.029  1.00  0.00    -0.392 OA
HETATM   14  H   UNL     1     -39.271 -50.797  12.474  1.00  0.00     0.210 HD
ENDBRANCH  12  13
BRANCH  12  15
HETATM   15  C   UNL     1     -41.832 -52.637  12.218  1.00  0.00     0.201 C 
BRANCH  15  16
HETATM   16  O   UNL     1     -42.449 -52.467  13.485  1.00  0.00    -0.384 OA
BRANCH  16  17
HETATM   17  C   UNL     1     -43.278 -53.561  13.863  1.00  0.00     0.213 C 
BRANCH  17  18
HETATM   18  C   UNL     1     -44.619 -52.982  14.194  1.00  0.00     0.006 A 
HETATM   19  C   UNL     1     -45.015 -51.657  14.182  1.00  0.00     0.017 A 
HETATM   20  C   UNL     1     -46.377 -51.489  14.556  1.00  0.00     0.008 A 
HETATM   21  C   UNL     1     -46.983 -52.693  14.838  1.00  0.00     0.050 A 
HETATM   22  S   UNL     1     -45.912 -54.012  14.646  1.00  0.00    -0.104 SA
ENDBRANCH  17  18
ENDBRANCH  16  17
ENDBRANCH  15  16
ENDBRANCH  12  15
ENDBRANCH   1  12
TORSDOF 7
ENDMDL
MODEL 9
REMARK VINA RESULT:      -4.9      3.116      6.526
REMARK  7 active torsions:
REMARK  status: ('A' for Active; 'I' for Inactive)
REMARK    1  A    between atoms: N_6  and  C_7 
REMARK    2  A    between atoms: C_7  and  C_8 
REMARK    3  A    between atoms: C_8  and  O_9 
REMARK    4  A    between atoms: C_8  and  C_10 
REMARK    5  A    between atoms: C_10  and  O_11 
REMARK    6  A    between atoms: O_11  and  C_12 
REMARK    7  A    between atoms: C_12  and  C_13 
ROOT
HETATM    1  C   UNL     1     -40.680 -52.266  12.361  1.00  0.00     0.166 C 
ENDROOT
BRANCH   1   2
HETATM    2  N   UNL     1     -41.847 -53.019  12.805  1.00  0.00    -0.307 N 
HETATM    3  C   UNL     1     -43.055 -52.857  12.185  1.00  0.00     0.186 A 
HETATM    4  N   UNL     1     -44.153 -53.431  12.540  1.00  0.00    -0.355 N 
HETATM    5  C   UNL     1     -44.102 -54.274  13.622  1.00  0.00     0.017 A 
ATOM      6  HN  UNL     1     -45.026 -53.266  12.037  1.00  0.00     0.166 HD
HETATM    7  C   UNL     1     -45.432 -54.862  14.017  1.00  0.00     0.069 C 
HETATM    8  C   UNL     1     -42.973 -54.570  14.294  1.00  0.00     0.028 A 
HETATM    9  C   UNL     1     -41.715 -53.918  13.843  1.00  0.00     0.256 A 
HETATM   10  C   UNL     1     -42.903 -55.494  15.471  1.00  0.00     0.056 C 
HETATM   11  O   UNL     1     -40.642 -54.172  14.386  1.00  0.00    -0.267 OA
ENDBRANCH   1   2
BRANCH   1  12
HETATM   12  C   UNL     1     -40.559 -50.883  13.031  1.00  0.00     0.160 C 
BRANCH  12  13
HETATM   13  O   UNL     1     -40.480 -51.020  14.456  1.00  0.00    -0.392 OA
HETATM   14  H   UNL     1     -40.486 -51.965  14.682  1.00  0.00     0.210 HD
ENDBRANCH  12  13
BRANCH  12  15
HETATM   15  C   UNL     1     -39.317 -50.138  12.513  1.00  0.00     0.201 C 
BRANCH  15  16
HETATM   16  O   UNL     1     -39.690 -49.333  11.405  1.00  0.00    -0.384 OA
BRANCH  16  17
HETATM   17  C   UNL     1     -39.872 -47.960  11.737  1.00  0.00     0.213 C 
BRANCH  17  18
HETATM   18  C   UNL     1     -41.056 -47.488  10.950  1.00  0.00     0.006 A 
HETATM   19  C   UNL     1     -42.072 -48.236  10.385  1.00  0.00     0.017 A 
HETATM   20  C   UNL     1     -43.032 -47.434   9.708  1.00  0.00     0.008 A 
HETATM   21  C   UNL     1     -42.723 -46.094   9.782  1.00  0.00     0.050 A 
HETATM   22  S   UNL     1     -41.287 -45.813  10.667  1.00  0.00    -0.104 SA
ENDBRANCH  17  18
ENDBRANCH  16  17
ENDBRANCH  15  16
ENDBRANCH  12  15
ENDBRANCH   1  12
TORSDOF 7
ENDMDL
