MODEL 1
REMARK VINA RESULT:      -6.6      0.000      0.000
REMARK  4 active torsions:
REMARK  status: ('A' for Active; 'I' for Inactive)
REMARK    1  A    between atoms: O_2  and  C_3 
REMARK    2  A    between atoms: C_6  and  N_7 
REMARK       I    between atoms: N_7  and  C_8 
REMARK       I    between atoms: C_8  and  N_10 
REMARK    3  A    between atoms: N_10  and  C_11 
REMARK    4  A    between atoms: C_15  and  C_16 
REMARK       I    between atoms: C_16  and  N_18 
ROOT
HETATM    1  N   UNL     1     -42.160 -49.302  11.429  1.00  0.00    -0.308 N 
HETATM    2  C   UNL     1     -42.974 -49.467  12.524  1.00  0.00     0.321 C 
HETATM    3  O   UNL     1     -43.338 -48.572  13.274  1.00  0.00    -0.247 OA
HETATM    4  N   UNL     1     -43.459 -50.752  12.649  1.00  0.00    -0.337 N 
HETATM    5  H   UNL     1     -42.189 -50.032  10.732  1.00  0.00     0.170 HD
HETATM    6  H   UNL     1     -42.806 -51.481  12.397  1.00  0.00     0.164 HD
ENDROOT
BRANCH   1   7
HETATM    7  C   UNL     1     -41.542 -48.075  11.075  1.00  0.00     0.051 A 
HETATM    8  C   UNL     1     -40.322 -47.654  11.605  1.00  0.00     0.035 A 
HETATM    9  C   UNL     1     -39.772 -46.435  11.221  1.00  0.00     0.058 A 
HETATM   10  C   UNL     1     -40.452 -45.670  10.294  1.00  0.00     0.141 A 
HETATM   11  N   UNL     1     -41.633 -46.033   9.747  1.00  0.00    -0.345 N 
HETATM   12  C   UNL     1     -42.146 -47.224  10.151  1.00  0.00     0.119 A 
ATOM     13  HN  UNL     1     -42.114 -45.444   9.067  1.00  0.00     0.167 HD
BRANCH  10  14
HETATM   14  O   UNL     1     -39.838 -44.489   9.931  1.00  0.00    -0.341 OA
HETATM   15  C   UNL     1     -38.744 -44.672   9.044  1.00  0.00     0.211 C 
ENDBRANCH  10  14
ENDBRANCH   1   7
BRANCH   4  16
HETATM   16  C   UNL     1     -44.348 -51.031  13.769  1.00  0.00     0.099 C 
HETATM   17  C   UNL     1     -43.909 -52.212  14.635  1.00  0.00     0.026 C 
HETATM   18  C   UNL     1     -45.178 -52.687  15.352  1.00  0.00     0.003 C 
HETATM   19  C   UNL     1     -46.328 -51.850  14.791  1.00  0.00     0.016 C 
HETATM   20  C   UNL     1     -45.821 -51.349  13.439  1.00  0.00     0.100 C 
BRANCH  20  21
HETATM   21  C   UNL     1     -46.014 -52.395  12.344  1.00  0.00     0.221 C 
HETATM   22  O   UNL     1     -45.324 -53.401  12.217  1.00  0.00    -0.273 OA
HETATM   23  N   UNL     1     -47.042 -52.163  11.481  1.00  0.00    -0.370 N 
HETATM   24  H   UNL     1     -47.760 -51.481  11.698  1.00  0.00     0.159 HD
HETATM   25  H   UNL     1     -47.249 -52.879  10.797  1.00  0.00     0.159 HD
ENDBRANCH  20  21
ENDBRANCH   4  16
TORSDOF 4
ENDMDL
MODEL 2
REMARK VINA RESULT:      -6.5      1.783      2.145
REMARK  4 active torsions:
REMARK  status: ('A' for Active; 'I' for Inactive)
REMARK    1  A    between atoms: O_2  and  C_3 
REMARK    2  A    between atoms: C_6  and  N_7 
REMARK       I    between atoms: N_7  and  C_8 
REMARK       I    between atoms: C_8  and  N_10 
REMARK    3  A    between atoms: N_10  and  C_11 
REMARK    4  A    between atoms: C_15  and  C_16 
REMARK       I    between atoms: C_16  and  N_18 
ROOT
HETATM    1  N   UNL     1     -43.283 -49.333  11.853  1.00  0.00    -0.308 N 
HETATM    2  C   UNL     1     -42.819 -50.227  12.787  1.00  0.00     0.321 C 
HETATM    3  O   UNL     1     -41.865 -50.040  13.531  1.00  0.00    -0.247 OA
HETATM    4  N   UNL     1     -43.614 -51.348  12.906  1.00  0.00    -0.337 N 
HETATM    5  H   UNL     1     -44.232 -49.465  11.536  1.00  0.00     0.170 HD
HETATM    6  H   UNL     1     -44.003 -51.688  12.038  1.00  0.00     0.164 HD
ENDROOT
BRANCH   1   7
HETATM    7  C   UNL     1     -42.649 -48.101  11.547  1.00  0.00     0.051 A 
HETATM    8  C   UNL     1     -43.023 -46.886  12.123  1.00  0.00     0.035 A 
HETATM    9  C   UNL     1     -42.365 -45.711  11.775  1.00  0.00     0.058 A 
HETATM   10  C   UNL     1     -41.326 -45.783  10.868  1.00  0.00     0.141 A 
HETATM   11  N   UNL     1     -40.921 -46.933  10.284  1.00  0.00    -0.345 N 
HETATM   12  C   UNL     1     -41.592 -48.060  10.640  1.00  0.00     0.119 A 
ATOM     13  HN  UNL     1     -40.153 -46.954   9.614  1.00  0.00     0.167 HD
BRANCH  10  14
HETATM   14  O   UNL     1     -40.693 -44.589  10.590  1.00  0.00    -0.341 OA
HETATM   15  C   UNL     1     -39.438 -44.754   9.946  1.00  0.00     0.211 C 
ENDBRANCH  10  14
ENDBRANCH   1   7
BRANCH   4  16
HETATM   16  C   UNL     1     -43.221 -52.352  13.885  1.00  0.00     0.099 C 
HETATM   17  C   UNL     1     -42.200 -53.364  13.365  1.00  0.00     0.026 C 
HETATM   18  C   UNL     1     -42.344 -54.593  14.270  1.00  0.00     0.003 C 
HETATM   19  C   UNL     1     -43.520 -54.305  15.203  1.00  0.00     0.016 C 
HETATM   20  C   UNL     1     -44.337 -53.235  14.479  1.00  0.00     0.100 C 
BRANCH  20  21
HETATM   21  C   UNL     1     -45.277 -53.851  13.445  1.00  0.00     0.221 C 
HETATM   22  O   UNL     1     -45.490 -53.378  12.333  1.00  0.00    -0.273 OA
HETATM   23  N   UNL     1     -45.886 -55.011  13.817  1.00  0.00    -0.370 N 
HETATM   24  H   UNL     1     -45.556 -55.539  14.616  1.00  0.00     0.159 HD
HETATM   25  H   UNL     1     -46.447 -55.487  13.123  1.00  0.00     0.159 HD
ENDBRANCH  20  21
ENDBRANCH   4  16
TORSDOF 4
ENDMDL
MODEL 3
REMARK VINA RESULT:      -6.0      4.116      5.455
REMARK  4 active torsions:
REMARK  status: ('A' for Active; 'I' for Inactive)
REMARK    1  A    between atoms: O_2  and  C_3 
REMARK    2  A    between atoms: C_6  and  N_7 
REMARK       I    between atoms: N_7  and  C_8 
REMARK       I    between atoms: C_8  and  N_10 
REMARK    3  A    between atoms: N_10  and  C_11 
REMARK    4  A    between atoms: C_15  and  C_16 
REMARK       I    between atoms: C_16  and  N_18 
ROOT
HETATM    1  N   UNL     1     -40.435 -46.520  10.656  1.00  0.00    -0.308 N 
HETATM    2  C   UNL     1     -39.670 -47.177  11.589  1.00  0.00     0.321 C 
HETATM    3  O   UNL     1     -39.436 -46.773  12.721  1.00  0.00    -0.247 OA
HETATM    4  N   UNL     1     -39.267 -48.429  11.175  1.00  0.00    -0.337 N 
HETATM    5  H   UNL     1     -40.805 -47.080   9.901  1.00  0.00     0.170 HD
HETATM    6  H   UNL     1     -39.029 -48.498  10.196  1.00  0.00     0.164 HD
ENDROOT
BRANCH   1   7
HETATM    7  C   UNL     1     -40.977 -45.223  10.842  1.00  0.00     0.051 A 
HETATM    8  C   UNL     1     -40.192 -44.072  10.929  1.00  0.00     0.035 A 
HETATM    9  C   UNL     1     -40.786 -42.829  11.119  1.00  0.00     0.058 A 
HETATM   10  C   UNL     1     -42.163 -42.763  11.198  1.00  0.00     0.141 A 
HETATM   11  N   UNL     1     -42.969 -43.845  11.116  1.00  0.00    -0.345 N 
HETATM   12  C   UNL     1     -42.356 -45.043  10.940  1.00  0.00     0.119 A 
ATOM     13  HN  UNL     1     -43.984 -43.765  11.183  1.00  0.00     0.167 HD
BRANCH  10  14
HETATM   14  O   UNL     1     -42.692 -41.498  11.354  1.00  0.00    -0.341 OA
HETATM   15  C   UNL     1     -44.112 -41.478  11.356  1.00  0.00     0.211 C 
ENDBRANCH  10  14
ENDBRANCH   1   7
BRANCH   4  16
HETATM   16  C   UNL     1     -38.466 -49.220  12.099  1.00  0.00     0.099 C 
HETATM   17  C   UNL     1     -37.427 -50.112  11.420  1.00  0.00     0.026 C 
HETATM   18  C   UNL     1     -37.112 -51.218  12.432  1.00  0.00     0.003 C 
HETATM   19  C   UNL     1     -38.060 -51.005  13.612  1.00  0.00     0.016 C 
HETATM   20  C   UNL     1     -39.217 -50.187  13.038  1.00  0.00     0.100 C 
BRANCH  20  21
HETATM   21  C   UNL     1     -40.243 -51.077  12.341  1.00  0.00     0.221 C 
HETATM   22  O   UNL     1     -40.916 -50.733  11.375  1.00  0.00    -0.273 OA
HETATM   23  N   UNL     1     -40.376 -52.334  12.849  1.00  0.00    -0.370 N 
HETATM   24  H   UNL     1     -39.682 -52.716  13.480  1.00  0.00     0.159 HD
HETATM   25  H   UNL     1     -40.985 -52.974  12.357  1.00  0.00     0.159 HD
ENDBRANCH  20  21
ENDBRANCH   4  16
TORSDOF 4
ENDMDL
MODEL 4
REMARK VINA RESULT:      -5.7      2.221      7.928
REMARK  4 active torsions:
REMARK  status: ('A' for Active; 'I' for Inactive)
REMARK    1  A    between atoms: O_2  and  C_3 
REMARK    2  A    between atoms: C_6  and  N_7 
REMARK       I    between atoms: N_7  and  C_8 
REMARK       I    between atoms: C_8  and  N_10 
REMARK    3  A    between atoms: N_10  and  C_11 
REMARK    4  A    between atoms: C_15  and  C_16 
REMARK       I    between atoms: C_16  and  N_18 
ROOT
HETATM    1  N   UNL     1     -44.613 -50.917  12.889  1.00  0.00    -0.308 N 
HETATM    2  C   UNL     1     -43.643 -49.950  13.004  1.00  0.00     0.321 C 
HETATM    3  O   UNL     1     -42.906 -49.801  13.969  1.00  0.00    -0.247 OA
HETATM    4  N   UNL     1     -43.481 -49.206  11.853  1.00  0.00    -0.337 N 
HETATM    5  H   UNL     1     -44.926 -51.132  11.954  1.00  0.00     0.170 HD
HETATM    6  H   UNL     1     -44.336 -49.001  11.356  1.00  0.00     0.164 HD
ENDROOT
BRANCH   1   7
HETATM    7  C   UNL     1     -44.966 -51.816  13.927  1.00  0.00     0.051 A 
HETATM    8  C   UNL     1     -46.007 -51.577  14.825  1.00  0.00     0.035 A 
HETATM    9  C   UNL     1     -46.298 -52.498  15.826  1.00  0.00     0.058 A 
HETATM   10  C   UNL     1     -45.547 -53.654  15.894  1.00  0.00     0.141 A 
HETATM   11  N   UNL     1     -44.531 -53.937  15.049  1.00  0.00    -0.345 N 
HETATM   12  C   UNL     1     -44.268 -53.012  14.089  1.00  0.00     0.119 A 
ATOM     13  HN  UNL     1     -43.990 -54.798  15.127  1.00  0.00     0.167 HD
BRANCH  10  14
HETATM   14  O   UNL     1     -45.906 -54.542  16.888  1.00  0.00    -0.341 OA
HETATM   15  C   UNL     1     -45.361 -54.215  18.158  1.00  0.00     0.211 C 
ENDBRANCH  10  14
ENDBRANCH   1   7
BRANCH   4  16
HETATM   16  C   UNL     1     -42.463 -48.165  11.861  1.00  0.00     0.099 C 
HETATM   17  C   UNL     1     -42.882 -46.888  12.589  1.00  0.00     0.026 C 
HETATM   18  C   UNL     1     -41.982 -45.782  12.026  1.00  0.00     0.003 C 
HETATM   19  C   UNL     1     -41.158 -46.424  10.911  1.00  0.00     0.016 C 
HETATM   20  C   UNL     1     -41.960 -47.657  10.495  1.00  0.00     0.100 C 
BRANCH  20  21
HETATM   21  C   UNL     1     -43.067 -47.299   9.506  1.00  0.00     0.221 C 
HETATM   22  O   UNL     1     -44.224 -47.699   9.585  1.00  0.00    -0.273 OA
HETATM   23  N   UNL     1     -42.705 -46.465   8.491  1.00  0.00    -0.370 N 
HETATM   24  H   UNL     1     -41.839 -45.942   8.532  1.00  0.00     0.159 HD
HETATM   25  H   UNL     1     -43.434 -46.143   7.869  1.00  0.00     0.159 HD
ENDBRANCH  20  21
ENDBRANCH   4  16
TORSDOF 4
ENDMDL
MODEL 5
REMARK VINA RESULT:      -5.6      5.904      8.273
REMARK  4 active torsions:
REMARK  status: ('A' for Active; 'I' for Inactive)
REMARK    1  A    between atoms: O_2  and  C_3 
REMARK    2  A    between atoms: C_6  and  N_7 
REMARK       I    between atoms: N_7  and  C_8 
REMARK       I    between atoms: C_8  and  N_10 
REMARK    3  A    between atoms: N_10  and  C_11 
REMARK    4  A    between atoms: C_15  and  C_16 
REMARK       I    between atoms: C_16  and  N_18 
ROOT
HETATM    1  N   UNL     1     -42.146 -55.473  15.638  1.00  0.00    -0.308 N 
HETATM    2  C   UNL     1     -42.844 -54.309  15.853  1.00  0.00     0.321 C 
HETATM    3  O   UNL     1     -42.438 -53.352  16.499  1.00  0.00    -0.247 OA
HETATM    4  N   UNL     1     -44.036 -54.256  15.161  1.00  0.00    -0.337 N 
HETATM    5  H   UNL     1     -42.443 -56.038  14.855  1.00  0.00     0.170 HD
HETATM    6  H   UNL     1     -44.533 -55.133  15.102  1.00  0.00     0.164 HD
ENDROOT
BRANCH   1   7
HETATM    7  C   UNL     1     -40.891 -55.769  16.227  1.00  0.00     0.051 A 
HETATM    8  C   UNL     1     -39.680 -55.285  15.729  1.00  0.00     0.035 A 
HETATM    9  C   UNL     1     -38.481 -55.618  16.350  1.00  0.00     0.058 A 
HETATM   10  C   UNL     1     -38.523 -56.416  17.476  1.00  0.00     0.141 A 
HETATM   11  N   UNL     1     -39.667 -56.908  18.001  1.00  0.00    -0.345 N 
HETATM   12  C   UNL     1     -40.819 -56.572  17.365  1.00  0.00     0.119 A 
ATOM     13  HN  UNL     1     -39.666 -57.500  18.832  1.00  0.00     0.167 HD
BRANCH  10  14
HETATM   14  O   UNL     1     -37.304 -56.683  18.064  1.00  0.00    -0.341 OA
HETATM   15  C   UNL     1     -36.238 -55.914  17.525  1.00  0.00     0.211 C 
ENDBRANCH  10  14
ENDBRANCH   1   7
BRANCH   4  16
HETATM   16  C   UNL     1     -44.845 -53.054  15.305  1.00  0.00     0.099 C 
HETATM   17  C   UNL     1     -46.256 -53.311  15.836  1.00  0.00     0.026 C 
HETATM   18  C   UNL     1     -47.087 -52.101  15.394  1.00  0.00     0.003 C 
HETATM   19  C   UNL     1     -46.169 -51.245  14.522  1.00  0.00     0.016 C 
HETATM   20  C   UNL     1     -45.083 -52.205  14.039  1.00  0.00     0.100 C 
BRANCH  20  21
HETATM   21  C   UNL     1     -45.540 -53.002  12.819  1.00  0.00     0.221 C 
HETATM   22  O   UNL     1     -45.202 -54.156  12.579  1.00  0.00    -0.273 OA
HETATM   23  N   UNL     1     -46.391 -52.354  11.976  1.00  0.00    -0.370 N 
HETATM   24  H   UNL     1     -46.864 -51.505  12.265  1.00  0.00     0.159 HD
HETATM   25  H   UNL     1     -46.778 -52.883  11.205  1.00  0.00     0.159 HD
ENDBRANCH  20  21
ENDBRANCH   4  16
TORSDOF 4
ENDMDL
MODEL 6
REMARK VINA RESULT:      -5.6      2.333      8.017
REMARK  4 active torsions:
REMARK  status: ('A' for Active; 'I' for Inactive)
REMARK    1  A    between atoms: O_2  and  C_3 
REMARK    2  A    between atoms: C_6  and  N_7 
REMARK       I    between atoms: N_7  and  C_8 
REMARK       I    between atoms: C_8  and  N_10 
REMARK    3  A    between atoms: N_10  and  C_11 
REMARK    4  A    between atoms: C_15  and  C_16 
REMARK       I    between atoms: C_16  and  N_18 
ROOT
HETATM    1  N   UNL     1     -42.117 -49.407  13.153  1.00  0.00    -0.308 N 
HETATM    2  C   UNL     1     -42.048 -48.430  12.189  1.00  0.00     0.321 C 
HETATM    3  O   UNL     1     -42.634 -48.455  11.116  1.00  0.00    -0.247 OA
HETATM    4  N   UNL     1     -41.330 -47.322  12.590  1.00  0.00    -0.337 N 
HETATM    5  H   UNL     1     -41.855 -49.135  14.090  1.00  0.00     0.170 HD
HETATM    6  H   UNL     1     -40.518 -47.523  13.158  1.00  0.00     0.164 HD
ENDROOT
BRANCH   1   7
HETATM    7  C   UNL     1     -42.801 -50.638  12.990  1.00  0.00     0.051 A 
HETATM    8  C   UNL     1     -44.065 -50.886  13.527  1.00  0.00     0.035 A 
HETATM    9  C   UNL     1     -44.680 -52.119  13.336  1.00  0.00     0.058 A 
HETATM   10  C   UNL     1     -44.020 -53.075  12.590  1.00  0.00     0.141 A 
HETATM   11  N   UNL     1     -42.797 -52.885  12.045  1.00  0.00    -0.345 N 
HETATM   12  C   UNL     1     -42.222 -51.674  12.259  1.00  0.00     0.119 A 
ATOM     13  HN  UNL     1     -42.332 -53.613  11.503  1.00  0.00     0.167 HD
BRANCH  10  14
HETATM   14  O   UNL     1     -44.697 -54.264  12.410  1.00  0.00    -0.341 OA
HETATM   15  C   UNL     1     -45.347 -54.725  13.585  1.00  0.00     0.211 C 
ENDBRANCH  10  14
ENDBRANCH   1   7
BRANCH   4  16
HETATM   16  C   UNL     1     -41.212 -46.218  11.649  1.00  0.00     0.099 C 
HETATM   17  C   UNL     1     -39.911 -46.220  10.845  1.00  0.00     0.026 C 
HETATM   18  C   UNL     1     -39.719 -44.774  10.374  1.00  0.00     0.003 C 
HETATM   19  C   UNL     1     -40.841 -43.960  11.016  1.00  0.00     0.016 C 
HETATM   20  C   UNL     1     -41.282 -44.788  12.223  1.00  0.00     0.100 C 
BRANCH  20  21
HETATM   21  C   UNL     1     -40.381 -44.545  13.431  1.00  0.00     0.221 C 
HETATM   22  O   UNL     1     -40.001 -45.422  14.200  1.00  0.00    -0.273 OA
HETATM   23  N   UNL     1     -39.982 -43.256  13.620  1.00  0.00    -0.370 N 
HETATM   24  H   UNL     1     -40.082 -42.567  12.884  1.00  0.00     0.159 HD
HETATM   25  H   UNL     1     -39.317 -43.077  14.360  1.00  0.00     0.159 HD
ENDBRANCH  20  21
ENDBRANCH   4  16
TORSDOF 4
ENDMDL
MODEL 7
REMARK VINA RESULT:      -5.6      3.552      7.572
REMARK  4 active torsions:
REMARK  status: ('A' for Active; 'I' for Inactive)
REMARK    1  A    between atoms: O_2  and  C_3 
REMARK    2  A    between atoms: C_6  and  N_7 
REMARK       I    between atoms: N_7  and  C_8 
REMARK       I    between atoms: C_8  and  N_10 
REMARK    3  A    between atoms: N_10  and  C_11 
REMARK    4  A    between atoms: C_15  and  C_16 
REMARK       I    between atoms: C_16  and  N_18 
ROOT
HETATM    1  N   UNL     1     -40.418 -50.803  11.446  1.00  0.00    -0.308 N 
HETATM    2  C   UNL     1     -41.440 -49.886  11.487  1.00  0.00     0.321 C 
HETATM    3  O   UNL     1     -42.293 -49.817  12.363  1.00  0.00    -0.247 OA
HETATM    4  N   UNL     1     -41.360 -48.940  10.487  1.00  0.00    -0.337 N 
HETATM    5  H   UNL     1     -39.624 -50.568  10.869  1.00  0.00     0.170 HD
HETATM    6  H   UNL     1     -41.036 -49.289   9.595  1.00  0.00     0.164 HD
ENDROOT
BRANCH   1   7
HETATM    7  C   UNL     1     -40.271 -51.871  12.368  1.00  0.00     0.051 A 
HETATM    8  C   UNL     1     -40.984 -53.067  12.272  1.00  0.00     0.035 A 
HETATM    9  C   UNL     1     -40.798 -54.074  13.213  1.00  0.00     0.058 A 
HETATM   10  C   UNL     1     -39.881 -53.867  14.224  1.00  0.00     0.141 A 
HETATM   11  N   UNL     1     -39.162 -52.731  14.361  1.00  0.00    -0.345 N 
HETATM   12  C   UNL     1     -39.375 -51.765  13.431  1.00  0.00     0.119 A 
ATOM     13  HN  UNL     1     -38.495 -52.606  15.122  1.00  0.00     0.167 HD
BRANCH  10  14
HETATM   14  O   UNL     1     -39.719 -54.916  15.106  1.00  0.00    -0.341 OA
HETATM   15  C   UNL     1     -40.791 -55.047  16.029  1.00  0.00     0.211 C 
ENDBRANCH  10  14
ENDBRANCH   1   7
BRANCH   4  16
HETATM   16  C   UNL     1     -42.386 -47.907  10.451  1.00  0.00     0.099 C 
HETATM   17  C   UNL     1     -42.782 -47.470   9.040  1.00  0.00     0.026 C 
HETATM   18  C   UNL     1     -43.393 -46.073   9.201  1.00  0.00     0.003 C 
HETATM   19  C   UNL     1     -43.222 -45.696  10.672  1.00  0.00     0.016 C 
HETATM   20  C   UNL     1     -42.077 -46.578  11.170  1.00  0.00     0.100 C 
BRANCH  20  21
HETATM   21  C   UNL     1     -40.716 -45.975  10.832  1.00  0.00     0.221 C 
HETATM   22  O   UNL     1     -39.691 -46.628  10.664  1.00  0.00    -0.273 OA
HETATM   23  N   UNL     1     -40.687 -44.619  10.701  1.00  0.00    -0.370 N 
HETATM   24  H   UNL     1     -41.543 -44.088  10.601  1.00  0.00     0.159 HD
HETATM   25  H   UNL     1     -39.820 -44.199  10.394  1.00  0.00     0.159 HD
ENDBRANCH  20  21
ENDBRANCH   4  16
TORSDOF 4
ENDMDL
MODEL 8
REMARK VINA RESULT:      -5.6      2.898      3.615
REMARK  4 active torsions:
REMARK  status: ('A' for Active; 'I' for Inactive)
REMARK    1  A    between atoms: O_2  and  C_3 
REMARK    2  A    between atoms: C_6  and  N_7 
REMARK       I    between atoms: N_7  and  C_8 
REMARK       I    between atoms: C_8  and  N_10 
REMARK    3  A    between atoms: N_10  and  C_11 
REMARK    4  A    between atoms: C_15  and  C_16 
REMARK       I    between atoms: C_16  and  N_18 
ROOT
HETATM    1  N   UNL     1     -41.685 -50.212  11.560  1.00  0.00    -0.308 N 
HETATM    2  C   UNL     1     -41.220 -50.694  12.760  1.00  0.00     0.321 C 
HETATM    3  O   UNL     1     -40.963 -50.012  13.743  1.00  0.00    -0.247 OA
HETATM    4  N   UNL     1     -41.172 -52.072  12.808  1.00  0.00    -0.337 N 
HETATM    5  H   UNL     1     -42.145 -50.877  10.955  1.00  0.00     0.170 HD
HETATM    6  H   UNL     1     -40.892 -52.519  11.947  1.00  0.00     0.164 HD
ENDROOT
BRANCH   1   7
HETATM    7  C   UNL     1     -41.834 -48.833  11.261  1.00  0.00     0.051 A 
HETATM    8  C   UNL     1     -43.039 -48.145  11.410  1.00  0.00     0.035 A 
HETATM    9  C   UNL     1     -43.121 -46.794  11.092  1.00  0.00     0.058 A 
HETATM   10  C   UNL     1     -41.981 -46.152  10.650  1.00  0.00     0.141 A 
HETATM   11  N   UNL     1     -40.789 -46.770  10.492  1.00  0.00    -0.345 N 
HETATM   12  C   UNL     1     -40.747 -48.091  10.802  1.00  0.00     0.119 A 
ATOM     13  HN  UNL     1     -39.965 -46.270  10.158  1.00  0.00     0.167 HD
BRANCH  10  14
HETATM   14  O   UNL     1     -42.120 -44.805  10.383  1.00  0.00    -0.341 OA
HETATM   15  C   UNL     1     -42.350 -44.022  11.545  1.00  0.00     0.211 C 
ENDBRANCH  10  14
ENDBRANCH   1   7
BRANCH   4  16
HETATM   16  C   UNL     1     -40.711 -52.687  14.045  1.00  0.00     0.099 C 
HETATM   17  C   UNL     1     -39.708 -53.823  13.840  1.00  0.00     0.026 C 
HETATM   18  C   UNL     1     -39.783 -54.671  15.115  1.00  0.00     0.003 C 
HETATM   19  C   UNL     1     -40.907 -54.075  15.962  1.00  0.00     0.016 C 
HETATM   20  C   UNL     1     -41.779 -53.309  14.967  1.00  0.00     0.100 C 
BRANCH  20  21
HETATM   21  C   UNL     1     -42.768 -54.232  14.260  1.00  0.00     0.221 C 
HETATM   22  O   UNL     1     -43.110 -54.114  13.088  1.00  0.00    -0.273 OA
HETATM   23  N   UNL     1     -43.269 -55.250  15.014  1.00  0.00    -0.370 N 
HETATM   24  H   UNL     1     -42.835 -55.508  15.893  1.00  0.00     0.159 HD
HETATM   25  H   UNL     1     -43.859 -55.927  14.551  1.00  0.00     0.159 HD
ENDBRANCH  20  21
ENDBRANCH   4  16
TORSDOF 4
ENDMDL
MODEL 9
REMARK VINA RESULT:      -5.5      2.860      7.422
REMARK  4 active torsions:
REMARK  status: ('A' for Active; 'I' for Inactive)
REMARK    1  A    between atoms: O_2  and  C_3 
REMARK    2  A    between atoms: C_6  and  N_7 
REMARK       I    between atoms: N_7  and  C_8 
REMARK       I    between atoms: C_8  and  N_10 
REMARK    3  A    between atoms: N_10  and  C_11 
REMARK    4  A    between atoms: C_15  and  C_16 
REMARK       I    between atoms: C_16  and  N_18 
ROOT
HETATM    1  N   UNL     1     -42.480 -51.319  12.199  1.00  0.00    -0.308 N 
HETATM    2  C   UNL     1     -42.001 -50.040  12.357  1.00  0.00     0.321 C 
HETATM    3  O   UNL     1     -41.203 -49.686  13.214  1.00  0.00    -0.247 OA
HETATM    4  N   UNL     1     -42.418 -49.179  11.363  1.00  0.00    -0.337 N 
HETATM    5  H   UNL     1     -42.870 -51.545  11.295  1.00  0.00     0.170 HD
HETATM    6  H   UNL     1     -43.366 -49.322  11.046  1.00  0.00     0.164 HD
ENDROOT
BRANCH   1   7
HETATM    7  C   UNL     1     -42.191 -52.391  13.081  1.00  0.00     0.051 A 
HETATM    8  C   UNL     1     -41.088 -53.231  12.927  1.00  0.00     0.035 A 
HETATM    9  C   UNL     1     -40.865 -54.270  13.824  1.00  0.00     0.058 A 
HETATM   10  C   UNL     1     -41.746 -54.432  14.875  1.00  0.00     0.141 A 
HETATM   11  N   UNL     1     -42.826 -53.645  15.073  1.00  0.00    -0.345 N 
HETATM   12  C   UNL     1     -43.020 -52.647  14.173  1.00  0.00     0.119 A 
ATOM     13  HN  UNL     1     -43.462 -53.793  15.856  1.00  0.00     0.167 HD
BRANCH  10  14
HETATM   14  O   UNL     1     -41.451 -55.460  15.748  1.00  0.00    -0.341 OA
HETATM   15  C   UNL     1     -40.098 -55.460  16.180  1.00  0.00     0.211 C 
ENDBRANCH  10  14
ENDBRANCH   1   7
BRANCH   4  16
HETATM   16  C   UNL     1     -41.951 -47.801  11.426  1.00  0.00     0.099 C 
HETATM   17  C   UNL     1     -42.794 -46.896  12.325  1.00  0.00     0.026 C 
HETATM   18  C   UNL     1     -42.524 -45.468  11.837  1.00  0.00     0.003 C 
HETATM   19  C   UNL     1     -41.633 -45.597  10.602  1.00  0.00     0.016 C 
HETATM   20  C   UNL     1     -41.870 -47.021  10.098  1.00  0.00     0.100 C 
BRANCH  20  21
HETATM   21  C   UNL     1     -43.125 -47.109   9.233  1.00  0.00     0.221 C 
HETATM   22  O   UNL     1     -44.165 -47.662   9.576  1.00  0.00    -0.273 OA
HETATM   23  N   UNL     1     -43.045 -46.508   8.013  1.00  0.00    -0.370 N 
HETATM   24  H   UNL     1     -42.300 -45.855   7.803  1.00  0.00     0.159 HD
HETATM   25  H   UNL     1     -43.886 -46.476   7.453  1.00  0.00     0.159 HD
ENDBRANCH  20  21
ENDBRANCH   4  16
TORSDOF 4
ENDMDL
