MODEL 1
REMARK VINA RESULT:      -5.7      0.000      0.000
REMARK  4 active torsions:
REMARK  status: ('A' for Active; 'I' for Inactive)
REMARK    1  A    between atoms: C_2  and  C_3 
REMARK    2  A    between atoms: C_3  and  O_4 
REMARK    3  A    between atoms: C_8  and  N_9 
REMARK       I    between atoms: N_9  and  C_10 
REMARK       I    between atoms: C_10  and  N_12 
REMARK    4  A    between atoms: N_12  and  C_13 
ROOT
HETATM    1  N   UNL     1     -44.199 -50.720  12.936  1.00  0.00    -0.337 N 
HETATM    2  C   UNL     1     -43.293 -49.687  12.921  1.00  0.00     0.321 C 
HETATM    3  O   UNL     1     -42.541 -49.445  13.854  1.00  0.00    -0.247 OA
HETATM    4  N   UNL     1     -43.389 -48.950  11.762  1.00  0.00    -0.308 N 
HETATM    5  H   UNL     1     -44.419 -51.125  12.038  1.00  0.00     0.164 HD
HETATM    6  H   UNL     1     -44.333 -48.855  11.417  1.00  0.00     0.170 HD
ENDROOT
BRANCH   1   7
HETATM    7  C   UNL     1     -44.339 -51.566  14.118  1.00  0.00     0.096 C 
HETATM    8  C   UNL     1     -44.788 -53.027  13.830  1.00  0.00    -0.002 C 
HETATM    9  C   UNL     1     -44.278 -53.617  12.503  1.00  0.00     0.019 C 
HETATM   10  C   UNL     1     -46.327 -52.917  13.796  1.00  0.00     0.013 C 
HETATM   11  C   UNL     1     -46.718 -51.689  14.617  1.00  0.00     0.003 C 
HETATM   12  C   UNL     1     -45.430 -50.990  15.024  1.00  0.00     0.026 C 
BRANCH   8  13
HETATM   13  C   UNL     1     -44.310 -53.988  14.947  1.00  0.00     0.175 C 
BRANCH  13  14
HETATM   14  O   UNL     1     -44.462 -55.360  14.617  1.00  0.00    -0.400 OA
HETATM   15  H   UNL     1     -45.415 -55.558  14.637  1.00  0.00     0.209 HD
ENDBRANCH  13  14
ENDBRANCH   8  13
ENDBRANCH   1   7
BRANCH   4  16
HETATM   16  C   UNL     1     -42.491 -47.900  11.482  1.00  0.00     0.051 A 
HETATM   17  C   UNL     1     -42.828 -46.598  11.843  1.00  0.00     0.032 A 
HETATM   18  C   UNL     1     -41.917 -45.569  11.610  1.00  0.00     0.019 A 
HETATM   19  C   UNL     1     -40.722 -45.873  10.975  1.00  0.00     0.088 A 
HETATM   20  N   UNL     1     -40.382 -47.114  10.571  1.00  0.00    -0.373 N 
HETATM   21  C   UNL     1     -41.265 -48.103  10.849  1.00  0.00     0.117 A 
ATOM     22  HN  UNL     1     -39.506 -47.298  10.082  1.00  0.00     0.164 HD
ENDBRANCH   4  16
TORSDOF 4
ENDMDL
MODEL 2
REMARK VINA RESULT:      -5.5      3.191      7.267
REMARK  4 active torsions:
REMARK  status: ('A' for Active; 'I' for Inactive)
REMARK    1  A    between atoms: C_2  and  C_3 
REMARK    2  A    between atoms: C_3  and  O_4 
REMARK    3  A    between atoms: C_8  and  N_9 
REMARK       I    between atoms: N_9  and  C_10 
REMARK       I    between atoms: C_10  and  N_12 
REMARK    4  A    between atoms: N_12  and  C_13 
ROOT
HETATM    1  N   UNL     1     -40.870 -50.682  13.028  1.00  0.00    -0.337 N 
HETATM    2  C   UNL     1     -41.770 -51.685  12.763  1.00  0.00     0.321 C 
HETATM    3  O   UNL     1     -41.796 -52.296  11.705  1.00  0.00    -0.247 OA
HETATM    4  N   UNL     1     -42.649 -51.862  13.807  1.00  0.00    -0.308 N 
HETATM    5  H   UNL     1     -40.609 -50.569  13.997  1.00  0.00     0.164 HD
HETATM    6  H   UNL     1     -42.907 -51.003  14.272  1.00  0.00     0.170 HD
ENDROOT
BRANCH   1   7
HETATM    7  C   UNL     1     -39.912 -50.257  12.011  1.00  0.00     0.096 C 
HETATM    8  C   UNL     1     -38.471 -49.996  12.535  1.00  0.00    -0.002 C 
HETATM    9  C   UNL     1     -38.025 -50.899  13.699  1.00  0.00     0.019 C 
HETATM   10  C   UNL     1     -38.534 -48.528  13.006  1.00  0.00     0.013 C 
HETATM   11  C   UNL     1     -39.665 -47.847  12.238  1.00  0.00     0.003 C 
HETATM   12  C   UNL     1     -40.364 -48.920  11.418  1.00  0.00     0.026 C 
BRANCH   8  13
HETATM   13  C   UNL     1     -37.424 -50.188  11.409  1.00  0.00     0.175 C 
BRANCH  13  14
HETATM   14  O   UNL     1     -37.084 -51.546  11.177  1.00  0.00    -0.400 OA
HETATM   15  H   UNL     1     -36.770 -51.614  10.258  1.00  0.00     0.209 HD
ENDBRANCH  13  14
ENDBRANCH   8  13
ENDBRANCH   1   7
BRANCH   4  16
HETATM   16  C   UNL     1     -43.599 -52.904  13.801  1.00  0.00     0.051 A 
HETATM   17  C   UNL     1     -43.254 -54.145  14.329  1.00  0.00     0.032 A 
HETATM   18  C   UNL     1     -44.211 -55.158  14.366  1.00  0.00     0.019 A 
HETATM   19  C   UNL     1     -45.463 -54.908  13.826  1.00  0.00     0.088 A 
HETATM   20  N   UNL     1     -45.817 -53.733  13.266  1.00  0.00    -0.373 N 
HETATM   21  C   UNL     1     -44.884 -52.751  13.282  1.00  0.00     0.117 A 
ATOM     22  HN  UNL     1     -46.739 -53.592  12.853  1.00  0.00     0.164 HD
ENDBRANCH   4  16
TORSDOF 4
ENDMDL
MODEL 3
REMARK VINA RESULT:      -5.5      2.466      2.728
REMARK  4 active torsions:
REMARK  status: ('A' for Active; 'I' for Inactive)
REMARK    1  A    between atoms: C_2  and  C_3 
REMARK    2  A    between atoms: C_3  and  O_4 
REMARK    3  A    between atoms: C_8  and  N_9 
REMARK       I    between atoms: N_9  and  C_10 
REMARK       I    between atoms: C_10  and  N_12 
REMARK    4  A    between atoms: N_12  and  C_13 
ROOT
HETATM    1  N   UNL     1     -43.782 -50.899  14.169  1.00  0.00    -0.337 N 
HETATM    2  C   UNL     1     -42.478 -51.029  13.755  1.00  0.00     0.321 C 
HETATM    3  O   UNL     1     -41.850 -52.074  13.844  1.00  0.00    -0.247 OA
HETATM    4  N   UNL     1     -41.975 -49.834  13.292  1.00  0.00    -0.308 N 
HETATM    5  H   UNL     1     -44.337 -50.222  13.667  1.00  0.00     0.164 HD
HETATM    6  H   UNL     1     -42.312 -49.027  13.798  1.00  0.00     0.170 HD
ENDROOT
BRANCH   1   7
HETATM    7  C   UNL     1     -44.477 -52.021  14.793  1.00  0.00     0.096 C 
HETATM    8  C   UNL     1     -45.829 -52.408  14.129  1.00  0.00    -0.002 C 
HETATM    9  C   UNL     1     -45.891 -52.201  12.605  1.00  0.00     0.019 C 
HETATM   10  C   UNL     1     -46.838 -51.470  14.826  1.00  0.00     0.013 C 
HETATM   11  C   UNL     1     -46.242 -51.075  16.176  1.00  0.00     0.003 C 
HETATM   12  C   UNL     1     -44.836 -51.653  16.235  1.00  0.00     0.026 C 
BRANCH   8  13
HETATM   13  C   UNL     1     -46.169 -53.898  14.382  1.00  0.00     0.175 C 
BRANCH  13  14
HETATM   14  O   UNL     1     -45.833 -54.748  13.296  1.00  0.00    -0.400 OA
HETATM   15  H   UNL     1     -45.075 -54.345  12.837  1.00  0.00     0.209 HD
ENDBRANCH  13  14
ENDBRANCH   8  13
ENDBRANCH   1   7
BRANCH   4  16
HETATM   16  C   UNL     1     -40.688 -49.748  12.723  1.00  0.00     0.051 A 
HETATM   17  C   UNL     1     -39.607 -49.404  13.529  1.00  0.00     0.032 A 
HETATM   18  C   UNL     1     -38.328 -49.369  12.974  1.00  0.00     0.019 A 
HETATM   19  C   UNL     1     -38.186 -49.628  11.620  1.00  0.00     0.088 A 
HETATM   20  N   UNL     1     -39.216 -49.920  10.800  1.00  0.00    -0.373 N 
HETATM   21  C   UNL     1     -40.442 -49.992  11.372  1.00  0.00     0.117 A 
ATOM     22  HN  UNL     1     -39.079 -50.080   9.802  1.00  0.00     0.164 HD
ENDBRANCH   4  16
TORSDOF 4
ENDMDL
MODEL 4
REMARK VINA RESULT:      -5.3      1.515      1.817
REMARK  4 active torsions:
REMARK  status: ('A' for Active; 'I' for Inactive)
REMARK    1  A    between atoms: C_2  and  C_3 
REMARK    2  A    between atoms: C_3  and  O_4 
REMARK    3  A    between atoms: C_8  and  N_9 
REMARK       I    between atoms: N_9  and  C_10 
REMARK       I    between atoms: C_10  and  N_12 
REMARK    4  A    between atoms: N_12  and  C_13 
ROOT
HETATM    1  N   UNL     1     -42.883 -51.162  12.466  1.00  0.00    -0.337 N 
HETATM    2  C   UNL     1     -42.598 -49.819  12.408  1.00  0.00     0.321 C 
HETATM    3  O   UNL     1     -42.919 -49.029  13.285  1.00  0.00    -0.247 OA
HETATM    4  N   UNL     1     -41.968 -49.488  11.230  1.00  0.00    -0.308 N 
HETATM    5  H   UNL     1     -42.228 -51.771  11.998  1.00  0.00     0.164 HD
HETATM    6  H   UNL     1     -42.295 -50.014  10.432  1.00  0.00     0.170 HD
ENDROOT
BRANCH   1   7
HETATM    7  C   UNL     1     -43.644 -51.710  13.585  1.00  0.00     0.096 C 
HETATM    8  C   UNL     1     -43.514 -53.248  13.776  1.00  0.00    -0.002 C 
HETATM    9  C   UNL     1     -42.145 -53.840  13.399  1.00  0.00     0.019 C 
HETATM   10  C   UNL     1     -44.603 -53.807  12.836  1.00  0.00     0.013 C 
HETATM   11  C   UNL     1     -45.653 -52.714  12.646  1.00  0.00     0.003 C 
HETATM   12  C   UNL     1     -45.136 -51.467  13.348  1.00  0.00     0.026 C 
BRANCH   8  13
HETATM   13  C   UNL     1     -43.772 -53.651  15.250  1.00  0.00     0.175 C 
BRANCH  13  14
HETATM   14  O   UNL     1     -43.328 -52.684  16.188  1.00  0.00    -0.400 OA
HETATM   15  H   UNL     1     -42.361 -52.613  16.095  1.00  0.00     0.209 HD
ENDBRANCH  13  14
ENDBRANCH   8  13
ENDBRANCH   1   7
BRANCH   4  16
HETATM   16  C   UNL     1     -41.491 -48.183  10.992  1.00  0.00     0.051 A 
HETATM   17  C   UNL     1     -40.308 -47.768  11.597  1.00  0.00     0.032 A 
HETATM   18  C   UNL     1     -39.813 -46.495  11.321  1.00  0.00     0.019 A 
HETATM   19  C   UNL     1     -40.547 -45.663  10.489  1.00  0.00     0.088 A 
HETATM   20  N   UNL     1     -41.718 -46.016   9.921  1.00  0.00    -0.373 N 
HETATM   21  C   UNL     1     -42.156 -47.274  10.170  1.00  0.00     0.117 A 
ATOM     22  HN  UNL     1     -42.247 -45.370   9.335  1.00  0.00     0.164 HD
ENDBRANCH   4  16
TORSDOF 4
ENDMDL
MODEL 5
REMARK VINA RESULT:      -5.3      1.963      7.060
REMARK  4 active torsions:
REMARK  status: ('A' for Active; 'I' for Inactive)
REMARK    1  A    between atoms: C_2  and  C_3 
REMARK    2  A    between atoms: C_3  and  O_4 
REMARK    3  A    between atoms: C_8  and  N_9 
REMARK       I    between atoms: N_9  and  C_10 
REMARK       I    between atoms: C_10  and  N_12 
REMARK    4  A    between atoms: N_12  and  C_13 
ROOT
HETATM    1  N   UNL     1     -43.085 -49.833  12.252  1.00  0.00    -0.337 N 
HETATM    2  C   UNL     1     -43.730 -50.691  13.110  1.00  0.00     0.321 C 
HETATM    3  O   UNL     1     -43.923 -50.436  14.290  1.00  0.00    -0.247 OA
HETATM    4  N   UNL     1     -44.068 -51.869  12.483  1.00  0.00    -0.308 N 
HETATM    5  H   UNL     1     -43.366 -49.885  11.284  1.00  0.00     0.164 HD
HETATM    6  H   UNL     1     -43.386 -52.181  11.807  1.00  0.00     0.170 HD
ENDROOT
BRANCH   1   7
HETATM    7  C   UNL     1     -42.545 -48.565  12.738  1.00  0.00     0.096 C 
HETATM    8  C   UNL     1     -42.533 -47.414  11.694  1.00  0.00    -0.002 C 
HETATM    9  C   UNL     1     -43.697 -47.432  10.687  1.00  0.00     0.019 C 
HETATM   10  C   UNL     1     -41.197 -47.632  10.952  1.00  0.00     0.013 C 
HETATM   11  C   UNL     1     -40.269 -48.399  11.893  1.00  0.00     0.003 C 
HETATM   12  C   UNL     1     -41.078 -48.759  13.129  1.00  0.00     0.026 C 
BRANCH   8  13
HETATM   13  C   UNL     1     -42.579 -46.030  12.388  1.00  0.00     0.175 C 
BRANCH  13  14
HETATM   14  O   UNL     1     -43.555 -45.943  13.414  1.00  0.00    -0.400 OA
HETATM   15  H   UNL     1     -43.159 -46.313  14.223  1.00  0.00     0.209 HD
ENDBRANCH  13  14
ENDBRANCH   8  13
ENDBRANCH   1   7
BRANCH   4  16
HETATM   16  C   UNL     1     -44.826 -52.860  13.140  1.00  0.00     0.051 A 
HETATM   17  C   UNL     1     -44.228 -54.076  13.460  1.00  0.00     0.032 A 
HETATM   18  C   UNL     1     -44.965 -55.035  14.152  1.00  0.00     0.019 A 
HETATM   19  C   UNL     1     -46.291 -54.763  14.454  1.00  0.00     0.088 A 
HETATM   20  N   UNL     1     -46.915 -53.615  14.120  1.00  0.00    -0.373 N 
HETATM   21  C   UNL     1     -46.164 -52.681  13.486  1.00  0.00     0.117 A 
ATOM     22  HN  UNL     1     -47.900 -53.457  14.334  1.00  0.00     0.164 HD
ENDBRANCH   4  16
TORSDOF 4
ENDMDL
MODEL 6
REMARK VINA RESULT:      -5.1      3.733      7.518
REMARK  4 active torsions:
REMARK  status: ('A' for Active; 'I' for Inactive)
REMARK    1  A    between atoms: C_2  and  C_3 
REMARK    2  A    between atoms: C_3  and  O_4 
REMARK    3  A    between atoms: C_8  and  N_9 
REMARK       I    between atoms: N_9  and  C_10 
REMARK       I    between atoms: C_10  and  N_12 
REMARK    4  A    between atoms: N_12  and  C_13 
ROOT
HETATM    1  N   UNL     1     -41.379 -48.213  11.804  1.00  0.00    -0.337 N 
HETATM    2  C   UNL     1     -40.860 -49.485  11.761  1.00  0.00     0.321 C 
HETATM    3  O   UNL     1     -40.068 -49.855  10.907  1.00  0.00    -0.247 OA
HETATM    4  N   UNL     1     -41.387 -50.277  12.756  1.00  0.00    -0.308 N 
HETATM    5  H   UNL     1     -41.617 -47.865  12.721  1.00  0.00     0.164 HD
HETATM    6  H   UNL     1     -42.359 -50.088  12.955  1.00  0.00     0.170 HD
ENDROOT
BRANCH   1   7
HETATM    7  C   UNL     1     -41.033 -47.237  10.774  1.00  0.00     0.096 C 
HETATM    8  C   UNL     1     -40.586 -45.847  11.310  1.00  0.00    -0.002 C 
HETATM    9  C   UNL     1     -39.821 -45.877  12.645  1.00  0.00     0.019 C 
HETATM   10  C   UNL     1     -41.923 -45.098  11.490  1.00  0.00     0.013 C 
HETATM   11  C   UNL     1     -42.942 -45.743  10.552  1.00  0.00     0.003 C 
HETATM   12  C   UNL     1     -42.269 -46.950   9.917  1.00  0.00     0.026 C 
BRANCH   8  13
HETATM   13  C   UNL     1     -39.663 -45.128  10.294  1.00  0.00     0.175 C 
BRANCH  13  14
HETATM   14  O   UNL     1     -40.043 -43.785  10.037  1.00  0.00    -0.400 OA
HETATM   15  H   UNL     1     -40.917 -43.648  10.443  1.00  0.00     0.209 HD
ENDBRANCH  13  14
ENDBRANCH   8  13
ENDBRANCH   1   7
BRANCH   4  16
HETATM   16  C   UNL     1     -40.929 -51.593  12.969  1.00  0.00     0.051 A 
HETATM   17  C   UNL     1     -39.995 -51.836  13.973  1.00  0.00     0.032 A 
HETATM   18  C   UNL     1     -39.581 -53.145  14.214  1.00  0.00     0.019 A 
HETATM   19  C   UNL     1     -40.077 -54.157  13.406  1.00  0.00     0.088 A 
HETATM   20  N   UNL     1     -40.947 -53.952  12.397  1.00  0.00    -0.373 N 
HETATM   21  C   UNL     1     -41.367 -52.678  12.211  1.00  0.00     0.117 A 
ATOM     22  HN  UNL     1     -41.271 -54.717  11.804  1.00  0.00     0.164 HD
ENDBRANCH   4  16
TORSDOF 4
ENDMDL
MODEL 7
REMARK VINA RESULT:      -5.0      3.335      7.035
REMARK  4 active torsions:
REMARK  status: ('A' for Active; 'I' for Inactive)
REMARK    1  A    between atoms: C_2  and  C_3 
REMARK    2  A    between atoms: C_3  and  O_4 
REMARK    3  A    between atoms: C_8  and  N_9 
REMARK       I    between atoms: N_9  and  C_10 
REMARK       I    between atoms: C_10  and  N_12 
REMARK    4  A    between atoms: N_12  and  C_13 
ROOT
HETATM    1  N   UNL     1     -40.681 -50.700  12.957  1.00  0.00    -0.337 N 
HETATM    2  C   UNL     1     -41.809 -51.217  13.548  1.00  0.00     0.321 C 
HETATM    3  O   UNL     1     -41.900 -51.418  14.750  1.00  0.00    -0.247 OA
HETATM    4  N   UNL     1     -42.772 -51.521  12.613  1.00  0.00    -0.308 N 
HETATM    5  H   UNL     1     -40.833 -50.155  12.121  1.00  0.00     0.164 HD
HETATM    6  H   UNL     1     -42.399 -51.873  11.743  1.00  0.00     0.170 HD
ENDROOT
BRANCH   1   7
HETATM    7  C   UNL     1     -39.494 -50.405  13.756  1.00  0.00     0.096 C 
HETATM    8  C   UNL     1     -38.832 -49.029  13.464  1.00  0.00    -0.002 C 
HETATM    9  C   UNL     1     -39.807 -47.905  13.071  1.00  0.00     0.019 C 
HETATM   10  C   UNL     1     -37.889 -49.341  12.283  1.00  0.00     0.013 C 
HETATM   11  C   UNL     1     -37.565 -50.833  12.334  1.00  0.00     0.003 C 
HETATM   12  C   UNL     1     -38.409 -51.439  13.446  1.00  0.00     0.026 C 
BRANCH   8  13
HETATM   13  C   UNL     1     -38.048 -48.514  14.697  1.00  0.00     0.175 C 
BRANCH  13  14
HETATM   14  O   UNL     1     -37.018 -47.594  14.370  1.00  0.00    -0.400 OA
HETATM   15  H   UNL     1     -37.355 -47.024  13.657  1.00  0.00     0.209 HD
ENDBRANCH  13  14
ENDBRANCH   8  13
ENDBRANCH   1   7
BRANCH   4  16
HETATM   16  C   UNL     1     -44.052 -51.972  12.996  1.00  0.00     0.051 A 
HETATM   17  C   UNL     1     -44.977 -51.058  13.496  1.00  0.00     0.032 A 
HETATM   18  C   UNL     1     -46.257 -51.498  13.827  1.00  0.00     0.019 A 
HETATM   19  C   UNL     1     -46.550 -52.846  13.696  1.00  0.00     0.088 A 
HETATM   20  N   UNL     1     -45.666 -53.766  13.258  1.00  0.00    -0.373 N 
HETATM   21  C   UNL     1     -44.442 -53.307  12.901  1.00  0.00     0.117 A 
ATOM     22  HN  UNL     1     -45.907 -54.756  13.198  1.00  0.00     0.164 HD
ENDBRANCH   4  16
TORSDOF 4
ENDMDL
MODEL 8
REMARK VINA RESULT:      -4.8      2.468      7.107
REMARK  4 active torsions:
REMARK  status: ('A' for Active; 'I' for Inactive)
REMARK    1  A    between atoms: C_2  and  C_3 
REMARK    2  A    between atoms: C_3  and  O_4 
REMARK    3  A    between atoms: C_8  and  N_9 
REMARK       I    between atoms: N_9  and  C_10 
REMARK       I    between atoms: C_10  and  N_12 
REMARK    4  A    between atoms: N_12  and  C_13 
ROOT
HETATM    1  N   UNL     1     -42.100 -47.501  13.195  1.00  0.00    -0.337 N 
HETATM    2  C   UNL     1     -42.805 -48.557  12.670  1.00  0.00     0.321 C 
HETATM    3  O   UNL     1     -43.319 -48.533  11.562  1.00  0.00    -0.247 OA
HETATM    4  N   UNL     1     -42.895 -49.597  13.568  1.00  0.00    -0.308 N 
HETATM    5  H   UNL     1     -41.362 -47.741  13.840  1.00  0.00     0.164 HD
HETATM    6  H   UNL     1     -42.988 -49.299  14.528  1.00  0.00     0.170 HD
ENDROOT
BRANCH   1   7
HETATM    7  C   UNL     1     -41.972 -46.251  12.449  1.00  0.00     0.096 C 
HETATM    8  C   UNL     1     -40.535 -45.926  11.955  1.00  0.00    -0.002 C 
HETATM    9  C   UNL     1     -39.680 -47.149  11.579  1.00  0.00     0.019 C 
HETATM   10  C   UNL     1     -39.908 -45.201  13.165  1.00  0.00     0.013 C 
HETATM   11  C   UNL     1     -41.050 -44.605  13.986  1.00  0.00     0.003 C 
HETATM   12  C   UNL     1     -42.352 -45.081  13.359  1.00  0.00     0.026 C 
BRANCH   8  13
HETATM   13  C   UNL     1     -40.568 -45.016  10.701  1.00  0.00     0.175 C 
BRANCH  13  14
HETATM   14  O   UNL     1     -41.398 -45.513   9.663  1.00  0.00    -0.400 OA
HETATM   15  H   UNL     1     -41.625 -46.432   9.889  1.00  0.00     0.209 HD
ENDBRANCH  13  14
ENDBRANCH   8  13
ENDBRANCH   1   7
BRANCH   4  16
HETATM   16  C   UNL     1     -43.488 -50.826  13.213  1.00  0.00     0.051 A 
HETATM   17  C   UNL     1     -44.823 -51.058  13.534  1.00  0.00     0.032 A 
HETATM   18  C   UNL     1     -45.420 -52.254  13.138  1.00  0.00     0.019 A 
HETATM   19  C   UNL     1     -44.645 -53.196  12.480  1.00  0.00     0.088 A 
HETATM   20  N   UNL     1     -43.339 -53.024  12.193  1.00  0.00    -0.373 N 
HETATM   21  C   UNL     1     -42.793 -51.836  12.549  1.00  0.00     0.117 A 
ATOM     22  HN  UNL     1     -42.790 -53.750  11.731  1.00  0.00     0.164 HD
ENDBRANCH   4  16
TORSDOF 4
ENDMDL
MODEL 9
REMARK VINA RESULT:      -4.7     15.144     15.852
REMARK  4 active torsions:
REMARK  status: ('A' for Active; 'I' for Inactive)
REMARK    1  A    between atoms: C_2  and  C_3 
REMARK    2  A    between atoms: C_3  and  O_4 
REMARK    3  A    between atoms: C_8  and  N_9 
REMARK       I    between atoms: N_9  and  C_10 
REMARK       I    between atoms: C_10  and  N_12 
REMARK    4  A    between atoms: N_12  and  C_13 
ROOT
HETATM    1  N   UNL     1     -51.391 -51.810  -1.262  1.00  0.00    -0.337 N 
HETATM    2  C   UNL     1     -50.959 -50.904  -0.323  1.00  0.00     0.321 C 
HETATM    3  O   UNL     1     -50.196 -51.197   0.585  1.00  0.00    -0.247 OA
HETATM    4  N   UNL     1     -51.535 -49.669  -0.513  1.00  0.00    -0.308 N 
HETATM    5  H   UNL     1     -51.603 -51.431  -2.174  1.00  0.00     0.164 HD
HETATM    6  H   UNL     1     -52.491 -49.710  -0.834  1.00  0.00     0.170 HD
ENDROOT
BRANCH   1   7
HETATM    7  C   UNL     1     -50.984 -53.210  -1.184  1.00  0.00     0.096 C 
HETATM    8  C   UNL     1     -50.509 -53.832  -2.528  1.00  0.00    -0.002 C 
HETATM    9  C   UNL     1     -49.784 -52.861  -3.477  1.00  0.00     0.019 C 
HETATM   10  C   UNL     1     -51.826 -54.310  -3.174  1.00  0.00     0.013 C 
HETATM   11  C   UNL     1     -52.836 -54.531  -2.050  1.00  0.00     0.003 C 
HETATM   12  C   UNL     1     -52.184 -54.060  -0.759  1.00  0.00     0.026 C 
BRANCH   8  13
HETATM   13  C   UNL     1     -49.534 -55.011  -2.283  1.00  0.00     0.175 C 
BRANCH  13  14
HETATM   14  O   UNL     1     -48.321 -54.623  -1.656  1.00  0.00    -0.400 OA
HETATM   15  H   UNL     1     -48.424 -54.784  -0.701  1.00  0.00     0.209 HD
ENDBRANCH  13  14
ENDBRANCH   8  13
ENDBRANCH   1   7
BRANCH   4  16
HETATM   16  C   UNL     1     -51.164 -48.556   0.270  1.00  0.00     0.051 A 
HETATM   17  C   UNL     1     -50.019 -47.838  -0.063  1.00  0.00     0.032 A 
HETATM   18  C   UNL     1     -49.682 -46.710   0.683  1.00  0.00     0.019 A 
HETATM   19  C   UNL     1     -50.476 -46.371   1.768  1.00  0.00     0.088 A 
HETATM   20  N   UNL     1     -51.567 -47.069   2.146  1.00  0.00    -0.373 N 
HETATM   21  C   UNL     1     -51.898 -48.136   1.378  1.00  0.00     0.117 A 
ATOM     22  HN  UNL     1     -52.114 -46.807   2.966  1.00  0.00     0.164 HD
ENDBRANCH   4  16
TORSDOF 4
ENDMDL
