MODEL 1
REMARK VINA RESULT:      -6.3      0.000      0.000
REMARK  4 active torsions:
REMARK  status: ('A' for Active; 'I' for Inactive)
REMARK    1  A    between atoms: C_2  and  C_4 
REMARK    2  A    between atoms: C_4  and  N_6 
REMARK       I    between atoms: N_6  and  C_7 
REMARK       I    between atoms: C_7  and  N_9 
REMARK    3  A    between atoms: N_9  and  C_10 
REMARK    4  A    between atoms: C_15  and  C_17 
ROOT
HETATM    1  N   UNL     1     -44.195 -53.268  12.628  1.00  0.00    -0.338 N 
HETATM    2  C   UNL     1     -43.130 -52.402  12.832  1.00  0.00     0.322 C 
HETATM    3  O   UNL     1     -43.019 -51.755  13.866  1.00  0.00    -0.247 OA
HETATM    4  N   UNL     1     -42.298 -52.337  11.743  1.00  0.00    -0.288 N 
HETATM    5  H   UNL     1     -44.005 -54.079  12.056  1.00  0.00     0.164 HD
HETATM    6  H   UNL     1     -42.623 -52.656  10.847  1.00  0.00     0.172 HD
ENDROOT
BRANCH   4   7
HETATM    7  C   UNL     1     -41.208 -51.500  11.769  1.00  0.00     0.169 A 
HETATM    8  N   UNL     1     -40.883 -50.527  10.949  1.00  0.00    -0.279 N 
HETATM    9  N   UNL     1     -39.653 -49.984  11.253  1.00  0.00    -0.296 N 
ATOM     10  HN  UNL     1     -41.472 -50.209  10.178  1.00  0.00     0.189 HD
HETATM   11  C   UNL     1     -39.107 -50.565  12.298  1.00  0.00     0.074 A 
ATOM     12  HN  UNL     1     -39.218 -49.223  10.731  1.00  0.00     0.187 HD
HETATM   13  S   UNL     1     -40.091 -51.765  13.036  1.00  0.00    -0.037 SA
BRANCH  11  14
HETATM   14  C   UNL     1     -37.695 -50.224  12.778  1.00  0.00     0.044 A 
HETATM   15  C   UNL     1     -37.345 -50.400  14.242  1.00  0.00     0.012 A 
HETATM   16  C   UNL     1     -37.549 -49.028  13.703  1.00  0.00     0.012 A 
ENDBRANCH  11  14
ENDBRANCH   4   7
BRANCH   1  17
HETATM   17  C   UNL     1     -45.199 -53.418  13.686  1.00  0.00     0.085 C 
HETATM   18  C   UNL     1     -45.523 -54.904  13.886  1.00  0.00     0.032 C 
BRANCH  17  19
HETATM   19  C   UNL     1     -46.470 -52.575  13.407  1.00  0.00    -0.000 C 
HETATM   20  C   UNL     1     -46.572 -51.380  14.367  1.00  0.00     0.011 C 
HETATM   21  C   UNL     1     -46.495 -52.044  11.969  1.00  0.00     0.011 C 
ENDBRANCH  17  19
ENDBRANCH   1  17
TORSDOF 4
ENDMDL
MODEL 2
REMARK VINA RESULT:      -6.1      3.785      5.903
REMARK  4 active torsions:
REMARK  status: ('A' for Active; 'I' for Inactive)
REMARK    1  A    between atoms: C_2  and  C_4 
REMARK    2  A    between atoms: C_4  and  N_6 
REMARK       I    between atoms: N_6  and  C_7 
REMARK       I    between atoms: C_7  and  N_9 
REMARK    3  A    between atoms: N_9  and  C_10 
REMARK    4  A    between atoms: C_15  and  C_17 
ROOT
HETATM    1  N   UNL     1     -41.152 -47.799  10.378  1.00  0.00    -0.338 N 
HETATM    2  C   UNL     1     -41.426 -48.966  11.074  1.00  0.00     0.322 C 
HETATM    3  O   UNL     1     -42.379 -49.049  11.839  1.00  0.00    -0.247 OA
HETATM    4  N   UNL     1     -40.491 -49.943  10.839  1.00  0.00    -0.288 N 
HETATM    5  H   UNL     1     -40.721 -47.912   9.471  1.00  0.00     0.164 HD
HETATM    6  H   UNL     1     -39.597 -49.694  10.450  1.00  0.00     0.172 HD
ENDROOT
BRANCH   4   7
HETATM    7  C   UNL     1     -40.597 -51.155  11.477  1.00  0.00     0.169 A 
HETATM    8  N   UNL     1     -41.278 -52.224  11.133  1.00  0.00    -0.279 N 
HETATM    9  N   UNL     1     -41.212 -53.212  12.093  1.00  0.00    -0.296 N 
ATOM     10  HN  UNL     1     -41.796 -52.313  10.258  1.00  0.00     0.189 HD
HETATM   11  C   UNL     1     -40.472 -52.848  13.117  1.00  0.00     0.074 A 
ATOM     12  HN  UNL     1     -41.679 -54.115  12.018  1.00  0.00     0.187 HD
HETATM   13  S   UNL     1     -39.737 -51.303  12.948  1.00  0.00    -0.037 SA
BRANCH  11  14
HETATM   14  C   UNL     1     -40.324 -53.717  14.367  1.00  0.00     0.044 A 
HETATM   15  C   UNL     1     -39.125 -53.516  15.274  1.00  0.00     0.012 A 
HETATM   16  C   UNL     1     -39.174 -54.710  14.386  1.00  0.00     0.012 A 
ENDBRANCH  11  14
ENDBRANCH   4   7
BRANCH   1  17
HETATM   17  C   UNL     1     -42.039 -46.644  10.555  1.00  0.00     0.085 C 
HETATM   18  C   UNL     1     -42.859 -46.421   9.277  1.00  0.00     0.032 C 
BRANCH  17  19
HETATM   19  C   UNL     1     -41.262 -45.372  10.979  1.00  0.00    -0.000 C 
HETATM   20  C   UNL     1     -41.174 -45.254  12.509  1.00  0.00     0.011 C 
HETATM   21  C   UNL     1     -39.837 -45.360  10.411  1.00  0.00     0.011 C 
ENDBRANCH  17  19
ENDBRANCH   1  17
TORSDOF 4
ENDMDL
MODEL 3
REMARK VINA RESULT:      -6.0      1.751      6.966
REMARK  4 active torsions:
REMARK  status: ('A' for Active; 'I' for Inactive)
REMARK    1  A    between atoms: C_2  and  C_4 
REMARK    2  A    between atoms: C_4  and  N_6 
REMARK       I    between atoms: N_6  and  C_7 
REMARK       I    between atoms: C_7  and  N_9 
REMARK    3  A    between atoms: N_9  and  C_10 
REMARK    4  A    between atoms: C_15  and  C_17 
ROOT
HETATM    1  N   UNL     1     -39.282 -50.782  12.690  1.00  0.00    -0.338 N 
HETATM    2  C   UNL     1     -40.633 -50.919  12.412  1.00  0.00     0.322 C 
HETATM    3  O   UNL     1     -41.228 -50.113  11.707  1.00  0.00    -0.247 OA
HETATM    4  N   UNL     1     -41.189 -51.998  13.052  1.00  0.00    -0.288 N 
HETATM    5  H   UNL     1     -38.766 -51.640  12.826  1.00  0.00     0.164 HD
HETATM    6  H   UNL     1     -40.711 -52.413  13.834  1.00  0.00     0.172 HD
ENDROOT
BRANCH   4   7
HETATM    7  C   UNL     1     -42.530 -52.259  12.909  1.00  0.00     0.169 A 
HETATM    8  N   UNL     1     -43.161 -52.883  11.940  1.00  0.00    -0.279 N 
HETATM    9  N   UNL     1     -44.529 -52.852  12.110  1.00  0.00    -0.296 N 
ATOM     10  HN  UNL     1     -42.694 -53.337  11.155  1.00  0.00     0.189 HD
HETATM   11  C   UNL     1     -44.871 -52.215  13.207  1.00  0.00     0.074 A 
ATOM     12  HN  UNL     1     -45.195 -53.274  11.462  1.00  0.00     0.187 HD
HETATM   13  S   UNL     1     -43.544 -51.673  14.155  1.00  0.00    -0.037 SA
BRANCH  11  14
HETATM   14  C   UNL     1     -46.331 -51.944  13.573  1.00  0.00     0.044 A 
HETATM   15  C   UNL     1     -46.660 -51.358  14.932  1.00  0.00     0.012 A 
HETATM   16  C   UNL     1     -46.937 -52.798  14.675  1.00  0.00     0.012 A 
ENDBRANCH  11  14
ENDBRANCH   4   7
BRANCH   1  17
HETATM   17  C   UNL     1     -38.550 -49.651  12.110  1.00  0.00     0.085 C 
HETATM   18  C   UNL     1     -37.416 -50.170  11.217  1.00  0.00     0.032 C 
BRANCH  17  19
HETATM   19  C   UNL     1     -38.036 -48.671  13.196  1.00  0.00    -0.000 C 
HETATM   20  C   UNL     1     -39.064 -47.567  13.487  1.00  0.00     0.011 C 
HETATM   21  C   UNL     1     -37.720 -49.396  14.511  1.00  0.00     0.011 C 
ENDBRANCH  17  19
ENDBRANCH   1  17
TORSDOF 4
ENDMDL
MODEL 4
REMARK VINA RESULT:      -5.9      3.830      6.725
REMARK  4 active torsions:
REMARK  status: ('A' for Active; 'I' for Inactive)
REMARK    1  A    between atoms: C_2  and  C_4 
REMARK    2  A    between atoms: C_4  and  N_6 
REMARK       I    between atoms: N_6  and  C_7 
REMARK       I    between atoms: C_7  and  N_9 
REMARK    3  A    between atoms: N_9  and  C_10 
REMARK    4  A    between atoms: C_15  and  C_17 
ROOT
HETATM    1  N   UNL     1     -39.658 -46.919  11.343  1.00  0.00    -0.338 N 
HETATM    2  C   UNL     1     -40.272 -48.156  11.220  1.00  0.00     0.322 C 
HETATM    3  O   UNL     1     -41.349 -48.284  10.650  1.00  0.00    -0.247 OA
HETATM    4  N   UNL     1     -39.565 -49.151  11.846  1.00  0.00    -0.288 N 
HETATM    5  H   UNL     1     -38.648 -46.923  11.356  1.00  0.00     0.164 HD
HETATM    6  H   UNL     1     -38.871 -48.913  12.534  1.00  0.00     0.172 HD
ENDROOT
BRANCH   4   7
HETATM    7  C   UNL     1     -40.052 -50.436  11.846  1.00  0.00     0.169 A 
HETATM    8  N   UNL     1     -40.767 -51.059  10.937  1.00  0.00    -0.279 N 
HETATM    9  N   UNL     1     -41.150 -52.317  11.353  1.00  0.00    -0.296 N 
ATOM     10  HN  UNL     1     -41.010 -50.659  10.030  1.00  0.00     0.189 HD
HETATM   11  C   UNL     1     -40.698 -52.593  12.555  1.00  0.00     0.074 A 
ATOM     12  HN  UNL     1     -41.716 -52.956  10.794  1.00  0.00     0.187 HD
HETATM   13  S   UNL     1     -39.703 -51.368  13.237  1.00  0.00    -0.037 SA
BRANCH  11  14
HETATM   14  C   UNL     1     -41.070 -53.880  13.293  1.00  0.00     0.044 A 
HETATM   15  C   UNL     1     -42.532 -54.233  13.481  1.00  0.00     0.012 A 
HETATM   16  C   UNL     1     -41.750 -53.732  14.644  1.00  0.00     0.012 A 
ENDBRANCH  11  14
ENDBRANCH   4   7
BRANCH   1  17
HETATM   17  C   UNL     1     -40.312 -45.743  10.759  1.00  0.00     0.085 C 
HETATM   18  C   UNL     1     -39.337 -45.019   9.822  1.00  0.00     0.032 C 
BRANCH  17  19
HETATM   19  C   UNL     1     -40.888 -44.798  11.846  1.00  0.00    -0.000 C 
HETATM   20  C   UNL     1     -40.836 -43.330  11.395  1.00  0.00     0.011 C 
HETATM   21  C   UNL     1     -42.340 -45.146  12.192  1.00  0.00     0.011 C 
ENDBRANCH  17  19
ENDBRANCH   1  17
TORSDOF 4
ENDMDL
MODEL 5
REMARK VINA RESULT:      -5.8      4.032      5.535
REMARK  4 active torsions:
REMARK  status: ('A' for Active; 'I' for Inactive)
REMARK    1  A    between atoms: C_2  and  C_4 
REMARK    2  A    between atoms: C_4  and  N_6 
REMARK       I    between atoms: N_6  and  C_7 
REMARK       I    between atoms: C_7  and  N_9 
REMARK    3  A    between atoms: N_9  and  C_10 
REMARK    4  A    between atoms: C_15  and  C_17 
ROOT
HETATM    1  N   UNL     1     -42.812 -48.061  10.925  1.00  0.00    -0.338 N 
HETATM    2  C   UNL     1     -41.934 -49.118  11.104  1.00  0.00     0.322 C 
HETATM    3  O   UNL     1     -40.802 -49.098  10.637  1.00  0.00    -0.247 OA
HETATM    4  N   UNL     1     -42.505 -50.157  11.795  1.00  0.00    -0.288 N 
HETATM    5  H   UNL     1     -43.474 -47.900  11.671  1.00  0.00     0.164 HD
HETATM    6  H   UNL     1     -43.507 -50.214  11.870  1.00  0.00     0.172 HD
ENDROOT
BRANCH   4   7
HETATM    7  C   UNL     1     -41.779 -51.299  12.032  1.00  0.00     0.169 A 
HETATM    8  N   UNL     1     -41.231 -52.133  11.178  1.00  0.00    -0.279 N 
HETATM    9  N   UNL     1     -40.668 -53.223  11.809  1.00  0.00    -0.296 N 
ATOM     10  HN  UNL     1     -41.224 -51.992  10.168  1.00  0.00     0.189 HD
HETATM   11  C   UNL     1     -40.806 -53.158  13.114  1.00  0.00     0.074 A 
ATOM     12  HN  UNL     1     -40.201 -53.988  11.321  1.00  0.00     0.187 HD
HETATM   13  S   UNL     1     -41.564 -51.720  13.676  1.00  0.00    -0.037 SA
BRANCH  11  14
HETATM   14  C   UNL     1     -40.365 -54.292  14.040  1.00  0.00     0.044 A 
HETATM   15  C   UNL     1     -40.345 -54.063  15.539  1.00  0.00     0.012 A 
HETATM   16  C   UNL     1     -39.058 -54.104  14.792  1.00  0.00     0.012 A 
ENDBRANCH  11  14
ENDBRANCH   4   7
BRANCH   1  17
HETATM   17  C   UNL     1     -42.363 -46.887  10.169  1.00  0.00     0.085 C 
HETATM   18  C   UNL     1     -42.322 -45.661  11.091  1.00  0.00     0.032 C 
BRANCH  17  19
HETATM   19  C   UNL     1     -43.229 -46.640   8.907  1.00  0.00    -0.000 C 
HETATM   20  C   UNL     1     -43.385 -47.922   8.075  1.00  0.00     0.011 C 
HETATM   21  C   UNL     1     -44.628 -46.126   9.269  1.00  0.00     0.011 C 
ENDBRANCH  17  19
ENDBRANCH   1  17
TORSDOF 4
ENDMDL
MODEL 6
REMARK VINA RESULT:      -5.6      3.490      3.796
REMARK  4 active torsions:
REMARK  status: ('A' for Active; 'I' for Inactive)
REMARK    1  A    between atoms: C_2  and  C_4 
REMARK    2  A    between atoms: C_4  and  N_6 
REMARK       I    between atoms: N_6  and  C_7 
REMARK       I    between atoms: C_7  and  N_9 
REMARK    3  A    between atoms: N_9  and  C_10 
REMARK    4  A    between atoms: C_15  and  C_17 
ROOT
HETATM    1  N   UNL     1     -43.804 -50.994  12.978  1.00  0.00    -0.338 N 
HETATM    2  C   UNL     1     -42.981 -49.887  12.833  1.00  0.00     0.322 C 
HETATM    3  O   UNL     1     -42.895 -49.033  13.707  1.00  0.00    -0.247 OA
HETATM    4  N   UNL     1     -42.356 -49.860  11.612  1.00  0.00    -0.288 N 
HETATM    5  H   UNL     1     -43.494 -51.841  12.523  1.00  0.00     0.164 HD
HETATM    6  H   UNL     1     -42.713 -50.422  10.857  1.00  0.00     0.172 HD
ENDROOT
BRANCH   4   7
HETATM    7  C   UNL     1     -41.528 -48.811  11.294  1.00  0.00     0.169 A 
HETATM    8  N   UNL     1     -40.220 -48.722  11.385  1.00  0.00    -0.279 N 
HETATM    9  N   UNL     1     -39.764 -47.461  11.063  1.00  0.00    -0.296 N 
ATOM     10  HN  UNL     1     -39.613 -49.495  11.661  1.00  0.00     0.189 HD
HETATM   11  C   UNL     1     -40.749 -46.655  10.732  1.00  0.00     0.074 A 
ATOM     12  HN  UNL     1     -38.782 -47.186  11.080  1.00  0.00     0.187 HD
HETATM   13  S   UNL     1     -42.298 -47.399  10.712  1.00  0.00    -0.037 SA
BRANCH  11  14
HETATM   14  C   UNL     1     -40.526 -45.171  10.436  1.00  0.00     0.044 A 
HETATM   15  C   UNL     1     -39.555 -44.380  11.292  1.00  0.00     0.012 A 
HETATM   16  C   UNL     1     -41.019 -44.177  11.475  1.00  0.00     0.012 A 
ENDBRANCH  11  14
ENDBRANCH   4   7
BRANCH   1  17
HETATM   17  C   UNL     1     -44.574 -51.147  14.217  1.00  0.00     0.085 C 
HETATM   18  C   UNL     1     -43.727 -51.876  15.267  1.00  0.00     0.032 C 
BRANCH  17  19
HETATM   19  C   UNL     1     -45.935 -51.850  13.973  1.00  0.00    -0.000 C 
HETATM   20  C   UNL     1     -46.973 -51.441  15.029  1.00  0.00     0.011 C 
HETATM   21  C   UNL     1     -46.503 -51.524  12.586  1.00  0.00     0.011 C 
ENDBRANCH  17  19
ENDBRANCH   1  17
TORSDOF 4
ENDMDL
MODEL 7
REMARK VINA RESULT:      -5.4      1.807      2.212
REMARK  4 active torsions:
REMARK  status: ('A' for Active; 'I' for Inactive)
REMARK    1  A    between atoms: C_2  and  C_4 
REMARK    2  A    between atoms: C_4  and  N_6 
REMARK       I    between atoms: N_6  and  C_7 
REMARK       I    between atoms: C_7  and  N_9 
REMARK    3  A    between atoms: N_9  and  C_10 
REMARK    4  A    between atoms: C_15  and  C_17 
ROOT
HETATM    1  N   UNL     1     -45.118 -52.226  14.280  1.00  0.00    -0.338 N 
HETATM    2  C   UNL     1     -43.832 -52.197  13.762  1.00  0.00     0.322 C 
HETATM    3  O   UNL     1     -42.991 -53.026  14.088  1.00  0.00    -0.247 OA
HETATM    4  N   UNL     1     -43.634 -51.129  12.924  1.00  0.00    -0.288 N 
HETATM    5  H   UNL     1     -45.851 -51.886  13.672  1.00  0.00     0.164 HD
HETATM    6  H   UNL     1     -44.265 -50.347  12.955  1.00  0.00     0.172 HD
ENDROOT
BRANCH   4   7
HETATM    7  C   UNL     1     -42.401 -50.935  12.349  1.00  0.00     0.169 A 
HETATM    8  N   UNL     1     -41.677 -51.758  11.625  1.00  0.00    -0.279 N 
HETATM    9  N   UNL     1     -40.443 -51.226  11.315  1.00  0.00    -0.296 N 
ATOM     10  HN  UNL     1     -41.991 -52.682  11.328  1.00  0.00     0.189 HD
HETATM   11  C   UNL     1     -40.294 -50.018  11.810  1.00  0.00     0.074 A 
ATOM     12  HN  UNL     1     -39.732 -51.711  10.768  1.00  0.00     0.187 HD
HETATM   13  S   UNL     1     -41.680 -49.408  12.624  1.00  0.00    -0.037 SA
BRANCH  11  14
HETATM   14  C   UNL     1     -38.977 -49.248  11.702  1.00  0.00     0.044 A 
HETATM   15  C   UNL     1     -37.680 -50.014  11.527  1.00  0.00     0.012 A 
HETATM   16  C   UNL     1     -37.990 -49.401  12.848  1.00  0.00     0.012 A 
ENDBRANCH  11  14
ENDBRANCH   4   7
BRANCH   1  17
HETATM   17  C   UNL     1     -45.477 -53.287  15.227  1.00  0.00     0.085 C 
HETATM   18  C   UNL     1     -46.120 -54.458  14.473  1.00  0.00     0.032 C 
BRANCH  17  19
HETATM   19  C   UNL     1     -46.381 -52.764  16.373  1.00  0.00    -0.000 C 
HETATM   20  C   UNL     1     -45.552 -52.382  17.610  1.00  0.00     0.011 C 
HETATM   21  C   UNL     1     -47.196 -51.539  15.941  1.00  0.00     0.011 C 
ENDBRANCH  17  19
ENDBRANCH   1  17
TORSDOF 4
ENDMDL
MODEL 8
REMARK VINA RESULT:      -5.3      3.850      5.564
REMARK  4 active torsions:
REMARK  status: ('A' for Active; 'I' for Inactive)
REMARK    1  A    between atoms: C_2  and  C_4 
REMARK    2  A    between atoms: C_4  and  N_6 
REMARK       I    between atoms: N_6  and  C_7 
REMARK       I    between atoms: C_7  and  N_9 
REMARK    3  A    between atoms: N_9  and  C_10 
REMARK    4  A    between atoms: C_15  and  C_17 
ROOT
HETATM    1  N   UNL     1     -40.236 -53.227  14.660  1.00  0.00    -0.338 N 
HETATM    2  C   UNL     1     -40.033 -52.322  13.630  1.00  0.00     0.322 C 
HETATM    3  O   UNL     1     -38.906 -51.992  13.279  1.00  0.00    -0.247 OA
HETATM    4  N   UNL     1     -41.212 -51.833  13.127  1.00  0.00    -0.288 N 
HETATM    5  H   UNL     1     -41.062 -53.806  14.588  1.00  0.00     0.164 HD
HETATM    6  H   UNL     1     -42.057 -51.920  13.665  1.00  0.00     0.172 HD
ENDROOT
BRANCH   4   7
HETATM    7  C   UNL     1     -41.187 -50.900  12.119  1.00  0.00     0.169 A 
HETATM    8  N   UNL     1     -40.492 -50.891  11.004  1.00  0.00    -0.279 N 
HETATM    9  N   UNL     1     -40.667 -49.722  10.294  1.00  0.00    -0.296 N 
ATOM     10  HN  UNL     1     -39.893 -51.660  10.700  1.00  0.00     0.189 HD
HETATM   11  C   UNL     1     -41.497 -48.903  10.899  1.00  0.00     0.074 A 
ATOM     12  HN  UNL     1     -40.209 -49.518   9.406  1.00  0.00     0.187 HD
HETATM   13  S   UNL     1     -42.188 -49.531  12.343  1.00  0.00    -0.037 SA
BRANCH  11  14
HETATM   14  C   UNL     1     -41.780 -47.493  10.377  1.00  0.00     0.044 A 
HETATM   15  C   UNL     1     -42.995 -46.742  10.887  1.00  0.00     0.012 A 
HETATM   16  C   UNL     1     -43.017 -47.312   9.512  1.00  0.00     0.012 A 
ENDBRANCH  11  14
ENDBRANCH   4   7
BRANCH   1  17
HETATM   17  C   UNL     1     -39.070 -53.811  15.331  1.00  0.00     0.085 C 
HETATM   18  C   UNL     1     -39.283 -55.319  15.521  1.00  0.00     0.032 C 
BRANCH  17  19
HETATM   19  C   UNL     1     -38.747 -53.094  16.667  1.00  0.00    -0.000 C 
HETATM   20  C   UNL     1     -40.029 -52.686  17.408  1.00  0.00     0.011 C 
HETATM   21  C   UNL     1     -37.911 -53.979  17.600  1.00  0.00     0.011 C 
ENDBRANCH  17  19
ENDBRANCH   1  17
TORSDOF 4
ENDMDL
MODEL 9
REMARK VINA RESULT:      -5.2      3.763      6.821
REMARK  4 active torsions:
REMARK  status: ('A' for Active; 'I' for Inactive)
REMARK    1  A    between atoms: C_2  and  C_4 
REMARK    2  A    between atoms: C_4  and  N_6 
REMARK       I    between atoms: N_6  and  C_7 
REMARK       I    between atoms: C_7  and  N_9 
REMARK    3  A    between atoms: N_9  and  C_10 
REMARK    4  A    between atoms: C_15  and  C_17 
ROOT
HETATM    1  N   UNL     1     -41.409 -47.165  12.166  1.00  0.00    -0.338 N 
HETATM    2  C   UNL     1     -41.562 -48.492  11.795  1.00  0.00     0.322 C 
HETATM    3  O   UNL     1     -41.255 -48.886  10.677  1.00  0.00    -0.247 OA
HETATM    4  N   UNL     1     -42.131 -49.247  12.790  1.00  0.00    -0.288 N 
HETATM    5  H   UNL     1     -41.206 -46.995  13.141  1.00  0.00     0.164 HD
HETATM    6  H   UNL     1     -42.623 -48.793  13.541  1.00  0.00     0.172 HD
ENDROOT
BRANCH   4   7
HETATM    7  C   UNL     1     -42.382 -50.580  12.575  1.00  0.00     0.169 A 
HETATM    8  N   UNL     1     -41.794 -51.419  11.751  1.00  0.00    -0.279 N 
HETATM    9  N   UNL     1     -42.404 -52.656  11.751  1.00  0.00    -0.296 N 
ATOM     10  HN  UNL     1     -40.983 -51.183  11.180  1.00  0.00     0.189 HD
HETATM   11  C   UNL     1     -43.419 -52.701  12.584  1.00  0.00     0.074 A 
ATOM     12  HN  UNL     1     -42.102 -53.442  11.175  1.00  0.00     0.187 HD
HETATM   13  S   UNL     1     -43.659 -51.259  13.489  1.00  0.00    -0.037 SA
BRANCH  11  14
HETATM   14  C   UNL     1     -44.332 -53.923  12.695  1.00  0.00     0.044 A 
HETATM   15  C   UNL     1     -45.492 -53.899  13.672  1.00  0.00     0.012 A 
HETATM   16  C   UNL     1     -44.284 -54.706  13.997  1.00  0.00     0.012 A 
ENDBRANCH  11  14
ENDBRANCH   4   7
BRANCH   1  17
HETATM   17  C   UNL     1     -40.850 -46.219  11.195  1.00  0.00     0.085 C 
HETATM   18  C   UNL     1     -39.591 -45.562  11.777  1.00  0.00     0.032 C 
BRANCH  17  19
HETATM   19  C   UNL     1     -41.896 -45.170  10.734  1.00  0.00    -0.000 C 
HETATM   20  C   UNL     1     -43.048 -45.831   9.963  1.00  0.00     0.011 C 
HETATM   21  C   UNL     1     -42.487 -44.399  11.920  1.00  0.00     0.011 C 
ENDBRANCH  17  19
ENDBRANCH   1  17
TORSDOF 4
ENDMDL
