MODEL 1
REMARK VINA RESULT:      -7.0      0.000      0.000
REMARK  2 active torsions:
REMARK  status: ('A' for Active; 'I' for Inactive)
REMARK    1  A    between atoms: C_8  and  N_9 
REMARK       I    between atoms: N_9  and  C_10 
REMARK       I    between atoms: C_10  and  N_12 
REMARK    2  A    between atoms: N_12  and  C_13 
ROOT
HETATM    1  N   UNL     1     -43.143 -53.084  12.572  1.00  0.00    -0.295 N 
HETATM    2  C   UNL     1     -42.076 -52.340  12.123  1.00  0.00     0.322 C 
HETATM    3  O   UNL     1     -41.042 -52.890  11.750  1.00  0.00    -0.247 OA
HETATM    4  N   UNL     1     -42.228 -50.988  12.195  1.00  0.00    -0.337 N 
HETATM    5  H   UNL     1     -42.951 -54.070  12.663  1.00  0.00     0.172 HD
HETATM    6  H   UNL     1     -43.191 -50.717  12.389  1.00  0.00     0.164 HD
ENDROOT
BRANCH   1   7
HETATM    7  C   UNL     1     -44.404 -52.598  12.942  1.00  0.00     0.109 A 
HETATM    8  N   UNL     1     -45.331 -52.428  11.972  1.00  0.00    -0.346 N 
HETATM    9  C   UNL     1     -46.529 -51.898  12.285  1.00  0.00     0.007 A 
ATOM     10  HN  UNL     1     -45.124 -52.699  11.010  1.00  0.00     0.167 HD
HETATM   11  C   UNL     1     -46.834 -51.490  13.570  1.00  0.00     0.031 A 
HETATM   12  C   UNL     1     -47.486 -51.744  11.145  1.00  0.00     0.068 C 
HETATM   13  C   UNL     1     -45.883 -51.669  14.579  1.00  0.00    -0.057 A 
HETATM   14  C   UNL     1     -46.152 -51.180  15.971  1.00  0.00     0.048 C 
HETATM   15  C   UNL     1     -44.654 -52.263  14.262  1.00  0.00     0.055 A 
ENDBRANCH   1   7
BRANCH   4  16
HETATM   16  C   UNL     1     -41.302 -49.974  11.712  1.00  0.00     0.103 C 
HETATM   17  C   UNL     1     -40.243 -49.463  12.713  1.00  0.00     0.041 C 
HETATM   18  C   UNL     1     -38.747 -49.227  12.860  1.00  0.00     0.035 C 
HETATM   19  C   UNL     1     -40.438 -48.099  11.954  1.00  0.00     0.137 C 
HETATM   20  C   UNL     1     -38.705 -47.772  13.408  1.00  0.00     0.168 C 
HETATM   21  O   UNL     1     -39.837 -47.105  12.792  1.00  0.00    -0.385 OA
HETATM   22  C   UNL     1     -41.924 -48.479  11.820  1.00  0.00    -0.000 C 
HETATM   23  C   UNL     1     -42.592 -48.072  10.504  1.00  0.00     0.019 C 
HETATM   24  C   UNL     1     -42.791 -48.070  13.019  1.00  0.00     0.019 C 
ENDBRANCH   4  16
TORSDOF 2
ENDMDL
MODEL 2
REMARK VINA RESULT:      -6.9      2.015      6.039
REMARK  2 active torsions:
REMARK  status: ('A' for Active; 'I' for Inactive)
REMARK    1  A    between atoms: C_8  and  N_9 
REMARK       I    between atoms: N_9  and  C_10 
REMARK       I    between atoms: C_10  and  N_12 
REMARK    2  A    between atoms: N_12  and  C_13 
ROOT
HETATM    1  N   UNL     1     -40.478 -50.629  11.232  1.00  0.00    -0.295 N 
HETATM    2  C   UNL     1     -41.212 -51.634  11.819  1.00  0.00     0.322 C 
HETATM    3  O   UNL     1     -40.760 -52.773  11.901  1.00  0.00    -0.247 OA
HETATM    4  N   UNL     1     -42.470 -51.289  12.217  1.00  0.00    -0.337 N 
HETATM    5  H   UNL     1     -39.621 -50.939  10.801  1.00  0.00     0.172 HD
HETATM    6  H   UNL     1     -42.617 -50.282  12.203  1.00  0.00     0.164 HD
ENDROOT
BRANCH   1   7
HETATM    7  C   UNL     1     -40.831 -49.275  11.149  1.00  0.00     0.109 A 
HETATM    8  N   UNL     1     -41.797 -48.921  10.271  1.00  0.00    -0.346 N 
HETATM    9  C   UNL     1     -42.110 -47.619  10.119  1.00  0.00     0.007 A 
ATOM     10  HN  UNL     1     -42.285 -49.634   9.729  1.00  0.00     0.167 HD
HETATM   11  C   UNL     1     -41.449 -46.623  10.813  1.00  0.00     0.031 A 
HETATM   12  C   UNL     1     -43.187 -47.325   9.123  1.00  0.00     0.068 C 
HETATM   13  C   UNL     1     -40.454 -46.982  11.727  1.00  0.00    -0.057 A 
HETATM   14  C   UNL     1     -39.670 -45.928  12.451  1.00  0.00     0.048 C 
HETATM   15  C   UNL     1     -40.160 -48.340  11.919  1.00  0.00     0.055 A 
ENDBRANCH   1   7
BRANCH   4  16
HETATM   16  C   UNL     1     -43.420 -52.124  12.937  1.00  0.00     0.103 C 
HETATM   17  C   UNL     1     -44.782 -51.487  13.290  1.00  0.00     0.041 C 
HETATM   18  C   UNL     1     -46.280 -51.728  13.191  1.00  0.00     0.035 C 
HETATM   19  C   UNL     1     -44.668 -52.382  14.579  1.00  0.00     0.137 C 
HETATM   20  C   UNL     1     -46.748 -51.437  14.645  1.00  0.00     0.168 C 
HETATM   21  O   UNL     1     -45.650 -51.871  15.488  1.00  0.00    -0.385 OA
HETATM   22  C   UNL     1     -43.154 -52.109  14.538  1.00  0.00    -0.000 C 
HETATM   23  C   UNL     1     -42.262 -53.282  14.952  1.00  0.00     0.019 C 
HETATM   24  C   UNL     1     -42.726 -50.821  15.254  1.00  0.00     0.019 C 
ENDBRANCH   4  16
TORSDOF 2
ENDMDL
MODEL 3
REMARK VINA RESULT:      -6.2      1.999      6.273
REMARK  2 active torsions:
REMARK  status: ('A' for Active; 'I' for Inactive)
REMARK    1  A    between atoms: C_8  and  N_9 
REMARK       I    between atoms: N_9  and  C_10 
REMARK       I    between atoms: C_10  and  N_12 
REMARK    2  A    between atoms: N_12  and  C_13 
ROOT
HETATM    1  N   UNL     1     -40.516 -50.714  11.374  1.00  0.00    -0.295 N 
HETATM    2  C   UNL     1     -41.328 -51.713  11.859  1.00  0.00     0.322 C 
HETATM    3  O   UNL     1     -40.995 -52.893  11.762  1.00  0.00    -0.247 OA
HETATM    4  N   UNL     1     -42.524 -51.305  12.369  1.00  0.00    -0.337 N 
HETATM    5  H   UNL     1     -39.715 -51.045  10.858  1.00  0.00     0.172 HD
HETATM    6  H   UNL     1     -42.565 -50.296  12.499  1.00  0.00     0.164 HD
ENDROOT
BRANCH   1   7
HETATM    7  C   UNL     1     -40.726 -49.334  11.493  1.00  0.00     0.109 A 
HETATM    8  N   UNL     1     -40.177 -48.695  12.551  1.00  0.00    -0.346 N 
HETATM    9  C   UNL     1     -40.418 -47.382  12.730  1.00  0.00     0.007 A 
ATOM     10  HN  UNL     1     -39.584 -49.203  13.207  1.00  0.00     0.167 HD
HETATM   11  C   UNL     1     -41.242 -46.667  11.880  1.00  0.00     0.031 A 
HETATM   12  C   UNL     1     -39.771 -46.763  13.929  1.00  0.00     0.068 C 
HETATM   13  C   UNL     1     -41.808 -47.320  10.781  1.00  0.00    -0.057 A 
HETATM   14  C   UNL     1     -42.757 -46.596   9.874  1.00  0.00     0.048 C 
HETATM   15  C   UNL     1     -41.519 -48.675  10.568  1.00  0.00     0.055 A 
ENDBRANCH   1   7
BRANCH   4  16
HETATM   16  C   UNL     1     -43.527 -52.134  13.021  1.00  0.00     0.103 C 
HETATM   17  C   UNL     1     -44.850 -51.444  13.422  1.00  0.00     0.041 C 
HETATM   18  C   UNL     1     -46.360 -51.584  13.303  1.00  0.00     0.035 C 
HETATM   19  C   UNL     1     -44.798 -52.441  14.637  1.00  0.00     0.137 C 
HETATM   20  C   UNL     1     -46.817 -51.379  14.775  1.00  0.00     0.168 C 
HETATM   21  O   UNL     1     -45.752 -51.942  15.583  1.00  0.00    -0.385 OA
HETATM   22  C   UNL     1     -43.270 -52.258  14.619  1.00  0.00    -0.000 C 
HETATM   23  C   UNL     1     -42.452 -53.512  14.942  1.00  0.00     0.019 C 
HETATM   24  C   UNL     1     -42.768 -51.057  15.433  1.00  0.00     0.019 C 
ENDBRANCH   4  16
TORSDOF 2
ENDMDL
MODEL 4
REMARK VINA RESULT:      -6.1      2.625      6.398
REMARK  2 active torsions:
REMARK  status: ('A' for Active; 'I' for Inactive)
REMARK    1  A    between atoms: C_8  and  N_9 
REMARK       I    between atoms: N_9  and  C_10 
REMARK       I    between atoms: C_10  and  N_12 
REMARK    2  A    between atoms: N_12  and  C_13 
ROOT
HETATM    1  N   UNL     1     -42.708 -52.732  11.760  1.00  0.00    -0.295 N 
HETATM    2  C   UNL     1     -43.708 -53.208  12.577  1.00  0.00     0.322 C 
HETATM    3  O   UNL     1     -44.436 -54.126  12.206  1.00  0.00    -0.247 OA
HETATM    4  N   UNL     1     -43.869 -52.547  13.759  1.00  0.00    -0.337 N 
HETATM    5  H   UNL     1     -42.711 -53.124  10.832  1.00  0.00     0.172 HD
HETATM    6  H   UNL     1     -43.094 -51.916  13.957  1.00  0.00     0.164 HD
ENDROOT
BRANCH   1   7
HETATM    7  C   UNL     1     -41.756 -51.757  12.086  1.00  0.00     0.109 A 
HETATM    8  N   UNL     1     -41.980 -50.487  11.679  1.00  0.00    -0.346 N 
HETATM    9  C   UNL     1     -41.052 -49.540  11.917  1.00  0.00     0.007 A 
ATOM     10  HN  UNL     1     -42.846 -50.247  11.196  1.00  0.00     0.167 HD
HETATM   11  C   UNL     1     -39.853 -49.834  12.539  1.00  0.00     0.031 A 
HETATM   12  C   UNL     1     -41.386 -48.167  11.427  1.00  0.00     0.068 C 
HETATM   13  C   UNL     1     -39.617 -51.144  12.969  1.00  0.00    -0.057 A 
HETATM   14  C   UNL     1     -38.303 -51.515  13.589  1.00  0.00     0.048 C 
HETATM   15  C   UNL     1     -40.603 -52.118  12.763  1.00  0.00     0.055 A 
ENDBRANCH   1   7
BRANCH   4  16
HETATM   16  C   UNL     1     -44.784 -52.889  14.837  1.00  0.00     0.103 C 
HETATM   17  C   UNL     1     -45.688 -51.757  15.372  1.00  0.00     0.041 C 
HETATM   18  C   UNL     1     -47.140 -51.428  15.685  1.00  0.00     0.035 C 
HETATM   19  C   UNL     1     -45.502 -52.497  16.748  1.00  0.00     0.137 C 
HETATM   20  C   UNL     1     -47.033 -50.840  17.120  1.00  0.00     0.168 C 
HETATM   21  O   UNL     1     -45.942 -51.567  17.745  1.00  0.00    -0.385 OA
HETATM   22  C   UNL     1     -44.067 -52.816  16.291  1.00  0.00    -0.000 C 
HETATM   23  C   UNL     1     -43.535 -54.190  16.705  1.00  0.00     0.019 C 
HETATM   24  C   UNL     1     -43.044 -51.716  16.611  1.00  0.00     0.019 C 
ENDBRANCH   4  16
TORSDOF 2
ENDMDL
MODEL 5
REMARK VINA RESULT:      -6.0      2.906      4.093
REMARK  2 active torsions:
REMARK  status: ('A' for Active; 'I' for Inactive)
REMARK    1  A    between atoms: C_8  and  N_9 
REMARK       I    between atoms: N_9  and  C_10 
REMARK       I    between atoms: C_10  and  N_12 
REMARK    2  A    between atoms: N_12  and  C_13 
ROOT
HETATM    1  N   UNL     1     -44.301 -54.562  15.066  1.00  0.00    -0.295 N 
HETATM    2  C   UNL     1     -42.934 -54.528  15.218  1.00  0.00     0.322 C 
HETATM    3  O   UNL     1     -42.300 -55.562  15.416  1.00  0.00    -0.247 OA
HETATM    4  N   UNL     1     -42.370 -53.287  15.207  1.00  0.00    -0.337 N 
HETATM    5  H   UNL     1     -44.715 -55.465  15.238  1.00  0.00     0.172 HD
HETATM    6  H   UNL     1     -43.021 -52.570  14.889  1.00  0.00     0.164 HD
ENDROOT
BRANCH   1   7
HETATM    7  C   UNL     1     -45.134 -53.480  14.750  1.00  0.00     0.109 A 
HETATM    8  N   UNL     1     -45.692 -52.787  15.768  1.00  0.00    -0.346 N 
HETATM    9  C   UNL     1     -46.552 -51.786  15.496  1.00  0.00     0.007 A 
ATOM     10  HN  UNL     1     -45.465 -53.021  16.735  1.00  0.00     0.167 HD
HETATM   11  C   UNL     1     -46.909 -51.462  14.201  1.00  0.00     0.031 A 
HETATM   12  C   UNL     1     -47.121 -51.080  16.686  1.00  0.00     0.068 C 
HETATM   13  C   UNL     1     -46.331 -52.170  13.143  1.00  0.00    -0.057 A 
HETATM   14  C   UNL     1     -46.742 -51.891  11.728  1.00  0.00     0.048 C 
HETATM   15  C   UNL     1     -45.401 -53.181  13.425  1.00  0.00     0.055 A 
ENDBRANCH   1   7
BRANCH   4  16
HETATM   16  C   UNL     1     -40.951 -52.969  15.260  1.00  0.00     0.103 C 
HETATM   17  C   UNL     1     -40.560 -51.487  15.067  1.00  0.00     0.041 C 
HETATM   18  C   UNL     1     -39.739 -50.372  15.696  1.00  0.00     0.035 C 
HETATM   19  C   UNL     1     -39.293 -52.095  14.360  1.00  0.00     0.137 C 
HETATM   20  C   UNL     1     -38.932 -49.841  14.477  1.00  0.00     0.168 C 
HETATM   21  O   UNL     1     -38.693 -51.008  13.647  1.00  0.00    -0.385 OA
HETATM   22  C   UNL     1     -40.220 -53.204  13.829  1.00  0.00    -0.000 C 
HETATM   23  C   UNL     1     -39.602 -54.602  13.759  1.00  0.00     0.019 C 
HETATM   24  C   UNL     1     -40.931 -52.856  12.514  1.00  0.00     0.019 C 
ENDBRANCH   4  16
TORSDOF 2
ENDMDL
MODEL 6
REMARK VINA RESULT:      -6.0      1.076      2.065
REMARK  2 active torsions:
REMARK  status: ('A' for Active; 'I' for Inactive)
REMARK    1  A    between atoms: C_8  and  N_9 
REMARK       I    between atoms: N_9  and  C_10 
REMARK       I    between atoms: C_10  and  N_12 
REMARK    2  A    between atoms: N_12  and  C_13 
ROOT
HETATM    1  N   UNL     1     -42.721 -53.157  13.235  1.00  0.00    -0.295 N 
HETATM    2  C   UNL     1     -41.564 -52.562  12.786  1.00  0.00     0.322 C 
HETATM    3  O   UNL     1     -40.554 -53.232  12.584  1.00  0.00    -0.247 OA
HETATM    4  N   UNL     1     -41.609 -51.205  12.662  1.00  0.00    -0.337 N 
HETATM    5  H   UNL     1     -42.619 -54.132  13.474  1.00  0.00     0.172 HD
HETATM    6  H   UNL     1     -42.558 -50.842  12.732  1.00  0.00     0.164 HD
ENDROOT
BRANCH   1   7
HETATM    7  C   UNL     1     -43.962 -52.535  13.423  1.00  0.00     0.109 A 
HETATM    8  N   UNL     1     -44.280 -52.109  14.667  1.00  0.00    -0.346 N 
HETATM    9  C   UNL     1     -45.493 -51.570  14.893  1.00  0.00     0.007 A 
ATOM     10  HN  UNL     1     -43.605 -52.196  15.427  1.00  0.00     0.167 HD
HETATM   11  C   UNL     1     -46.444 -51.466  13.895  1.00  0.00     0.031 A 
HETATM   12  C   UNL     1     -45.755 -51.132  16.300  1.00  0.00     0.068 C 
HETATM   13  C   UNL     1     -46.120 -51.897  12.605  1.00  0.00    -0.057 A 
HETATM   14  C   UNL     1     -47.146 -51.861  11.512  1.00  0.00     0.048 C 
HETATM   15  C   UNL     1     -44.841 -52.416  12.360  1.00  0.00     0.055 A 
ENDBRANCH   1   7
BRANCH   4  16
HETATM   16  C   UNL     1     -40.567 -50.339  12.132  1.00  0.00     0.103 C 
HETATM   17  C   UNL     1     -39.455 -49.903  13.111  1.00  0.00     0.041 C 
HETATM   18  C   UNL     1     -37.942 -49.841  13.257  1.00  0.00     0.035 C 
HETATM   19  C   UNL     1     -39.485 -48.571  12.276  1.00  0.00     0.137 C 
HETATM   20  C   UNL     1     -37.727 -48.373  13.724  1.00  0.00     0.168 C 
HETATM   21  O   UNL     1     -38.770 -47.610  13.063  1.00  0.00    -0.385 OA
HETATM   22  C   UNL     1     -41.005 -48.776  12.151  1.00  0.00    -0.000 C 
HETATM   23  C   UNL     1     -41.617 -48.367  10.809  1.00  0.00     0.019 C 
HETATM   24  C   UNL     1     -41.818 -48.200  13.319  1.00  0.00     0.019 C 
ENDBRANCH   4  16
TORSDOF 2
ENDMDL
MODEL 7
REMARK VINA RESULT:      -5.9      3.367      5.637
REMARK  2 active torsions:
REMARK  status: ('A' for Active; 'I' for Inactive)
REMARK    1  A    between atoms: C_8  and  N_9 
REMARK       I    between atoms: N_9  and  C_10 
REMARK       I    between atoms: C_10  and  N_12 
REMARK    2  A    between atoms: N_12  and  C_13 
ROOT
HETATM    1  N   UNL     1     -41.223 -48.521  10.278  1.00  0.00    -0.295 N 
HETATM    2  C   UNL     1     -41.509 -47.244  10.703  1.00  0.00     0.322 C 
HETATM    3  O   UNL     1     -41.991 -46.420   9.929  1.00  0.00    -0.247 OA
HETATM    4  N   UNL     1     -41.154 -46.958  11.988  1.00  0.00    -0.337 N 
HETATM    5  H   UNL     1     -41.341 -48.664   9.287  1.00  0.00     0.172 HD
HETATM    6  H   UNL     1     -40.905 -47.792  12.515  1.00  0.00     0.164 HD
ENDROOT
BRANCH   1   7
HETATM    7  C   UNL     1     -40.756 -49.581  11.068  1.00  0.00     0.109 A 
HETATM    8  N   UNL     1     -41.656 -50.484  11.518  1.00  0.00    -0.346 N 
HETATM    9  C   UNL     1     -41.250 -51.475  12.336  1.00  0.00     0.007 A 
ATOM     10  HN  UNL     1     -42.636 -50.416  11.240  1.00  0.00     0.167 HD
HETATM   11  C   UNL     1     -39.938 -51.580  12.759  1.00  0.00     0.031 A 
HETATM   12  C   UNL     1     -42.316 -52.422  12.785  1.00  0.00     0.068 C 
HETATM   13  C   UNL     1     -39.001 -50.653  12.292  1.00  0.00    -0.057 A 
HETATM   14  C   UNL     1     -37.583 -50.696  12.779  1.00  0.00     0.048 C 
HETATM   15  C   UNL     1     -39.415 -49.651  11.404  1.00  0.00     0.055 A 
ENDBRANCH   1   7
BRANCH   4  16
HETATM   16  C   UNL     1     -41.416 -45.724  12.714  1.00  0.00     0.103 C 
HETATM   17  C   UNL     1     -40.591 -44.484  12.305  1.00  0.00     0.041 C 
HETATM   18  C   UNL     1     -40.739 -43.023  11.909  1.00  0.00     0.035 C 
HETATM   19  C   UNL     1     -40.683 -44.135  13.836  1.00  0.00     0.137 C 
HETATM   20  C   UNL     1     -39.696 -42.334  12.834  1.00  0.00     0.168 C 
HETATM   21  O   UNL     1     -39.700 -43.116  14.056  1.00  0.00    -0.385 OA
HETATM   22  C   UNL     1     -40.582 -45.648  14.105  1.00  0.00    -0.000 C 
HETATM   23  C   UNL     1     -41.424 -46.166  15.273  1.00  0.00     0.019 C 
HETATM   24  C   UNL     1     -39.144 -46.179  14.192  1.00  0.00     0.019 C 
ENDBRANCH   4  16
TORSDOF 2
ENDMDL
MODEL 8
REMARK VINA RESULT:      -5.7      2.617      6.598
REMARK  2 active torsions:
REMARK  status: ('A' for Active; 'I' for Inactive)
REMARK    1  A    between atoms: C_8  and  N_9 
REMARK       I    between atoms: N_9  and  C_10 
REMARK       I    between atoms: C_10  and  N_12 
REMARK    2  A    between atoms: N_12  and  C_13 
ROOT
HETATM    1  N   UNL     1     -42.676 -48.708  14.909  1.00  0.00    -0.295 N 
HETATM    2  C   UNL     1     -43.375 -49.670  15.602  1.00  0.00     0.322 C 
HETATM    3  O   UNL     1     -43.682 -49.496  16.779  1.00  0.00    -0.247 OA
HETATM    4  N   UNL     1     -43.622 -50.825  14.920  1.00  0.00    -0.337 N 
HETATM    5  H   UNL     1     -42.364 -47.935  15.476  1.00  0.00     0.172 HD
HETATM    6  H   UNL     1     -43.425 -50.735  13.925  1.00  0.00     0.164 HD
ENDROOT
BRANCH   1   7
HETATM    7  C   UNL     1     -42.339 -48.735  13.550  1.00  0.00     0.109 A 
HETATM    8  N   UNL     1     -41.137 -49.248  13.202  1.00  0.00    -0.346 N 
HETATM    9  C   UNL     1     -40.755 -49.226  11.910  1.00  0.00     0.007 A 
ATOM     10  HN  UNL     1     -40.524 -49.649  13.912  1.00  0.00     0.167 HD
HETATM   11  C   UNL     1     -41.545 -48.663  10.925  1.00  0.00     0.031 A 
HETATM   12  C   UNL     1     -39.409 -49.811  11.622  1.00  0.00     0.068 C 
HETATM   13  C   UNL     1     -42.792 -48.137  11.276  1.00  0.00    -0.057 A 
HETATM   14  C   UNL     1     -43.648 -47.461  10.248  1.00  0.00     0.048 C 
HETATM   15  C   UNL     1     -43.208 -48.202  12.613  1.00  0.00     0.055 A 
ENDBRANCH   1   7
BRANCH   4  16
HETATM   16  C   UNL     1     -44.407 -51.962  15.377  1.00  0.00     0.103 C 
HETATM   17  C   UNL     1     -44.350 -53.242  14.514  1.00  0.00     0.041 C 
HETATM   18  C   UNL     1     -44.104 -54.740  14.607  1.00  0.00     0.035 C 
HETATM   19  C   UNL     1     -45.847 -53.403  14.968  1.00  0.00     0.137 C 
HETATM   20  C   UNL     1     -45.321 -55.312  13.825  1.00  0.00     0.168 C 
HETATM   21  O   UNL     1     -46.408 -54.388  14.091  1.00  0.00    -0.385 OA
HETATM   22  C   UNL     1     -45.953 -51.869  14.890  1.00  0.00    -0.000 C 
HETATM   23  C   UNL     1     -46.822 -51.214  15.966  1.00  0.00     0.019 C 
HETATM   24  C   UNL     1     -46.310 -51.331  13.498  1.00  0.00     0.019 C 
ENDBRANCH   4  16
TORSDOF 2
ENDMDL
MODEL 9
REMARK VINA RESULT:      -5.7      2.541      3.788
REMARK  2 active torsions:
REMARK  status: ('A' for Active; 'I' for Inactive)
REMARK    1  A    between atoms: C_8  and  N_9 
REMARK       I    between atoms: N_9  and  C_10 
REMARK       I    between atoms: C_10  and  N_12 
REMARK    2  A    between atoms: N_12  and  C_13 
ROOT
HETATM    1  N   UNL     1     -43.982 -54.341  16.011  1.00  0.00    -0.295 N 
HETATM    2  C   UNL     1     -42.620 -54.200  15.876  1.00  0.00     0.322 C 
HETATM    3  O   UNL     1     -41.858 -55.093  16.242  1.00  0.00    -0.247 OA
HETATM    4  N   UNL     1     -42.197 -52.997  15.392  1.00  0.00    -0.337 N 
HETATM    5  H   UNL     1     -44.264 -55.166  16.518  1.00  0.00     0.172 HD
HETATM    6  H   UNL     1     -42.963 -52.444  15.012  1.00  0.00     0.164 HD
ENDROOT
BRANCH   1   7
HETATM    7  C   UNL     1     -44.963 -53.449  15.561  1.00  0.00     0.109 A 
HETATM    8  N   UNL     1     -45.130 -53.304  14.226  1.00  0.00    -0.346 N 
HETATM    9  C   UNL     1     -46.018 -52.403  13.762  1.00  0.00     0.007 A 
ATOM     10  HN  UNL     1     -44.587 -53.873  13.576  1.00  0.00     0.167 HD
HETATM   11  C   UNL     1     -46.747 -51.593  14.611  1.00  0.00     0.031 A 
HETATM   12  C   UNL     1     -46.128 -52.311  12.273  1.00  0.00     0.068 C 
HETATM   13  C   UNL     1     -46.586 -51.742  15.992  1.00  0.00    -0.057 A 
HETATM   14  C   UNL     1     -47.311 -50.837  16.944  1.00  0.00     0.048 C 
HETATM   15  C   UNL     1     -45.696 -52.711  16.475  1.00  0.00     0.055 A 
ENDBRANCH   1   7
BRANCH   4  16
HETATM   16  C   UNL     1     -40.830 -52.613  15.071  1.00  0.00     0.103 C 
HETATM   17  C   UNL     1     -40.639 -51.287  14.303  1.00  0.00     0.041 C 
HETATM   18  C   UNL     1     -39.861 -49.981  14.340  1.00  0.00     0.035 C 
HETATM   19  C   UNL     1     -39.435 -52.049  13.637  1.00  0.00     0.137 C 
HETATM   20  C   UNL     1     -39.313 -49.894  12.888  1.00  0.00     0.168 C 
HETATM   21  O   UNL     1     -39.075 -51.269  12.491  1.00  0.00    -0.385 OA
HETATM   22  C   UNL     1     -40.304 -53.319  13.707  1.00  0.00    -0.000 C 
HETATM   23  C   UNL     1     -39.552 -54.615  14.021  1.00  0.00     0.019 C 
HETATM   24  C   UNL     1     -41.241 -53.509  12.506  1.00  0.00     0.019 C 
ENDBRANCH   4  16
TORSDOF 2
ENDMDL
