MODEL 1
REMARK VINA RESULT:      -6.1      0.000      0.000
REMARK  3 active torsions:
REMARK  status: ('A' for Active; 'I' for Inactive)
REMARK    1  A    between atoms: C_8  and  C_9 
REMARK    2  A    between atoms: C_9  and  C_10 
REMARK       I    between atoms: C_10  and  N_12 
REMARK    3  A    between atoms: N_12  and  C_13 
ROOT
HETATM    1  C   UNL     1     -42.725 -51.541  12.994  1.00  0.00     0.222 C 
HETATM    2  O   UNL     1     -42.752 -51.140  14.159  1.00  0.00    -0.273 OA
HETATM    3  N   UNL     1     -42.332 -50.742  11.944  1.00  0.00    -0.348 N 
HETATM    4  H   UNL     1     -42.036 -51.169  11.071  1.00  0.00     0.163 HD
ENDROOT
BRANCH   1   5
HETATM    5  C   UNL     1     -43.200 -52.928  12.623  1.00  0.00     0.146 C 
BRANCH   5   6
HETATM    6  C   UNL     1     -44.377 -53.444  13.374  1.00  0.00     0.006 A 
HETATM    7  C   UNL     1     -45.771 -53.155  13.263  1.00  0.00     0.038 A 
HETATM    8  C   UNL     1     -46.479 -52.212  12.367  1.00  0.00     0.071 C 
HETATM    9  N   UNL     1     -46.491 -53.895  14.116  1.00  0.00    -0.265 N 
HETATM   10  O   UNL     1     -45.593 -54.700  14.778  1.00  0.00    -0.242 OA
ATOM     11  HN  UNL     1     -47.502 -53.867  14.249  1.00  0.00     0.194 HD
HETATM   12  C   UNL     1     -44.341 -54.442  14.331  1.00  0.00     0.081 A 
HETATM   13  C   UNL     1     -43.260 -55.264  14.911  1.00  0.00     0.079 C 
ENDBRANCH   5   6
ENDBRANCH   1   5
BRANCH   3  14
HETATM   14  C   UNL     1     -41.942 -49.342  12.171  1.00  0.00     0.170 C 
HETATM   15  C   UNL     1     -43.132 -48.419  11.895  1.00  0.00     0.034 C 
HETATM   16  C   UNL     1     -42.913 -47.034  12.498  1.00  0.00     0.004 C 
HETATM   17  C   UNL     1     -42.133 -46.077  11.608  1.00  0.00     0.015 C 
HETATM   18  C   UNL     1     -41.094 -46.700  10.688  1.00  0.00     0.095 C 
HETATM   19  N   UNL     1     -40.245 -47.717  11.275  1.00  0.00    -0.261 NA
HETATM   20  C   UNL     1     -40.664 -49.023  11.373  1.00  0.00     0.220 C 
HETATM   21  H   UNL     1     -39.312 -47.716  10.877  1.00  0.00     0.130 HD
HETATM   22  O   UNL     1     -39.932 -49.913  10.933  1.00  0.00    -0.278 OA
ENDBRANCH   3  14
TORSDOF 3
ENDMDL
MODEL 2
REMARK VINA RESULT:      -5.9      2.367      2.850
REMARK  3 active torsions:
REMARK  status: ('A' for Active; 'I' for Inactive)
REMARK    1  A    between atoms: C_8  and  C_9 
REMARK    2  A    between atoms: C_9  and  C_10 
REMARK       I    between atoms: C_10  and  N_12 
REMARK    3  A    between atoms: N_12  and  C_13 
ROOT
HETATM    1  C   UNL     1     -42.669 -52.243  12.806  1.00  0.00     0.222 C 
HETATM    2  O   UNL     1     -42.726 -51.794  13.951  1.00  0.00    -0.273 OA
HETATM    3  N   UNL     1     -41.614 -51.985  11.960  1.00  0.00    -0.348 N 
HETATM    4  H   UNL     1     -41.448 -52.593  11.163  1.00  0.00     0.163 HD
ENDROOT
BRANCH   1   5
HETATM    5  C   UNL     1     -43.801 -53.054  12.216  1.00  0.00     0.146 C 
BRANCH   5   6
HETATM    6  C   UNL     1     -44.968 -53.302  13.106  1.00  0.00     0.006 A 
HETATM    7  C   UNL     1     -46.279 -52.736  13.128  1.00  0.00     0.038 A 
HETATM    8  C   UNL     1     -46.877 -51.687  12.270  1.00  0.00     0.071 C 
HETATM    9  N   UNL     1     -47.034 -53.294  14.083  1.00  0.00    -0.265 N 
HETATM   10  O   UNL     1     -46.249 -54.252  14.682  1.00  0.00    -0.242 OA
ATOM     11  HN  UNL     1     -47.998 -53.057  14.318  1.00  0.00     0.194 HD
HETATM   12  C   UNL     1     -45.028 -54.265  14.097  1.00  0.00     0.081 A 
HETATM   13  C   UNL     1     -44.077 -55.278  14.597  1.00  0.00     0.079 C 
ENDBRANCH   5   6
ENDBRANCH   1   5
BRANCH   3  14
HETATM   14  C   UNL     1     -40.500 -51.127  12.391  1.00  0.00     0.170 C 
HETATM   15  C   UNL     1     -40.137 -50.145  11.273  1.00  0.00     0.034 C 
HETATM   16  C   UNL     1     -39.292 -48.988  11.801  1.00  0.00     0.004 C 
HETATM   17  C   UNL     1     -37.798 -49.274  11.855  1.00  0.00     0.015 C 
HETATM   18  C   UNL     1     -37.392 -50.718  12.112  1.00  0.00     0.095 C 
HETATM   19  N   UNL     1     -38.121 -51.412  13.154  1.00  0.00    -0.261 NA
HETATM   20  C   UNL     1     -39.339 -51.999  12.900  1.00  0.00     0.220 C 
HETATM   21  H   UNL     1     -37.543 -52.087  13.643  1.00  0.00     0.130 HD
HETATM   22  O   UNL     1     -39.502 -53.181  13.216  1.00  0.00    -0.278 OA
ENDBRANCH   3  14
TORSDOF 3
ENDMDL
MODEL 3
REMARK VINA RESULT:      -5.9      4.262      7.227
REMARK  3 active torsions:
REMARK  status: ('A' for Active; 'I' for Inactive)
REMARK    1  A    between atoms: C_8  and  C_9 
REMARK    2  A    between atoms: C_9  and  C_10 
REMARK       I    between atoms: C_10  and  N_12 
REMARK    3  A    between atoms: N_12  and  C_13 
ROOT
HETATM    1  C   UNL     1     -42.409 -55.200  15.962  1.00  0.00     0.222 C 
HETATM    2  O   UNL     1     -42.739 -56.369  16.162  1.00  0.00    -0.273 OA
HETATM    3  N   UNL     1     -41.101 -54.774  16.041  1.00  0.00    -0.348 N 
HETATM    4  H   UNL     1     -40.827 -53.907  15.588  1.00  0.00     0.163 HD
ENDROOT
BRANCH   1   5
HETATM    5  C   UNL     1     -43.434 -54.122  15.687  1.00  0.00     0.146 C 
BRANCH   5   6
HETATM    6  C   UNL     1     -43.725 -53.840  14.255  1.00  0.00     0.006 A 
HETATM    7  C   UNL     1     -43.037 -53.044  13.289  1.00  0.00     0.038 A 
HETATM    8  C   UNL     1     -41.816 -52.218  13.433  1.00  0.00     0.071 C 
HETATM    9  N   UNL     1     -43.630 -53.112  12.090  1.00  0.00    -0.265 N 
HETATM   10  O   UNL     1     -44.694 -53.972  12.237  1.00  0.00    -0.242 OA
ATOM     11  HN  UNL     1     -43.350 -52.625  11.240  1.00  0.00     0.194 HD
HETATM   12  C   UNL     1     -44.745 -54.413  13.517  1.00  0.00     0.081 A 
HETATM   13  C   UNL     1     -45.809 -55.388  13.829  1.00  0.00     0.079 C 
ENDBRANCH   5   6
ENDBRANCH   1   5
BRANCH   3  14
HETATM   14  C   UNL     1     -40.028 -55.713  16.397  1.00  0.00     0.170 C 
HETATM   15  C   UNL     1     -39.850 -55.749  17.918  1.00  0.00     0.034 C 
HETATM   16  C   UNL     1     -39.060 -56.978  18.358  1.00  0.00     0.004 C 
HETATM   17  C   UNL     1     -37.548 -56.800  18.319  1.00  0.00     0.015 C 
HETATM   18  C   UNL     1     -37.003 -55.862  17.253  1.00  0.00     0.095 C 
HETATM   19  N   UNL     1     -37.574 -55.997  15.928  1.00  0.00    -0.261 NA
HETATM   20  C   UNL     1     -38.756 -55.378  15.597  1.00  0.00     0.220 C 
HETATM   21  H   UNL     1     -36.899 -55.796  15.197  1.00  0.00     0.130 HD
HETATM   22  O   UNL     1     -38.792 -54.675  14.583  1.00  0.00    -0.278 OA
ENDBRANCH   3  14
TORSDOF 3
ENDMDL
MODEL 4
REMARK VINA RESULT:      -5.8      3.675      6.441
REMARK  3 active torsions:
REMARK  status: ('A' for Active; 'I' for Inactive)
REMARK    1  A    between atoms: C_8  and  C_9 
REMARK    2  A    between atoms: C_9  and  C_10 
REMARK       I    between atoms: C_10  and  N_12 
REMARK    3  A    between atoms: N_12  and  C_13 
ROOT
HETATM    1  C   UNL     1     -41.864 -53.583  12.914  1.00  0.00     0.222 C 
HETATM    2  O   UNL     1     -41.963 -52.701  12.061  1.00  0.00    -0.273 OA
HETATM    3  N   UNL     1     -42.935 -54.010  13.668  1.00  0.00    -0.348 N 
HETATM    4  H   UNL     1     -42.897 -54.916  14.128  1.00  0.00     0.163 HD
ENDROOT
BRANCH   1   5
HETATM    5  C   UNL     1     -40.531 -54.214  13.251  1.00  0.00     0.146 C 
BRANCH   5   6
HETATM    6  C   UNL     1     -39.840 -53.687  14.460  1.00  0.00     0.006 A 
HETATM    7  C   UNL     1     -39.633 -54.255  15.754  1.00  0.00     0.038 A 
HETATM    8  C   UNL     1     -40.077 -55.556  16.304  1.00  0.00     0.071 C 
HETATM    9  N   UNL     1     -38.906 -53.442  16.531  1.00  0.00    -0.265 N 
HETATM   10  O   UNL     1     -38.599 -52.346  15.759  1.00  0.00    -0.242 OA
ATOM     11  HN  UNL     1     -38.635 -53.603  17.501  1.00  0.00     0.194 HD
HETATM   12  C   UNL     1     -39.143 -52.495  14.527  1.00  0.00     0.081 A 
HETATM   13  C   UNL     1     -38.862 -51.419  13.556  1.00  0.00     0.079 C 
ENDBRANCH   5   6
ENDBRANCH   1   5
BRANCH   3  14
HETATM   14  C   UNL     1     -44.262 -53.401  13.497  1.00  0.00     0.170 C 
HETATM   15  C   UNL     1     -44.297 -52.029  14.176  1.00  0.00     0.034 C 
HETATM   16  C   UNL     1     -45.480 -51.196  13.689  1.00  0.00     0.004 C 
HETATM   17  C   UNL     1     -46.780 -51.453  14.438  1.00  0.00     0.015 C 
HETATM   18  C   UNL     1     -46.986 -52.861  14.978  1.00  0.00     0.095 C 
HETATM   19  N   UNL     1     -46.647 -53.947  14.080  1.00  0.00    -0.261 NA
HETATM   20  C   UNL     1     -45.350 -54.389  13.957  1.00  0.00     0.220 C 
HETATM   21  H   UNL     1     -47.243 -54.757  14.214  1.00  0.00     0.130 HD
HETATM   22  O   UNL     1     -45.122 -55.594  14.089  1.00  0.00    -0.278 OA
ENDBRANCH   3  14
TORSDOF 3
ENDMDL
MODEL 5
REMARK VINA RESULT:      -5.8      1.484      2.223
REMARK  3 active torsions:
REMARK  status: ('A' for Active; 'I' for Inactive)
REMARK    1  A    between atoms: C_8  and  C_9 
REMARK    2  A    between atoms: C_9  and  C_10 
REMARK       I    between atoms: C_10  and  N_12 
REMARK    3  A    between atoms: N_12  and  C_13 
ROOT
HETATM    1  C   UNL     1     -42.802 -51.584  12.969  1.00  0.00     0.222 C 
HETATM    2  O   UNL     1     -43.030 -51.125  14.088  1.00  0.00    -0.273 OA
HETATM    3  N   UNL     1     -42.239 -50.833  11.960  1.00  0.00    -0.348 N 
HETATM    4  H   UNL     1     -41.795 -51.301  11.175  1.00  0.00     0.163 HD
ENDROOT
BRANCH   1   5
HETATM    5  C   UNL     1     -43.197 -52.995  12.596  1.00  0.00     0.146 C 
BRANCH   5   6
HETATM    6  C   UNL     1     -43.097 -54.015  13.676  1.00  0.00     0.006 A 
HETATM    7  C   UNL     1     -41.996 -54.433  14.484  1.00  0.00     0.038 A 
HETATM    8  C   UNL     1     -40.584 -53.989  14.470  1.00  0.00     0.071 C 
HETATM    9  N   UNL     1     -42.372 -55.356  15.379  1.00  0.00    -0.265 N 
HETATM   10  O   UNL     1     -43.724 -55.538  15.197  1.00  0.00    -0.242 OA
ATOM     11  HN  UNL     1     -41.777 -55.828  16.058  1.00  0.00     0.194 HD
HETATM   12  C   UNL     1     -44.157 -54.735  14.196  1.00  0.00     0.081 A 
HETATM   13  C   UNL     1     -45.604 -54.777  13.907  1.00  0.00     0.079 C 
ENDBRANCH   5   6
ENDBRANCH   1   5
BRANCH   3  14
HETATM   14  C   UNL     1     -41.902 -49.419  12.176  1.00  0.00     0.170 C 
HETATM   15  C   UNL     1     -43.113 -48.540  11.851  1.00  0.00     0.034 C 
HETATM   16  C   UNL     1     -42.958 -47.139  12.438  1.00  0.00     0.004 C 
HETATM   17  C   UNL     1     -42.183 -46.170  11.556  1.00  0.00     0.015 C 
HETATM   18  C   UNL     1     -41.097 -46.772  10.677  1.00  0.00     0.095 C 
HETATM   19  N   UNL     1     -40.234 -47.751  11.306  1.00  0.00    -0.261 NA
HETATM   20  C   UNL     1     -40.612 -49.069  11.412  1.00  0.00     0.220 C 
HETATM   21  H   UNL     1     -39.290 -47.724  10.936  1.00  0.00     0.130 HD
HETATM   22  O   UNL     1     -39.838 -49.940  11.008  1.00  0.00    -0.278 OA
ENDBRANCH   3  14
TORSDOF 3
ENDMDL
MODEL 6
REMARK VINA RESULT:      -5.7      2.299      3.128
REMARK  3 active torsions:
REMARK  status: ('A' for Active; 'I' for Inactive)
REMARK    1  A    between atoms: C_8  and  C_9 
REMARK    2  A    between atoms: C_9  and  C_10 
REMARK       I    between atoms: C_10  and  N_12 
REMARK    3  A    between atoms: N_12  and  C_13 
ROOT
HETATM    1  C   UNL     1     -43.245 -50.888  14.021  1.00  0.00     0.222 C 
HETATM    2  O   UNL     1     -42.892 -50.979  15.197  1.00  0.00    -0.273 OA
HETATM    3  N   UNL     1     -42.352 -50.693  12.991  1.00  0.00    -0.348 N 
HETATM    4  H   UNL     1     -42.625 -50.921  12.039  1.00  0.00     0.163 HD
ENDROOT
BRANCH   1   5
HETATM    5  C   UNL     1     -44.706 -50.908  13.629  1.00  0.00     0.146 C 
BRANCH   5   6
HETATM    6  C   UNL     1     -45.434 -52.185  13.866  1.00  0.00     0.006 A 
HETATM    7  C   UNL     1     -45.193 -53.513  13.400  1.00  0.00     0.038 A 
HETATM    8  C   UNL     1     -44.137 -54.027  12.497  1.00  0.00     0.071 C 
HETATM    9  N   UNL     1     -46.081 -54.376  13.908  1.00  0.00    -0.265 N 
HETATM   10  O   UNL     1     -46.900 -53.642  14.735  1.00  0.00    -0.242 OA
ATOM     11  HN  UNL     1     -46.140 -55.376  13.720  1.00  0.00     0.194 HD
HETATM   12  C   UNL     1     -46.510 -52.345  14.720  1.00  0.00     0.081 A 
HETATM   13  C   UNL     1     -47.263 -51.428  15.600  1.00  0.00     0.079 C 
ENDBRANCH   5   6
ENDBRANCH   1   5
BRANCH   3  14
HETATM   14  C   UNL     1     -40.913 -50.560  13.262  1.00  0.00     0.170 C 
HETATM   15  C   UNL     1     -40.477 -49.106  13.058  1.00  0.00     0.034 C 
HETATM   16  C   UNL     1     -39.124 -48.834  13.709  1.00  0.00     0.004 C 
HETATM   17  C   UNL     1     -37.926 -49.177  12.834  1.00  0.00     0.015 C 
HETATM   18  C   UNL     1     -38.105 -50.332  11.860  1.00  0.00     0.095 C 
HETATM   19  N   UNL     1     -38.760 -51.514  12.382  1.00  0.00    -0.261 NA
HETATM   20  C   UNL     1     -40.131 -51.600  12.440  1.00  0.00     0.220 C 
HETATM   21  H   UNL     1     -38.409 -52.366  11.957  1.00  0.00     0.130 HD
HETATM   22  O   UNL     1     -40.683 -52.586  11.944  1.00  0.00    -0.278 OA
ENDBRANCH   3  14
TORSDOF 3
ENDMDL
MODEL 7
REMARK VINA RESULT:      -5.7      3.798      6.191
REMARK  3 active torsions:
REMARK  status: ('A' for Active; 'I' for Inactive)
REMARK    1  A    between atoms: C_8  and  C_9 
REMARK    2  A    between atoms: C_9  and  C_10 
REMARK       I    between atoms: C_10  and  N_12 
REMARK    3  A    between atoms: N_12  and  C_13 
ROOT
HETATM    1  C   UNL     1     -42.867 -53.220  13.866  1.00  0.00     0.222 C 
HETATM    2  O   UNL     1     -43.454 -54.275  13.621  1.00  0.00    -0.273 OA
HETATM    3  N   UNL     1     -41.618 -53.184  14.444  1.00  0.00    -0.348 N 
HETATM    4  H   UNL     1     -41.048 -52.347  14.357  1.00  0.00     0.163 HD
ENDROOT
BRANCH   1   5
HETATM    5  C   UNL     1     -43.516 -51.877  13.618  1.00  0.00     0.146 C 
BRANCH   5   6
HETATM    6  C   UNL     1     -44.789 -51.616  14.344  1.00  0.00     0.006 A 
HETATM    7  C   UNL     1     -45.050 -51.288  15.709  1.00  0.00     0.038 A 
HETATM    8  C   UNL     1     -44.113 -51.133  16.846  1.00  0.00     0.071 C 
HETATM    9  N   UNL     1     -46.357 -51.088  15.921  1.00  0.00    -0.265 N 
HETATM   10  O   UNL     1     -46.972 -51.249  14.701  1.00  0.00    -0.242 OA
ATOM     11  HN  UNL     1     -46.806 -50.861  16.808  1.00  0.00     0.194 HD
HETATM   12  C   UNL     1     -46.043 -51.552  13.763  1.00  0.00     0.081 A 
HETATM   13  C   UNL     1     -46.539 -51.710  12.382  1.00  0.00     0.079 C 
ENDBRANCH   5   6
ENDBRANCH   1   5
BRANCH   3  14
HETATM   14  C   UNL     1     -40.929 -54.427  14.820  1.00  0.00     0.170 C 
HETATM   15  C   UNL     1     -41.052 -54.654  16.330  1.00  0.00     0.034 C 
HETATM   16  C   UNL     1     -40.726 -56.097  16.704  1.00  0.00     0.004 C 
HETATM   17  C   UNL     1     -39.243 -56.371  16.918  1.00  0.00     0.015 C 
HETATM   18  C   UNL     1     -38.273 -55.540  16.090  1.00  0.00     0.095 C 
HETATM   19  N   UNL     1     -38.604 -55.377  14.689  1.00  0.00    -0.261 NA
HETATM   20  C   UNL     1     -39.489 -54.408  14.275  1.00  0.00     0.220 C 
HETATM   21  H   UNL     1     -37.778 -55.318  14.103  1.00  0.00     0.130 HD
HETATM   22  O   UNL     1     -39.142 -53.635  13.379  1.00  0.00    -0.278 OA
ENDBRANCH   3  14
TORSDOF 3
ENDMDL
MODEL 8
REMARK VINA RESULT:      -5.6      3.026      6.570
REMARK  3 active torsions:
REMARK  status: ('A' for Active; 'I' for Inactive)
REMARK    1  A    between atoms: C_8  and  C_9 
REMARK    2  A    between atoms: C_9  and  C_10 
REMARK       I    between atoms: C_10  and  N_12 
REMARK    3  A    between atoms: N_12  and  C_13 
ROOT
HETATM    1  C   UNL     1     -41.806 -51.742  12.606  1.00  0.00     0.222 C 
HETATM    2  O   UNL     1     -42.149 -50.629  12.206  1.00  0.00    -0.273 OA
HETATM    3  N   UNL     1     -42.691 -52.631  13.175  1.00  0.00    -0.348 N 
HETATM    4  H   UNL     1     -42.456 -53.619  13.212  1.00  0.00     0.163 HD
ENDROOT
BRANCH   1   5
HETATM    5  C   UNL     1     -40.361 -52.186  12.570  1.00  0.00     0.146 C 
BRANCH   5   6
HETATM    6  C   UNL     1     -39.412 -51.408  13.413  1.00  0.00     0.006 A 
HETATM    7  C   UNL     1     -39.104 -51.481  14.805  1.00  0.00     0.038 A 
HETATM    8  C   UNL     1     -39.671 -52.352  15.860  1.00  0.00     0.071 C 
HETATM    9  N   UNL     1     -38.139 -50.614  15.136  1.00  0.00    -0.265 N 
HETATM   10  O   UNL     1     -37.775 -49.981  13.970  1.00  0.00    -0.242 OA
ATOM     11  HN  UNL     1     -37.751 -50.455  16.066  1.00  0.00     0.194 HD
HETATM   12  C   UNL     1     -38.521 -50.459  12.946  1.00  0.00     0.081 A 
HETATM   13  C   UNL     1     -38.217 -49.912  11.608  1.00  0.00     0.079 C 
ENDBRANCH   5   6
ENDBRANCH   1   5
BRANCH   3  14
HETATM   14  C   UNL     1     -44.106 -52.272  13.352  1.00  0.00     0.170 C 
HETATM   15  C   UNL     1     -44.336 -51.752  14.774  1.00  0.00     0.034 C 
HETATM   16  C   UNL     1     -45.657 -50.995  14.883  1.00  0.00     0.004 C 
HETATM   17  C   UNL     1     -46.868 -51.879  15.151  1.00  0.00     0.015 C 
HETATM   18  C   UNL     1     -46.820 -53.288  14.577  1.00  0.00     0.095 C 
HETATM   19  N   UNL     1     -46.344 -53.408  13.214  1.00  0.00    -0.261 NA
HETATM   20  C   UNL     1     -44.999 -53.453  12.932  1.00  0.00     0.220 C 
HETATM   21  H   UNL     1     -46.795 -54.168  12.716  1.00  0.00     0.130 HD
HETATM   22  O   UNL     1     -44.572 -54.375  12.232  1.00  0.00    -0.278 OA
ENDBRANCH   3  14
TORSDOF 3
ENDMDL
MODEL 9
REMARK VINA RESULT:      -5.4      1.847      2.084
REMARK  3 active torsions:
REMARK  status: ('A' for Active; 'I' for Inactive)
REMARK    1  A    between atoms: C_8  and  C_9 
REMARK    2  A    between atoms: C_9  and  C_10 
REMARK       I    between atoms: C_10  and  N_12 
REMARK    3  A    between atoms: N_12  and  C_13 
ROOT
HETATM    1  C   UNL     1     -42.019 -51.040  12.409  1.00  0.00     0.222 C 
HETATM    2  O   UNL     1     -42.437 -50.637  13.495  1.00  0.00    -0.273 OA
HETATM    3  N   UNL     1     -41.563 -50.189  11.428  1.00  0.00    -0.348 N 
HETATM    4  H   UNL     1     -40.961 -50.548  10.692  1.00  0.00     0.163 HD
ENDROOT
BRANCH   1   5
HETATM    5  C   UNL     1     -42.049 -52.508  12.045  1.00  0.00     0.146 C 
BRANCH   5   6
HETATM    6  C   UNL     1     -42.325 -53.457  13.159  1.00  0.00     0.006 A 
HETATM    7  C   UNL     1     -43.542 -54.043  13.623  1.00  0.00     0.038 A 
HETATM    8  C   UNL     1     -44.930 -53.856  13.144  1.00  0.00     0.071 C 
HETATM    9  N   UNL     1     -43.318 -54.891  14.635  1.00  0.00    -0.265 N 
HETATM   10  O   UNL     1     -41.957 -54.902  14.833  1.00  0.00    -0.242 OA
ATOM     11  HN  UNL     1     -44.016 -55.423  15.154  1.00  0.00     0.194 HD
HETATM   12  C   UNL     1     -41.366 -54.061  13.951  1.00  0.00     0.081 A 
HETATM   13  C   UNL     1     -39.891 -53.994  14.002  1.00  0.00     0.079 C 
ENDBRANCH   5   6
ENDBRANCH   1   5
BRANCH   3  14
HETATM   14  C   UNL     1     -41.578 -48.733  11.630  1.00  0.00     0.170 C 
HETATM   15  C   UNL     1     -42.346 -48.057  10.491  1.00  0.00     0.034 C 
HETATM   16  C   UNL     1     -42.741 -46.628  10.857  1.00  0.00     0.004 C 
HETATM   17  C   UNL     1     -41.666 -45.588  10.574  1.00  0.00     0.015 C 
HETATM   18  C   UNL     1     -40.222 -46.053  10.693  1.00  0.00     0.095 C 
HETATM   19  N   UNL     1     -39.905 -46.869  11.847  1.00  0.00    -0.261 NA
HETATM   20  C   UNL     1     -40.142 -48.224  11.847  1.00  0.00     0.220 C 
HETATM   21  H   UNL     1     -38.958 -46.716  12.177  1.00  0.00     0.130 HD
HETATM   22  O   UNL     1     -39.221 -48.984  12.154  1.00  0.00    -0.278 OA
ENDBRANCH   3  14
TORSDOF 3
ENDMDL
