MODEL 1
REMARK VINA RESULT:      -6.5      0.000      0.000
REMARK  3 active torsions:
REMARK  status: ('A' for Active; 'I' for Inactive)
REMARK    1  A    between atoms: C_2  and  N_3 
REMARK    2  A    between atoms: C_5  and  N_6 
REMARK       I    between atoms: N_6  and  C_7 
REMARK       I    between atoms: C_7  and  N_9 
REMARK    3  A    between atoms: N_9  and  C_10 
ROOT
HETATM    1  N   UNL     1     -41.984 -48.215   9.496  1.00  0.00    -0.306 N 
HETATM    2  C   UNL     1     -41.452 -48.517  10.725  1.00  0.00     0.321 C 
HETATM    3  O   UNL     1     -41.858 -48.100  11.805  1.00  0.00    -0.247 OA
HETATM    4  N   UNL     1     -40.363 -49.357  10.662  1.00  0.00    -0.337 N 
HETATM    5  H   UNL     1     -41.542 -48.566   8.661  1.00  0.00     0.171 HD
HETATM    6  H   UNL     1     -40.140 -49.812   9.788  1.00  0.00     0.164 HD
ENDROOT
BRANCH   1   7
HETATM    7  C   UNL     1     -43.080 -47.382   9.333  1.00  0.00     0.070 A 
HETATM    8  C   UNL     1     -44.396 -47.752   9.197  1.00  0.00     0.141 A 
HETATM    9  N   UNL     1     -45.118 -46.603   9.087  1.00  0.00    -0.302 N 
HETATM   10  N   UNL     1     -44.358 -45.491   9.121  1.00  0.00    -0.308 N 
HETATM   11  C   UNL     1     -43.117 -45.971   9.272  1.00  0.00     0.138 A 
ATOM     12  HN  UNL     1     -44.657 -44.518   9.047  1.00  0.00     0.186 HD
BRANCH   9  13
HETATM   13  C   UNL     1     -46.559 -46.525   8.969  1.00  0.00     0.143 C 
HETATM   14  C   UNL     1     -47.216 -47.891   9.068  1.00  0.00     0.028 C 
ENDBRANCH   9  13
ENDBRANCH   1   7
BRANCH   4  15
HETATM   15  C   UNL     1     -39.686 -49.795  11.880  1.00  0.00     0.101 C 
HETATM   16  C   UNL     1     -38.147 -49.783  11.756  1.00  0.00     0.041 C 
HETATM   17  C   UNL     1     -37.539 -50.782  12.739  1.00  0.00     0.142 C 
HETATM   18  S   UNL     1     -38.886 -51.628  13.532  1.00  0.00     0.146 S 
HETATM   19  O   UNL     1     -38.657 -53.056  13.488  1.00  0.00    -0.228 OA
HETATM   20  O   UNL     1     -39.192 -50.938  14.770  1.00  0.00    -0.228 OA
HETATM   21  C   UNL     1     -40.119 -51.186  12.345  1.00  0.00     0.165 C 
ENDBRANCH   4  15
TORSDOF 3
ENDMDL
MODEL 2
REMARK VINA RESULT:      -5.9      4.150      5.547
REMARK  3 active torsions:
REMARK  status: ('A' for Active; 'I' for Inactive)
REMARK    1  A    between atoms: C_2  and  N_3 
REMARK    2  A    between atoms: C_5  and  N_6 
REMARK       I    between atoms: N_6  and  C_7 
REMARK       I    between atoms: C_7  and  N_9 
REMARK    3  A    between atoms: N_9  and  C_10 
ROOT
HETATM    1  N   UNL     1     -41.548 -50.463  11.311  1.00  0.00    -0.306 N 
HETATM    2  C   UNL     1     -42.188 -50.941  12.428  1.00  0.00     0.321 C 
HETATM    3  O   UNL     1     -42.351 -50.330  13.479  1.00  0.00    -0.247 OA
HETATM    4  N   UNL     1     -42.652 -52.230  12.287  1.00  0.00    -0.337 N 
HETATM    5  H   UNL     1     -41.418 -51.066  10.514  1.00  0.00     0.171 HD
HETATM    6  H   UNL     1     -42.647 -52.660  11.373  1.00  0.00     0.164 HD
ENDROOT
BRANCH   1   7
HETATM    7  C   UNL     1     -41.002 -49.190  11.241  1.00  0.00     0.070 A 
HETATM    8  C   UNL     1     -41.585 -48.059  10.724  1.00  0.00     0.141 A 
HETATM    9  N   UNL     1     -40.692 -47.046  10.890  1.00  0.00    -0.302 N 
HETATM   10  N   UNL     1     -39.541 -47.440  11.468  1.00  0.00    -0.308 N 
HETATM   11  C   UNL     1     -39.735 -48.747  11.682  1.00  0.00     0.138 A 
ATOM     12  HN  UNL     1     -38.719 -46.877  11.689  1.00  0.00     0.186 HD
BRANCH   9  13
HETATM   13  C   UNL     1     -40.914 -45.663  10.524  1.00  0.00     0.143 C 
HETATM   14  C   UNL     1     -39.621 -44.948  10.176  1.00  0.00     0.028 C 
ENDBRANCH   9  13
ENDBRANCH   1   7
BRANCH   4  15
HETATM   15  C   UNL     1     -43.373 -52.888  13.374  1.00  0.00     0.101 C 
HETATM   16  C   UNL     1     -42.524 -53.946  14.112  1.00  0.00     0.041 C 
HETATM   17  C   UNL     1     -43.439 -54.984  14.759  1.00  0.00     0.142 C 
HETATM   18  S   UNL     1     -45.105 -54.591  14.282  1.00  0.00     0.146 S 
HETATM   19  O   UNL     1     -45.765 -55.782  13.792  1.00  0.00    -0.228 OA
HETATM   20  O   UNL     1     -45.692 -53.759  15.314  1.00  0.00    -0.228 OA
HETATM   21  C   UNL     1     -44.676 -53.546  12.921  1.00  0.00     0.165 C 
ENDBRANCH   4  15
TORSDOF 3
ENDMDL
MODEL 3
REMARK VINA RESULT:      -5.6      3.988      6.952
REMARK  3 active torsions:
REMARK  status: ('A' for Active; 'I' for Inactive)
REMARK    1  A    between atoms: C_2  and  N_3 
REMARK    2  A    between atoms: C_5  and  N_6 
REMARK       I    between atoms: N_6  and  C_7 
REMARK       I    between atoms: C_7  and  N_9 
REMARK    3  A    between atoms: N_9  and  C_10 
ROOT
HETATM    1  N   UNL     1     -41.878 -51.545  11.751  1.00  0.00    -0.306 N 
HETATM    2  C   UNL     1     -42.079 -50.228  12.081  1.00  0.00     0.321 C 
HETATM    3  O   UNL     1     -42.459 -49.810  13.170  1.00  0.00    -0.247 OA
HETATM    4  N   UNL     1     -41.824 -49.356  11.046  1.00  0.00    -0.337 N 
HETATM    5  H   UNL     1     -41.618 -51.790  10.808  1.00  0.00     0.171 HD
HETATM    6  H   UNL     1     -41.368 -49.698  10.213  1.00  0.00     0.164 HD
ENDROOT
BRANCH   1   7
HETATM    7  C   UNL     1     -42.082 -52.586  12.644  1.00  0.00     0.070 A 
HETATM    8  C   UNL     1     -43.282 -53.132  13.030  1.00  0.00     0.141 A 
HETATM    9  N   UNL     1     -42.994 -54.138  13.899  1.00  0.00    -0.302 N 
HETATM   10  N   UNL     1     -41.675 -54.280  14.132  1.00  0.00    -0.308 N 
HETATM   11  C   UNL     1     -41.123 -53.333  13.364  1.00  0.00     0.138 A 
ATOM     12  HN  UNL     1     -41.209 -54.949  14.747  1.00  0.00     0.186 HD
BRANCH   9  13
HETATM   13  C   UNL     1     -43.966 -55.014  14.521  1.00  0.00     0.143 C 
HETATM   14  C   UNL     1     -45.273 -55.059  13.749  1.00  0.00     0.028 C 
ENDBRANCH   9  13
ENDBRANCH   1   7
BRANCH   4  15
HETATM   15  C   UNL     1     -41.970 -47.914  11.230  1.00  0.00     0.101 C 
HETATM   16  C   UNL     1     -43.072 -47.298  10.341  1.00  0.00     0.041 C 
HETATM   17  C   UNL     1     -42.777 -45.818  10.101  1.00  0.00     0.142 C 
HETATM   18  S   UNL     1     -41.210 -45.462  10.860  1.00  0.00     0.146 S 
HETATM   19  O   UNL     1     -40.366 -44.753   9.923  1.00  0.00    -0.228 OA
HETATM   20  O   UNL     1     -41.454 -44.965  12.200  1.00  0.00    -0.228 OA
HETATM   21  C   UNL     1     -40.672 -47.141  10.993  1.00  0.00     0.165 C 
ENDBRANCH   4  15
TORSDOF 3
ENDMDL
MODEL 4
REMARK VINA RESULT:      -5.4      3.611      7.585
REMARK  3 active torsions:
REMARK  status: ('A' for Active; 'I' for Inactive)
REMARK    1  A    between atoms: C_2  and  N_3 
REMARK    2  A    between atoms: C_5  and  N_6 
REMARK       I    between atoms: N_6  and  C_7 
REMARK       I    between atoms: C_7  and  N_9 
REMARK    3  A    between atoms: N_9  and  C_10 
ROOT
HETATM    1  N   UNL     1     -40.859 -51.562  11.637  1.00  0.00    -0.306 N 
HETATM    2  C   UNL     1     -41.395 -50.323  11.887  1.00  0.00     0.321 C 
HETATM    3  O   UNL     1     -41.910 -49.962  12.941  1.00  0.00    -0.247 OA
HETATM    4  N   UNL     1     -41.325 -49.466  10.812  1.00  0.00    -0.337 N 
HETATM    5  H   UNL     1     -40.509 -51.778  10.717  1.00  0.00     0.171 HD
HETATM    6  H   UNL     1     -40.765 -49.723  10.011  1.00  0.00     0.164 HD
ENDROOT
BRANCH   1   7
HETATM    7  C   UNL     1     -40.832 -52.576  12.582  1.00  0.00     0.070 A 
HETATM    8  C   UNL     1     -39.821 -52.866  13.466  1.00  0.00     0.141 A 
HETATM    9  N   UNL     1     -40.243 -53.924  14.211  1.00  0.00    -0.302 N 
HETATM   10  N   UNL     1     -41.465 -54.369  13.862  1.00  0.00    -0.308 N 
HETATM   11  C   UNL     1     -41.821 -53.544  12.870  1.00  0.00     0.138 A 
ATOM     12  HN  UNL     1     -41.992 -55.148  14.258  1.00  0.00     0.186 HD
BRANCH   9  13
HETATM   13  C   UNL     1     -39.504 -54.533  15.298  1.00  0.00     0.143 C 
HETATM   14  C   UNL     1     -40.384 -55.413  16.167  1.00  0.00     0.028 C 
ENDBRANCH   9  13
ENDBRANCH   1   7
BRANCH   4  15
HETATM   15  C   UNL     1     -41.833 -48.100  10.910  1.00  0.00     0.101 C 
HETATM   16  C   UNL     1     -42.778 -47.720   9.750  1.00  0.00     0.041 C 
HETATM   17  C   UNL     1     -42.771 -46.205   9.552  1.00  0.00     0.142 C 
HETATM   18  S   UNL     1     -41.574 -45.530  10.678  1.00  0.00     0.146 S 
HETATM   19  O   UNL     1     -40.698 -44.621   9.970  1.00  0.00    -0.228 OA
HETATM   20  O   UNL     1     -42.259 -45.142  11.895  1.00  0.00    -0.228 OA
HETATM   21  C   UNL     1     -40.726 -47.049  10.993  1.00  0.00     0.165 C 
ENDBRANCH   4  15
TORSDOF 3
ENDMDL
MODEL 5
REMARK VINA RESULT:      -5.2      4.335      6.269
REMARK  3 active torsions:
REMARK  status: ('A' for Active; 'I' for Inactive)
REMARK    1  A    between atoms: C_2  and  N_3 
REMARK    2  A    between atoms: C_5  and  N_6 
REMARK       I    between atoms: N_6  and  C_7 
REMARK       I    between atoms: C_7  and  N_9 
REMARK    3  A    between atoms: N_9  and  C_10 
ROOT
HETATM    1  N   UNL     1     -41.309 -51.312  11.430  1.00  0.00    -0.306 N 
HETATM    2  C   UNL     1     -42.301 -51.825  12.229  1.00  0.00     0.321 C 
HETATM    3  O   UNL     1     -42.628 -51.398  13.331  1.00  0.00    -0.247 OA
HETATM    4  N   UNL     1     -42.932 -52.921  11.686  1.00  0.00    -0.337 N 
HETATM    5  H   UNL     1     -41.079 -51.771  10.563  1.00  0.00     0.171 HD
HETATM    6  H   UNL     1     -42.760 -53.164  10.721  1.00  0.00     0.164 HD
ENDROOT
BRANCH   1   7
HETATM    7  C   UNL     1     -40.545 -50.211  11.789  1.00  0.00     0.070 A 
HETATM    8  C   UNL     1     -40.827 -48.888  11.554  1.00  0.00     0.141 A 
HETATM    9  N   UNL     1     -39.812 -48.167  12.102  1.00  0.00    -0.302 N 
HETATM   10  N   UNL     1     -38.860 -48.933  12.670  1.00  0.00    -0.308 N 
HETATM   11  C   UNL     1     -39.312 -50.178  12.478  1.00  0.00     0.138 A 
ATOM     12  HN  UNL     1     -38.001 -48.635  13.134  1.00  0.00     0.186 HD
BRANCH   9  13
HETATM   13  C   UNL     1     -39.725 -46.721  12.123  1.00  0.00     0.143 C 
HETATM   14  C   UNL     1     -40.160 -46.102  10.806  1.00  0.00     0.028 C 
ENDBRANCH   9  13
ENDBRANCH   1   7
BRANCH   4  15
HETATM   15  C   UNL     1     -44.026 -53.582  12.396  1.00  0.00     0.101 C 
HETATM   16  C   UNL     1     -45.215 -52.641  12.686  1.00  0.00     0.041 C 
HETATM   17  C   UNL     1     -45.993 -53.149  13.899  1.00  0.00     0.142 C 
HETATM   18  S   UNL     1     -45.116 -54.557  14.537  1.00  0.00     0.146 S 
HETATM   19  O   UNL     1     -44.940 -54.413  15.966  1.00  0.00    -0.228 OA
HETATM   20  O   UNL     1     -45.687 -55.754  13.952  1.00  0.00    -0.228 OA
HETATM   21  C   UNL     1     -43.588 -54.225  13.713  1.00  0.00     0.165 C 
ENDBRANCH   4  15
TORSDOF 3
ENDMDL
MODEL 6
REMARK VINA RESULT:      -5.2      4.528      7.031
REMARK  3 active torsions:
REMARK  status: ('A' for Active; 'I' for Inactive)
REMARK    1  A    between atoms: C_2  and  N_3 
REMARK    2  A    between atoms: C_5  and  N_6 
REMARK       I    between atoms: N_6  and  C_7 
REMARK       I    between atoms: C_7  and  N_9 
REMARK    3  A    between atoms: N_9  and  C_10 
ROOT
HETATM    1  N   UNL     1     -41.451 -51.811  11.492  1.00  0.00    -0.306 N 
HETATM    2  C   UNL     1     -42.512 -52.110  12.310  1.00  0.00     0.321 C 
HETATM    3  O   UNL     1     -42.809 -51.522  13.345  1.00  0.00    -0.247 OA
HETATM    4  N   UNL     1     -43.258 -53.182  11.873  1.00  0.00    -0.337 N 
HETATM    5  H   UNL     1     -41.259 -52.392  10.691  1.00  0.00     0.171 HD
HETATM    6  H   UNL     1     -43.095 -53.554  10.948  1.00  0.00     0.164 HD
ENDROOT
BRANCH   1   7
HETATM    7  C   UNL     1     -40.569 -50.772  11.750  1.00  0.00     0.070 A 
HETATM    8  C   UNL     1     -39.606 -50.718  12.728  1.00  0.00     0.141 A 
HETATM    9  N   UNL     1     -38.972 -49.523  12.588  1.00  0.00    -0.302 N 
HETATM   10  N   UNL     1     -39.469 -48.768  11.589  1.00  0.00    -0.308 N 
HETATM   11  C   UNL     1     -40.442 -49.535  11.080  1.00  0.00     0.138 A 
ATOM     12  HN  UNL     1     -39.176 -47.837  11.293  1.00  0.00     0.186 HD
BRANCH   9  13
HETATM   13  C   UNL     1     -37.854 -49.067  13.389  1.00  0.00     0.143 C 
HETATM   14  C   UNL     1     -37.297 -50.168  14.274  1.00  0.00     0.028 C 
ENDBRANCH   9  13
ENDBRANCH   1   7
BRANCH   4  15
HETATM   15  C   UNL     1     -44.436 -53.625  12.616  1.00  0.00     0.101 C 
HETATM   16  C   UNL     1     -45.544 -52.552  12.689  1.00  0.00     0.041 C 
HETATM   17  C   UNL     1     -46.415 -52.791  13.922  1.00  0.00     0.142 C 
HETATM   18  S   UNL     1     -45.700 -54.148  14.819  1.00  0.00     0.146 S 
HETATM   19  O   UNL     1     -45.570 -53.793  16.216  1.00  0.00    -0.228 OA
HETATM   20  O   UNL     1     -46.355 -55.371  14.396  1.00  0.00    -0.228 OA
HETATM   21  C   UNL     1     -44.115 -54.083  14.039  1.00  0.00     0.165 C 
ENDBRANCH   4  15
TORSDOF 3
ENDMDL
MODEL 7
REMARK VINA RESULT:      -5.0      4.116      7.419
REMARK  3 active torsions:
REMARK  status: ('A' for Active; 'I' for Inactive)
REMARK    1  A    between atoms: C_2  and  N_3 
REMARK    2  A    between atoms: C_5  and  N_6 
REMARK       I    between atoms: N_6  and  C_7 
REMARK       I    between atoms: C_7  and  N_9 
REMARK    3  A    between atoms: N_9  and  C_10 
ROOT
HETATM    1  N   UNL     1     -41.127 -50.205  12.979  1.00  0.00    -0.306 N 
HETATM    2  C   UNL     1     -40.404 -49.265  12.288  1.00  0.00     0.321 C 
HETATM    3  O   UNL     1     -39.439 -49.489  11.565  1.00  0.00    -0.247 OA
HETATM    4  N   UNL     1     -40.852 -47.976  12.479  1.00  0.00    -0.337 N 
HETATM    5  H   UNL     1     -41.872 -49.911  13.592  1.00  0.00     0.171 HD
HETATM    6  H   UNL     1     -41.734 -47.824  12.948  1.00  0.00     0.164 HD
ENDROOT
BRANCH   1   7
HETATM    7  C   UNL     1     -40.842 -51.561  12.930  1.00  0.00     0.070 A 
HETATM    8  C   UNL     1     -40.045 -52.277  13.790  1.00  0.00     0.141 A 
HETATM    9  N   UNL     1     -40.076 -53.570  13.369  1.00  0.00    -0.302 N 
HETATM   10  N   UNL     1     -40.829 -53.754  12.267  1.00  0.00    -0.308 N 
HETATM   11  C   UNL     1     -41.295 -52.527  12.004  1.00  0.00     0.138 A 
ATOM     12  HN  UNL     1     -41.002 -54.620  11.755  1.00  0.00     0.186 HD
BRANCH   9  13
HETATM   13  C   UNL     1     -39.406 -54.680  14.015  1.00  0.00     0.143 C 
HETATM   14  C   UNL     1     -39.144 -54.413  15.487  1.00  0.00     0.028 C 
ENDBRANCH   9  13
ENDBRANCH   1   7
BRANCH   4  15
HETATM   15  C   UNL     1     -40.207 -46.853  11.804  1.00  0.00     0.101 C 
HETATM   16  C   UNL     1     -39.428 -45.932  12.768  1.00  0.00     0.041 C 
HETATM   17  C   UNL     1     -39.323 -44.529  12.172  1.00  0.00     0.142 C 
HETATM   18  S   UNL     1     -40.255 -44.526  10.660  1.00  0.00     0.146 S 
HETATM   19  O   UNL     1     -41.143 -43.383  10.638  1.00  0.00    -0.228 OA
HETATM   20  O   UNL     1     -39.350 -44.815   9.565  1.00  0.00    -0.228 OA
HETATM   21  C   UNL     1     -41.182 -45.992  10.999  1.00  0.00     0.165 C 
ENDBRANCH   4  15
TORSDOF 3
ENDMDL
MODEL 8
REMARK VINA RESULT:      -4.9      4.574      6.514
REMARK  3 active torsions:
REMARK  status: ('A' for Active; 'I' for Inactive)
REMARK    1  A    between atoms: C_2  and  N_3 
REMARK    2  A    between atoms: C_5  and  N_6 
REMARK       I    between atoms: N_6  and  C_7 
REMARK       I    between atoms: C_7  and  N_9 
REMARK    3  A    between atoms: N_9  and  C_10 
ROOT
HETATM    1  N   UNL     1     -41.849 -49.498  13.025  1.00  0.00    -0.306 N 
HETATM    2  C   UNL     1     -41.927 -48.454  12.137  1.00  0.00     0.321 C 
HETATM    3  O   UNL     1     -42.526 -48.464  11.066  1.00  0.00    -0.247 OA
HETATM    4  N   UNL     1     -41.239 -47.333  12.544  1.00  0.00    -0.337 N 
HETATM    5  H   UNL     1     -41.284 -49.407  13.854  1.00  0.00     0.171 HD
HETATM    6  H   UNL     1     -40.885 -47.286  13.489  1.00  0.00     0.164 HD
ENDROOT
BRANCH   1   7
HETATM    7  C   UNL     1     -42.465 -50.721  12.806  1.00  0.00     0.070 A 
HETATM    8  C   UNL     1     -43.712 -51.114  13.228  1.00  0.00     0.141 A 
HETATM    9  N   UNL     1     -43.903 -52.379  12.765  1.00  0.00    -0.302 N 
HETATM   10  N   UNL     1     -42.848 -52.859  12.078  1.00  0.00    -0.308 N 
HETATM   11  C   UNL     1     -41.976 -51.845  12.104  1.00  0.00     0.138 A 
ATOM     12  HN  UNL     1     -42.741 -53.776  11.643  1.00  0.00     0.186 HD
BRANCH   9  13
HETATM   13  C   UNL     1     -45.105 -53.165  12.943  1.00  0.00     0.143 C 
HETATM   14  C   UNL     1     -44.813 -54.534  13.531  1.00  0.00     0.028 C 
ENDBRANCH   9  13
ENDBRANCH   1   7
BRANCH   4  15
HETATM   15  C   UNL     1     -41.231 -46.122  11.726  1.00  0.00     0.101 C 
HETATM   16  C   UNL     1     -40.012 -46.036  10.783  1.00  0.00     0.041 C 
HETATM   17  C   UNL     1     -39.720 -44.574  10.446  1.00  0.00     0.142 C 
HETATM   18  S   UNL     1     -40.850 -43.579  11.390  1.00  0.00     0.146 S 
HETATM   19  O   UNL     1     -40.122 -42.526  12.067  1.00  0.00    -0.228 OA
HETATM   20  O   UNL     1     -42.011 -43.302  10.568  1.00  0.00    -0.228 OA
HETATM   21  C   UNL     1     -41.293 -44.836  12.552  1.00  0.00     0.165 C 
ENDBRANCH   4  15
TORSDOF 3
ENDMDL
MODEL 9
REMARK VINA RESULT:      -4.8      4.694      6.989
REMARK  3 active torsions:
REMARK  status: ('A' for Active; 'I' for Inactive)
REMARK    1  A    between atoms: C_2  and  N_3 
REMARK    2  A    between atoms: C_5  and  N_6 
REMARK       I    between atoms: N_6  and  C_7 
REMARK       I    between atoms: C_7  and  N_9 
REMARK    3  A    between atoms: N_9  and  C_10 
ROOT
HETATM    1  N   UNL     1     -42.298 -50.754  11.856  1.00  0.00    -0.306 N 
HETATM    2  C   UNL     1     -42.772 -51.262  13.040  1.00  0.00     0.321 C 
HETATM    3  O   UNL     1     -42.236 -51.149  14.137  1.00  0.00    -0.247 OA
HETATM    4  N   UNL     1     -43.953 -51.959  12.904  1.00  0.00    -0.337 N 
HETATM    5  H   UNL     1     -42.786 -50.950  10.996  1.00  0.00     0.171 HD
HETATM    6  H   UNL     1     -44.457 -51.912  12.031  1.00  0.00     0.164 HD
ENDROOT
BRANCH   1   7
HETATM    7  C   UNL     1     -41.122 -50.024  11.767  1.00  0.00     0.070 A 
HETATM    8  C   UNL     1     -39.839 -50.484  11.939  1.00  0.00     0.141 A 
HETATM    9  N   UNL     1     -39.011 -49.424  11.735  1.00  0.00    -0.302 N 
HETATM   10  N   UNL     1     -39.667 -48.280  11.459  1.00  0.00    -0.308 N 
HETATM   11  C   UNL     1     -40.953 -48.651  11.478  1.00  0.00     0.138 A 
ATOM     12  HN  UNL     1     -39.277 -47.355  11.279  1.00  0.00     0.186 HD
BRANCH   9  13
HETATM   13  C   UNL     1     -37.564 -49.469  11.776  1.00  0.00     0.143 C 
HETATM   14  C   UNL     1     -36.982 -50.234  10.600  1.00  0.00     0.028 C 
ENDBRANCH   9  13
ENDBRANCH   1   7
BRANCH   4  15
HETATM   15  C   UNL     1     -44.607 -52.553  14.068  1.00  0.00     0.101 C 
HETATM   16  C   UNL     1     -45.458 -53.793  13.718  1.00  0.00     0.041 C 
HETATM   17  C   UNL     1     -46.556 -53.980  14.763  1.00  0.00     0.142 C 
HETATM   18  S   UNL     1     -46.457 -52.605  15.885  1.00  0.00     0.146 S 
HETATM   19  O   UNL     1     -47.772 -52.028  16.064  1.00  0.00    -0.228 OA
HETATM   20  O   UNL     1     -45.630 -52.993  17.011  1.00  0.00    -0.228 OA
HETATM   21  C   UNL     1     -45.490 -51.565  14.833  1.00  0.00     0.165 C 
ENDBRANCH   4  15
TORSDOF 3
ENDMDL
