MODEL 1
REMARK VINA RESULT:      -6.2      0.000      0.000
REMARK  5 active torsions:
REMARK  status: ('A' for Active; 'I' for Inactive)
REMARK    1  A    between atoms: N_2  and  C_3 
REMARK    2  A    between atoms: N_2  and  C_14 
REMARK    3  A    between atoms: C_3  and  C_4 
REMARK    4  A    between atoms: N_6  and  C_7 
REMARK    5  A    between atoms: C_7  and  C_8 
REMARK       I    between atoms: C_8  and  N_10 
ROOT
HETATM    1  C   UNL     1     -41.107 -49.416  12.502  1.00  0.00     0.167 C 
HETATM    2  C   UNL     1     -42.425 -48.869  11.881  1.00  0.00     0.306 C 
HETATM    3  N   UNL     1     -42.185 -48.106  10.626  1.00  0.00     0.101 N 
HETATM    4  C   UNL     1     -41.253 -47.002  10.952  1.00  0.00     0.299 C 
HETATM    5  C   UNL     1     -39.947 -47.548  11.534  1.00  0.00     0.198 C 
HETATM    6  O   UNL     1     -40.179 -48.331  12.712  1.00  0.00    -0.381 OA
ENDROOT
BRANCH   1   7
HETATM    7  C   UNL     1     -40.528 -50.585  11.659  1.00  0.00     0.157 C 
BRANCH   7   8
HETATM    8  N   UNL     1     -40.358 -51.866  12.382  1.00  0.00    -0.368 N 
HETATM    9  C   UNL     1     -39.519 -51.842  13.578  1.00  0.00     0.151 C 
BRANCH   8  10
HETATM   10  C   UNL     1     -41.511 -52.650  12.547  1.00  0.00     0.117 A 
HETATM   11  C   UNL     1     -41.625 -53.486  13.653  1.00  0.00     0.051 A 
HETATM   12  C   UNL     1     -42.816 -54.173  13.885  1.00  0.00     0.022 A 
HETATM   13  C   UNL     1     -43.848 -54.014  12.986  1.00  0.00     0.107 A 
HETATM   14  N   UNL     1     -43.735 -53.224  11.908  1.00  0.00    -0.310 N 
HETATM   15  N   UNL     1     -42.565 -52.531  11.706  1.00  0.00    -0.286 N 
ATOM     16  HN  UNL     1     -44.507 -53.138  11.248  1.00  0.00     0.186 HD
ATOM     17  HN  UNL     1     -42.489 -51.912  10.899  1.00  0.00     0.188 HD
ENDBRANCH   8  10
ENDBRANCH   7   8
ENDBRANCH   1   7
BRANCH   3  18
HETATM   18  C   UNL     1     -43.444 -47.524  10.096  1.00  0.00     0.374 C 
BRANCH  18  19
HETATM   19  C   UNL     1     -43.275 -47.058   8.652  1.00  0.00     0.243 C 
HETATM   20  O   UNL     1     -43.293 -45.881   8.310  1.00  0.00    -0.272 OA
HETATM   21  N   UNL     1     -43.065 -48.060   7.746  1.00  0.00    -0.369 N 
HETATM   22  H   UNL     1     -43.309 -49.009   8.001  1.00  0.00     0.159 HD
HETATM   23  H   UNL     1     -43.040 -47.804   6.768  1.00  0.00     0.159 HD
ENDBRANCH  18  19
ENDBRANCH   3  18
TORSDOF 5
ENDMDL
MODEL 2
REMARK VINA RESULT:      -6.0      1.756      2.284
REMARK  5 active torsions:
REMARK  status: ('A' for Active; 'I' for Inactive)
REMARK    1  A    between atoms: N_2  and  C_3 
REMARK    2  A    between atoms: N_2  and  C_14 
REMARK    3  A    between atoms: C_3  and  C_4 
REMARK    4  A    between atoms: N_6  and  C_7 
REMARK    5  A    between atoms: C_7  and  C_8 
REMARK       I    between atoms: C_8  and  N_10 
ROOT
HETATM    1  C   UNL     1     -41.418 -47.561  12.064  1.00  0.00     0.167 C 
HETATM    2  C   UNL     1     -42.853 -47.737  11.485  1.00  0.00     0.306 C 
HETATM    3  N   UNL     1     -42.971 -47.208  10.098  1.00  0.00     0.101 N 
HETATM    4  C   UNL     1     -42.587 -45.778  10.138  1.00  0.00     0.299 C 
HETATM    5  C   UNL     1     -41.165 -45.613  10.680  1.00  0.00     0.198 C 
HETATM    6  O   UNL     1     -41.031 -46.173  11.992  1.00  0.00    -0.381 OA
ENDROOT
BRANCH   1   7
HETATM    7  C   UNL     1     -40.413 -48.531  11.387  1.00  0.00     0.157 C 
BRANCH   7   8
HETATM    8  N   UNL     1     -39.678 -49.429  12.307  1.00  0.00    -0.368 N 
HETATM    9  C   UNL     1     -39.426 -48.927  13.657  1.00  0.00     0.151 C 
BRANCH   8  10
HETATM   10  C   UNL     1     -40.055 -50.781  12.296  1.00  0.00     0.117 A 
HETATM   11  C   UNL     1     -39.749 -51.592  13.385  1.00  0.00     0.051 A 
HETATM   12  C   UNL     1     -40.226 -52.902  13.431  1.00  0.00     0.022 A 
HETATM   13  C   UNL     1     -40.978 -53.361  12.372  1.00  0.00     0.107 A 
HETATM   14  N   UNL     1     -41.259 -52.588  11.313  1.00  0.00    -0.310 N 
HETATM   15  N   UNL     1     -40.805 -51.290  11.291  1.00  0.00    -0.286 N 
ATOM     16  HN  UNL     1     -41.802 -52.958  10.533  1.00  0.00     0.186 HD
ATOM     17  HN  UNL     1     -41.040 -50.696  10.497  1.00  0.00     0.188 HD
ENDBRANCH   8  10
ENDBRANCH   7   8
ENDBRANCH   1   7
BRANCH   3  18
HETATM   18  C   UNL     1     -44.366 -47.311   9.597  1.00  0.00     0.374 C 
BRANCH  18  19
HETATM   19  C   UNL     1     -44.405 -47.895   8.187  1.00  0.00     0.243 C 
HETATM   20  O   UNL     1     -43.439 -47.920   7.433  1.00  0.00    -0.272 OA
HETATM   21  N   UNL     1     -45.609 -48.429   7.820  1.00  0.00    -0.369 N 
HETATM   22  H   UNL     1     -46.438 -48.170   8.341  1.00  0.00     0.159 HD
HETATM   23  H   UNL     1     -45.706 -48.743   6.864  1.00  0.00     0.159 HD
ENDBRANCH  18  19
ENDBRANCH   3  18
TORSDOF 5
ENDMDL
MODEL 3
REMARK VINA RESULT:      -5.8      2.603      5.787
REMARK  5 active torsions:
REMARK  status: ('A' for Active; 'I' for Inactive)
REMARK    1  A    between atoms: N_2  and  C_3 
REMARK    2  A    between atoms: N_2  and  C_14 
REMARK    3  A    between atoms: C_3  and  C_4 
REMARK    4  A    between atoms: N_6  and  C_7 
REMARK    5  A    between atoms: C_7  and  C_8 
REMARK       I    between atoms: C_8  and  N_10 
ROOT
HETATM    1  C   UNL     1     -40.967 -51.919  12.257  1.00  0.00     0.167 C 
HETATM    2  C   UNL     1     -42.374 -52.569  12.103  1.00  0.00     0.306 C 
HETATM    3  N   UNL     1     -42.810 -53.275  13.339  1.00  0.00     0.101 N 
HETATM    4  C   UNL     1     -41.783 -54.298  13.647  1.00  0.00     0.299 C 
HETATM    5  C   UNL     1     -40.408 -53.650  13.828  1.00  0.00     0.198 C 
HETATM    6  O   UNL     1     -40.010 -52.921  12.660  1.00  0.00    -0.381 OA
ENDROOT
BRANCH   1   7
HETATM    7  C   UNL     1     -41.017 -50.683  13.195  1.00  0.00     0.157 C 
BRANCH   7   8
HETATM    8  N   UNL     1     -40.632 -49.396  12.571  1.00  0.00    -0.368 N 
HETATM    9  C   UNL     1     -39.234 -49.249  12.172  1.00  0.00     0.151 C 
BRANCH   8  10
HETATM   10  C   UNL     1     -41.522 -48.871  11.621  1.00  0.00     0.117 A 
HETATM   11  C   UNL     1     -42.714 -48.286  12.040  1.00  0.00     0.051 A 
HETATM   12  C   UNL     1     -43.543 -47.656  11.112  1.00  0.00     0.022 A 
HETATM   13  C   UNL     1     -43.158 -47.652   9.789  1.00  0.00     0.107 A 
HETATM   14  N   UNL     1     -42.020 -48.232   9.379  1.00  0.00    -0.310 N 
HETATM   15  N   UNL     1     -41.199 -48.826  10.307  1.00  0.00    -0.286 N 
ATOM     16  HN  UNL     1     -41.768 -48.232   8.391  1.00  0.00     0.186 HD
ATOM     17  HN  UNL     1     -40.322 -49.245   9.998  1.00  0.00     0.188 HD
ENDBRANCH   8  10
ENDBRANCH   7   8
ENDBRANCH   1   7
BRANCH   3  18
HETATM   18  C   UNL     1     -44.115 -53.956  13.142  1.00  0.00     0.374 C 
BRANCH  18  19
HETATM   19  C   UNL     1     -45.248 -52.946  12.977  1.00  0.00     0.243 C 
HETATM   20  O   UNL     1     -45.960 -52.878  11.982  1.00  0.00    -0.272 OA
HETATM   21  N   UNL     1     -45.442 -52.121  14.051  1.00  0.00    -0.369 N 
HETATM   22  H   UNL     1     -44.700 -52.021  14.732  1.00  0.00     0.159 HD
HETATM   23  H   UNL     1     -46.120 -51.378  13.948  1.00  0.00     0.159 HD
ENDBRANCH  18  19
ENDBRANCH   3  18
TORSDOF 5
ENDMDL
MODEL 4
REMARK VINA RESULT:      -5.7      2.392      6.017
REMARK  5 active torsions:
REMARK  status: ('A' for Active; 'I' for Inactive)
REMARK    1  A    between atoms: N_2  and  C_3 
REMARK    2  A    between atoms: N_2  and  C_14 
REMARK    3  A    between atoms: C_3  and  C_4 
REMARK    4  A    between atoms: N_6  and  C_7 
REMARK    5  A    between atoms: C_7  and  C_8 
REMARK       I    between atoms: C_8  and  N_10 
ROOT
HETATM    1  C   UNL     1     -39.404 -47.954  12.403  1.00  0.00     0.167 C 
HETATM    2  C   UNL     1     -39.322 -49.477  12.088  1.00  0.00     0.306 C 
HETATM    3  N   UNL     1     -39.890 -50.312  13.182  1.00  0.00     0.101 N 
HETATM    4  C   UNL     1     -39.145 -49.985  14.419  1.00  0.00     0.299 C 
HETATM    5  C   UNL     1     -39.254 -48.492  14.740  1.00  0.00     0.198 C 
HETATM    6  O   UNL     1     -38.761 -47.683  13.665  1.00  0.00    -0.381 OA
ENDROOT
BRANCH   1   7
HETATM    7  C   UNL     1     -40.866 -47.438  12.318  1.00  0.00     0.157 C 
BRANCH   7   8
HETATM    8  N   UNL     1     -41.126 -46.440  11.256  1.00  0.00    -0.368 N 
HETATM    9  C   UNL     1     -39.968 -45.724  10.725  1.00  0.00     0.151 C 
BRANCH   8  10
HETATM   10  C   UNL     1     -42.035 -46.814  10.253  1.00  0.00     0.117 A 
HETATM   11  C   UNL     1     -43.007 -45.912   9.830  1.00  0.00     0.051 A 
HETATM   12  C   UNL     1     -43.832 -46.234   8.753  1.00  0.00     0.022 A 
HETATM   13  C   UNL     1     -43.669 -47.462   8.149  1.00  0.00     0.107 A 
HETATM   14  N   UNL     1     -42.746 -48.342   8.567  1.00  0.00    -0.310 N 
HETATM   15  N   UNL     1     -41.921 -48.001   9.612  1.00  0.00    -0.286 N 
ATOM     16  HN  UNL     1     -42.659 -49.252   8.115  1.00  0.00     0.186 HD
ATOM     17  HN  UNL     1     -41.204 -48.660   9.914  1.00  0.00     0.188 HD
ENDBRANCH   8  10
ENDBRANCH   7   8
ENDBRANCH   1   7
BRANCH   3  18
HETATM   18  C   UNL     1     -39.727 -51.761  12.898  1.00  0.00     0.374 C 
BRANCH  18  19
HETATM   19  C   UNL     1     -41.054 -52.400  12.496  1.00  0.00     0.243 C 
HETATM   20  O   UNL     1     -41.915 -52.743  13.298  1.00  0.00    -0.272 OA
HETATM   21  N   UNL     1     -41.239 -52.539  11.148  1.00  0.00    -0.369 N 
HETATM   22  H   UNL     1     -40.433 -52.494  10.536  1.00  0.00     0.159 HD
HETATM   23  H   UNL     1     -42.061 -53.041  10.842  1.00  0.00     0.159 HD
ENDBRANCH  18  19
ENDBRANCH   3  18
TORSDOF 5
ENDMDL
MODEL 5
REMARK VINA RESULT:      -5.7      2.162      3.544
REMARK  5 active torsions:
REMARK  status: ('A' for Active; 'I' for Inactive)
REMARK    1  A    between atoms: N_2  and  C_3 
REMARK    2  A    between atoms: N_2  and  C_14 
REMARK    3  A    between atoms: C_3  and  C_4 
REMARK    4  A    between atoms: N_6  and  C_7 
REMARK    5  A    between atoms: C_7  and  C_8 
REMARK       I    between atoms: C_8  and  N_10 
ROOT
HETATM    1  C   UNL     1     -42.334 -47.912  12.166  1.00  0.00     0.167 C 
HETATM    2  C   UNL     1     -43.437 -47.280  11.267  1.00  0.00     0.306 C 
HETATM    3  N   UNL     1     -42.918 -46.880   9.931  1.00  0.00     0.101 N 
HETATM    4  C   UNL     1     -41.806 -45.927  10.156  1.00  0.00     0.299 C 
HETATM    5  C   UNL     1     -40.711 -46.564  11.015  1.00  0.00     0.198 C 
HETATM    6  O   UNL     1     -41.219 -47.002  12.281  1.00  0.00    -0.381 OA
ENDROOT
BRANCH   1   7
HETATM    7  C   UNL     1     -41.941 -49.328  11.666  1.00  0.00     0.157 C 
BRANCH   7   8
HETATM    8  N   UNL     1     -41.067 -50.103  12.575  1.00  0.00    -0.368 N 
HETATM    9  C   UNL     1     -41.599 -51.364  13.086  1.00  0.00     0.151 C 
BRANCH   8  10
HETATM   10  C   UNL     1     -39.713 -50.195  12.215  1.00  0.00     0.117 A 
HETATM   11  C   UNL     1     -38.791 -50.716  13.119  1.00  0.00     0.051 A 
HETATM   12  C   UNL     1     -37.470 -50.922  12.723  1.00  0.00     0.022 A 
HETATM   13  C   UNL     1     -37.112 -50.578  11.437  1.00  0.00     0.107 A 
HETATM   14  N   UNL     1     -37.993 -50.058  10.570  1.00  0.00    -0.310 N 
HETATM   15  N   UNL     1     -39.299 -49.885  10.964  1.00  0.00    -0.286 N 
ATOM     16  HN  UNL     1     -37.698 -49.795   9.630  1.00  0.00     0.186 HD
ATOM     17  HN  UNL     1     -39.973 -49.513  10.296  1.00  0.00     0.188 HD
ENDBRANCH   8  10
ENDBRANCH   7   8
ENDBRANCH   1   7
BRANCH   3  18
HETATM   18  C   UNL     1     -43.965 -46.206   9.122  1.00  0.00     0.374 C 
BRANCH  18  19
HETATM   19  C   UNL     1     -45.139 -47.141   8.844  1.00  0.00     0.243 C 
HETATM   20  O   UNL     1     -46.255 -46.996   9.330  1.00  0.00    -0.272 OA
HETATM   21  N   UNL     1     -44.867 -48.159   7.972  1.00  0.00    -0.369 N 
HETATM   22  H   UNL     1     -43.902 -48.407   7.794  1.00  0.00     0.159 HD
HETATM   23  H   UNL     1     -45.588 -48.854   7.831  1.00  0.00     0.159 HD
ENDBRANCH  18  19
ENDBRANCH   3  18
TORSDOF 5
ENDMDL
MODEL 6
REMARK VINA RESULT:      -5.6      1.774      2.542
REMARK  5 active torsions:
REMARK  status: ('A' for Active; 'I' for Inactive)
REMARK    1  A    between atoms: N_2  and  C_3 
REMARK    2  A    between atoms: N_2  and  C_14 
REMARK    3  A    between atoms: C_3  and  C_4 
REMARK    4  A    between atoms: N_6  and  C_7 
REMARK    5  A    between atoms: C_7  and  C_8 
REMARK       I    between atoms: C_8  and  N_10 
ROOT
HETATM    1  C   UNL     1     -39.752 -51.313  13.197  1.00  0.00     0.167 C 
HETATM    2  C   UNL     1     -40.243 -49.837  13.130  1.00  0.00     0.306 C 
HETATM    3  N   UNL     1     -39.814 -49.154  11.879  1.00  0.00     0.101 N 
HETATM    4  C   UNL     1     -38.335 -49.225  11.822  1.00  0.00     0.299 C 
HETATM    5  C   UNL     1     -37.860 -50.680  11.858  1.00  0.00     0.198 C 
HETATM    6  O   UNL     1     -38.319 -51.358  13.034  1.00  0.00    -0.381 OA
ENDROOT
BRANCH   1   7
HETATM    7  C   UNL     1     -40.528 -52.211  12.197  1.00  0.00     0.157 C 
BRANCH   7   8
HETATM    8  N   UNL     1     -41.055 -53.477  12.756  1.00  0.00    -0.368 N 
HETATM    9  C   UNL     1     -40.358 -54.025  13.917  1.00  0.00     0.151 C 
BRANCH   8  10
HETATM   10  C   UNL     1     -42.451 -53.579  12.867  1.00  0.00     0.117 A 
HETATM   11  C   UNL     1     -43.009 -54.305  13.915  1.00  0.00     0.051 A 
HETATM   12  C   UNL     1     -44.391 -54.309  14.099  1.00  0.00     0.022 A 
HETATM   13  C   UNL     1     -45.171 -53.601  13.210  1.00  0.00     0.107 A 
HETATM   14  N   UNL     1     -44.637 -52.916  12.187  1.00  0.00    -0.310 N 
HETATM   15  N   UNL     1     -43.271 -52.898  12.033  1.00  0.00    -0.286 N 
ATOM     16  HN  UNL     1     -45.238 -52.416  11.532  1.00  0.00     0.186 HD
ATOM     17  HN  UNL     1     -42.865 -52.357  11.270  1.00  0.00     0.188 HD
ENDBRANCH   8  10
ENDBRANCH   7   8
ENDBRANCH   1   7
BRANCH   3  18
HETATM   18  C   UNL     1     -40.221 -47.726  11.874  1.00  0.00     0.374 C 
BRANCH  18  19
HETATM   19  C   UNL     1     -41.225 -47.440  10.759  1.00  0.00     0.243 C 
HETATM   20  O   UNL     1     -41.709 -46.334  10.546  1.00  0.00    -0.272 OA
HETATM   21  N   UNL     1     -41.533 -48.516   9.974  1.00  0.00    -0.369 N 
HETATM   22  H   UNL     1     -41.331 -49.446  10.318  1.00  0.00     0.159 HD
HETATM   23  H   UNL     1     -42.261 -48.393   9.283  1.00  0.00     0.159 HD
ENDBRANCH  18  19
ENDBRANCH   3  18
TORSDOF 5
ENDMDL
MODEL 7
REMARK VINA RESULT:      -5.5      3.286      6.585
REMARK  5 active torsions:
REMARK  status: ('A' for Active; 'I' for Inactive)
REMARK    1  A    between atoms: N_2  and  C_3 
REMARK    2  A    between atoms: N_2  and  C_14 
REMARK    3  A    between atoms: C_3  and  C_4 
REMARK    4  A    between atoms: N_6  and  C_7 
REMARK    5  A    between atoms: C_7  and  C_8 
REMARK       I    between atoms: C_8  and  N_10 
ROOT
HETATM    1  C   UNL     1     -42.659 -52.615  12.520  1.00  0.00     0.167 C 
HETATM    2  C   UNL     1     -43.939 -53.037  13.298  1.00  0.00     0.306 C 
HETATM    3  N   UNL     1     -43.642 -53.445  14.698  1.00  0.00     0.101 N 
HETATM    4  C   UNL     1     -42.668 -54.560  14.635  1.00  0.00     0.299 C 
HETATM    5  C   UNL     1     -41.398 -54.130  13.895  1.00  0.00     0.198 C 
HETATM    6  O   UNL     1     -41.688 -53.682  12.565  1.00  0.00    -0.381 OA
ENDROOT
BRANCH   1   7
HETATM    7  C   UNL     1     -42.117 -51.249  13.022  1.00  0.00     0.157 C 
BRANCH   7   8
HETATM    8  N   UNL     1     -41.517 -50.383  11.982  1.00  0.00    -0.368 N 
HETATM    9  C   UNL     1     -42.117 -49.063  11.797  1.00  0.00     0.151 C 
BRANCH   8  10
HETATM   10  C   UNL     1     -40.114 -50.351  11.927  1.00  0.00     0.117 A 
HETATM   11  C   UNL     1     -39.370 -50.874  12.980  1.00  0.00     0.051 A 
HETATM   12  C   UNL     1     -37.982 -50.955  12.876  1.00  0.00     0.022 A 
HETATM   13  C   UNL     1     -37.384 -50.488  11.726  1.00  0.00     0.107 A 
HETATM   14  N   UNL     1     -38.097 -49.966  10.717  1.00  0.00    -0.310 N 
HETATM   15  N   UNL     1     -39.467 -49.917  10.820  1.00  0.00    -0.286 N 
ATOM     16  HN  UNL     1     -37.629 -49.610   9.884  1.00  0.00     0.186 HD
ATOM     17  HN  UNL     1     -40.010 -49.543  10.043  1.00  0.00     0.188 HD
ENDBRANCH   8  10
ENDBRANCH   7   8
ENDBRANCH   1   7
BRANCH   3  18
HETATM   18  C   UNL     1     -44.864 -53.921  15.395  1.00  0.00     0.374 C 
BRANCH  18  19
HETATM   19  C   UNL     1     -45.843 -54.567  14.418  1.00  0.00     0.243 C 
HETATM   20  O   UNL     1     -45.668 -55.668  13.907  1.00  0.00    -0.272 OA
HETATM   21  N   UNL     1     -46.970 -53.835  14.167  1.00  0.00    -0.369 N 
HETATM   22  H   UNL     1     -46.971 -52.847  14.386  1.00  0.00     0.159 HD
HETATM   23  H   UNL     1     -47.600 -54.183  13.457  1.00  0.00     0.159 HD
ENDBRANCH  18  19
ENDBRANCH   3  18
TORSDOF 5
ENDMDL
MODEL 8
REMARK VINA RESULT:      -5.3      3.028      5.840
REMARK  5 active torsions:
REMARK  status: ('A' for Active; 'I' for Inactive)
REMARK    1  A    between atoms: N_2  and  C_3 
REMARK    2  A    between atoms: N_2  and  C_14 
REMARK    3  A    between atoms: C_3  and  C_4 
REMARK    4  A    between atoms: N_6  and  C_7 
REMARK    5  A    between atoms: C_7  and  C_8 
REMARK       I    between atoms: C_8  and  N_10 
ROOT
HETATM    1  C   UNL     1     -41.762 -53.336  13.490  1.00  0.00     0.167 C 
HETATM    2  C   UNL     1     -43.170 -53.380  12.827  1.00  0.00     0.306 C 
HETATM    3  N   UNL     1     -44.262 -53.529  13.828  1.00  0.00     0.101 N 
HETATM    4  C   UNL     1     -43.995 -54.770  14.590  1.00  0.00     0.299 C 
HETATM    5  C   UNL     1     -42.623 -54.709  15.265  1.00  0.00     0.198 C 
HETATM    6  O   UNL     1     -41.573 -54.509  14.310  1.00  0.00    -0.381 OA
ENDROOT
BRANCH   1   7
HETATM    7  C   UNL     1     -41.534 -51.998  14.244  1.00  0.00     0.157 C 
BRANCH   7   8
HETATM    8  N   UNL     1     -40.481 -51.123  13.681  1.00  0.00    -0.368 N 
HETATM    9  C   UNL     1     -39.149 -51.706  13.532  1.00  0.00     0.151 C 
BRANCH   8  10
HETATM   10  C   UNL     1     -40.848 -50.329  12.583  1.00  0.00     0.117 A 
HETATM   11  C   UNL     1     -41.643 -49.204  12.779  1.00  0.00     0.051 A 
HETATM   12  C   UNL     1     -41.909 -48.346  11.712  1.00  0.00     0.022 A 
HETATM   13  C   UNL     1     -41.386 -48.659  10.476  1.00  0.00     0.107 A 
HETATM   14  N   UNL     1     -40.636 -49.753  10.279  1.00  0.00    -0.310 N 
HETATM   15  N   UNL     1     -40.358 -50.576  11.345  1.00  0.00    -0.286 N 
ATOM     16  HN  UNL     1     -40.276 -49.972   9.350  1.00  0.00     0.186 HD
ATOM     17  HN  UNL     1     -39.768 -51.394  11.200  1.00  0.00     0.188 HD
ENDBRANCH   8  10
ENDBRANCH   7   8
ENDBRANCH   1   7
BRANCH   3  18
HETATM   18  C   UNL     1     -45.587 -53.651  13.169  1.00  0.00     0.374 C 
BRANCH  18  19
HETATM   19  C   UNL     1     -46.204 -52.279  12.906  1.00  0.00     0.243 C 
HETATM   20  O   UNL     1     -46.192 -51.361  13.717  1.00  0.00    -0.272 OA
HETATM   21  N   UNL     1     -46.758 -52.127  11.665  1.00  0.00    -0.369 N 
HETATM   22  H   UNL     1     -46.983 -52.953  11.125  1.00  0.00     0.159 HD
HETATM   23  H   UNL     1     -47.257 -51.268  11.482  1.00  0.00     0.159 HD
ENDBRANCH  18  19
ENDBRANCH   3  18
TORSDOF 5
ENDMDL
MODEL 9
REMARK VINA RESULT:      -5.3      2.401      4.208
REMARK  5 active torsions:
REMARK  status: ('A' for Active; 'I' for Inactive)
REMARK    1  A    between atoms: N_2  and  C_3 
REMARK    2  A    between atoms: N_2  and  C_14 
REMARK    3  A    between atoms: C_3  and  C_4 
REMARK    4  A    between atoms: N_6  and  C_7 
REMARK    5  A    between atoms: C_7  and  C_8 
REMARK       I    between atoms: C_8  and  N_10 
ROOT
HETATM    1  C   UNL     1     -41.368 -52.160  14.561  1.00  0.00     0.167 C 
HETATM    2  C   UNL     1     -41.007 -50.779  13.939  1.00  0.00     0.306 C 
HETATM    3  N   UNL     1     -39.849 -50.864  13.008  1.00  0.00     0.101 N 
HETATM    4  C   UNL     1     -38.707 -51.416  13.773  1.00  0.00     0.299 C 
HETATM    5  C   UNL     1     -39.057 -52.787  14.357  1.00  0.00     0.198 C 
HETATM    6  O   UNL     1     -40.207 -52.721  15.209  1.00  0.00    -0.381 OA
ENDROOT
BRANCH   1   7
HETATM    7  C   UNL     1     -42.017 -53.100  13.510  1.00  0.00     0.157 C 
BRANCH   7   8
HETATM    8  N   UNL     1     -43.302 -53.715  13.915  1.00  0.00    -0.368 N 
HETATM    9  C   UNL     1     -43.378 -54.250  15.273  1.00  0.00     0.151 C 
BRANCH   8  10
HETATM   10  C   UNL     1     -44.469 -53.032  13.538  1.00  0.00     0.117 A 
HETATM   11  C   UNL     1     -45.208 -52.346  14.498  1.00  0.00     0.051 A 
HETATM   12  C   UNL     1     -46.298 -51.567  14.110  1.00  0.00     0.022 A 
HETATM   13  C   UNL     1     -46.624 -51.520  12.772  1.00  0.00     0.107 A 
HETATM   14  N   UNL     1     -45.926 -52.196  11.847  1.00  0.00    -0.310 N 
HETATM   15  N   UNL     1     -44.837 -52.938  12.239  1.00  0.00    -0.286 N 
ATOM     16  HN  UNL     1     -46.200 -52.160  10.865  1.00  0.00     0.186 HD
ATOM     17  HN  UNL     1     -44.293 -53.432  11.533  1.00  0.00     0.188 HD
ENDBRANCH   8  10
ENDBRANCH   7   8
ENDBRANCH   1   7
BRANCH   3  18
HETATM   18  C   UNL     1     -39.471 -49.524  12.491  1.00  0.00     0.374 C 
BRANCH  18  19
HETATM   19  C   UNL     1     -40.393 -49.087  11.356  1.00  0.00     0.243 C 
HETATM   20  O   UNL     1     -40.978 -48.010  11.330  1.00  0.00    -0.272 OA
HETATM   21  N   UNL     1     -40.503 -49.983  10.328  1.00  0.00    -0.369 N 
HETATM   22  H   UNL     1     -40.229 -50.945  10.487  1.00  0.00     0.159 HD
HETATM   23  H   UNL     1     -41.174 -49.775   9.601  1.00  0.00     0.159 HD
ENDBRANCH  18  19
ENDBRANCH   3  18
TORSDOF 5
ENDMDL
