MODEL 1
REMARK VINA RESULT:      -5.2      0.000      0.000
REMARK  6 active torsions:
REMARK  status: ('A' for Active; 'I' for Inactive)
REMARK    1  A    between atoms: C_2  and  C_3 
REMARK    2  A    between atoms: C_3  and  C_4 
REMARK    3  A    between atoms: C_4  and  C_5 
REMARK    4  A    between atoms: C_5  and  N_6 
REMARK       I    between atoms: N_6  and  C_7 
REMARK    5  A    between atoms: C_7  and  C_9 
REMARK    6  A    between atoms: C_9  and  N_10 
ROOT
HETATM    1  N   UNL     1     -42.354 -54.405  14.042  1.00  0.00    -0.241 N 
HETATM    2  N   UNL     1     -42.507 -53.873  12.785  1.00  0.00    -0.274 N 
ATOM      3  HN  UNL     1     -43.331 -53.984  12.193  1.00  0.00     0.189 HD
HETATM    4  C   UNL     1     -41.444 -53.209  12.468  1.00  0.00     0.162 A 
HETATM    5  N   UNL     1     -41.246 -52.553  11.300  1.00  0.00    -0.378 N 
HETATM    6  S   UNL     1     -40.179 -53.141  13.660  1.00  0.00     0.010 SA
HETATM    7  C   UNL     1     -41.163 -54.159  14.682  1.00  0.00     0.308 A 
HETATM    8  O   UNL     1     -40.808 -54.584  15.770  1.00  0.00    -0.258 OA
HETATM    9  H   UNL     1     -42.091 -52.389  10.766  1.00  0.00     0.158 HD
HETATM   10  H   UNL     1     -40.603 -51.773  11.334  1.00  0.00     0.158 HD
ENDROOT
BRANCH   1  11
HETATM   11  C   UNL     1     -43.428 -55.177  14.636  1.00  0.00     0.255 C 
BRANCH  11  12
HETATM   12  C   UNL     1     -44.804 -54.674  14.212  1.00  0.00     0.237 C 
HETATM   13  N   UNL     1     -45.493 -53.957  15.171  1.00  0.00    -0.360 N 
HETATM   14  H   UNL     1     -45.087 -53.843  16.095  1.00  0.00     0.162 HD
HETATM   15  O   UNL     1     -45.213 -54.805  13.062  1.00  0.00    -0.272 OA
BRANCH  13  16
HETATM   16  C   UNL     1     -46.806 -53.396  14.913  1.00  0.00     0.122 C 
BRANCH  16  17
HETATM   17  C   UNL     1     -46.772 -51.875  14.769  1.00  0.00     0.020 C 
BRANCH  17  18
HETATM   18  C   UNL     1     -46.442 -51.440  13.339  1.00  0.00     0.001 C 
BRANCH  18  19
HETATM   19  C   UNL     1     -44.956 -51.124  13.174  1.00  0.00    -0.004 C 
HETATM   20  C   UNL     1     -44.351 -50.641  14.483  1.00  0.00     0.005 C 
ENDBRANCH  18  19
ENDBRANCH  17  18
ENDBRANCH  16  17
ENDBRANCH  13  16
ENDBRANCH  11  12
ENDBRANCH   1  11
TORSDOF 6
ENDMDL
MODEL 2
REMARK VINA RESULT:      -5.1      1.934      2.715
REMARK  6 active torsions:
REMARK  status: ('A' for Active; 'I' for Inactive)
REMARK    1  A    between atoms: C_2  and  C_3 
REMARK    2  A    between atoms: C_3  and  C_4 
REMARK    3  A    between atoms: C_4  and  C_5 
REMARK    4  A    between atoms: C_5  and  N_6 
REMARK       I    between atoms: N_6  and  C_7 
REMARK    5  A    between atoms: C_7  and  C_9 
REMARK    6  A    between atoms: C_9  and  N_10 
ROOT
HETATM    1  N   UNL     1     -40.759 -52.519  12.590  1.00  0.00    -0.241 N 
HETATM    2  N   UNL     1     -40.936 -51.922  11.366  1.00  0.00    -0.274 N 
ATOM      3  HN  UNL     1     -41.353 -52.366  10.547  1.00  0.00     0.189 HD
HETATM    4  C   UNL     1     -40.493 -50.708  11.413  1.00  0.00     0.162 A 
HETATM    5  N   UNL     1     -40.507 -49.826  10.385  1.00  0.00    -0.378 N 
HETATM    6  S   UNL     1     -39.851 -50.167  12.936  1.00  0.00     0.010 SA
HETATM    7  C   UNL     1     -40.164 -51.763  13.572  1.00  0.00     0.308 A 
HETATM    8  O   UNL     1     -39.867 -52.121  14.700  1.00  0.00    -0.258 OA
HETATM    9  H   UNL     1     -41.125 -50.083   9.624  1.00  0.00     0.158 HD
HETATM   10  H   UNL     1     -40.527 -48.848  10.641  1.00  0.00     0.158 HD
ENDROOT
BRANCH   1  11
HETATM   11  C   UNL     1     -41.202 -53.884  12.800  1.00  0.00     0.255 C 
BRANCH  11  12
HETATM   12  C   UNL     1     -42.590 -53.950  13.428  1.00  0.00     0.237 C 
HETATM   13  N   UNL     1     -43.641 -53.712  12.565  1.00  0.00    -0.360 N 
HETATM   14  H   UNL     1     -43.447 -53.468  11.598  1.00  0.00     0.162 HD
HETATM   15  O   UNL     1     -42.756 -54.301  14.593  1.00  0.00    -0.272 OA
BRANCH  13  16
HETATM   16  C   UNL     1     -45.022 -53.759  13.006  1.00  0.00     0.122 C 
BRANCH  16  17
HETATM   17  C   UNL     1     -45.860 -52.623  12.422  1.00  0.00     0.020 C 
BRANCH  17  18
HETATM   18  C   UNL     1     -45.816 -51.367  13.296  1.00  0.00     0.001 C 
BRANCH  18  19
HETATM   19  C   UNL     1     -46.703 -51.508  14.532  1.00  0.00    -0.004 C 
HETATM   20  C   UNL     1     -45.940 -51.148  15.797  1.00  0.00     0.005 C 
ENDBRANCH  18  19
ENDBRANCH  17  18
ENDBRANCH  16  17
ENDBRANCH  13  16
ENDBRANCH  11  12
ENDBRANCH   1  11
TORSDOF 6
ENDMDL
MODEL 3
REMARK VINA RESULT:      -5.0      5.589      6.530
REMARK  6 active torsions:
REMARK  status: ('A' for Active; 'I' for Inactive)
REMARK    1  A    between atoms: C_2  and  C_3 
REMARK    2  A    between atoms: C_3  and  C_4 
REMARK    3  A    between atoms: C_4  and  C_5 
REMARK    4  A    between atoms: C_5  and  N_6 
REMARK       I    between atoms: N_6  and  C_7 
REMARK    5  A    between atoms: C_7  and  C_9 
REMARK    6  A    between atoms: C_9  and  N_10 
ROOT
HETATM    1  N   UNL     1     -40.404 -49.558  12.052  1.00  0.00    -0.241 N 
HETATM    2  N   UNL     1     -39.607 -49.923  10.994  1.00  0.00    -0.274 N 
ATOM      3  HN  UNL     1     -39.944 -50.242  10.085  1.00  0.00     0.189 HD
HETATM    4  C   UNL     1     -38.365 -49.797  11.329  1.00  0.00     0.162 A 
HETATM    5  N   UNL     1     -37.305 -50.069  10.532  1.00  0.00    -0.378 N 
HETATM    6  S   UNL     1     -38.042 -49.204  12.931  1.00  0.00     0.010 SA
HETATM    7  C   UNL     1     -39.766 -49.166  13.206  1.00  0.00     0.308 A 
HETATM    8  O   UNL     1     -40.285 -48.861  14.268  1.00  0.00    -0.258 OA
HETATM    9  H   UNL     1     -37.532 -50.141   9.546  1.00  0.00     0.158 HD
HETATM   10  H   UNL     1     -36.454 -49.564  10.739  1.00  0.00     0.158 HD
ENDROOT
BRANCH   1  11
HETATM   11  C   UNL     1     -41.847 -49.589  11.916  1.00  0.00     0.255 C 
BRANCH  11  12
HETATM   12  C   UNL     1     -42.395 -48.311  11.289  1.00  0.00     0.237 C 
HETATM   13  N   UNL     1     -42.466 -48.312   9.910  1.00  0.00    -0.360 N 
HETATM   14  H   UNL     1     -42.120 -49.116   9.394  1.00  0.00     0.162 HD
HETATM   15  O   UNL     1     -42.843 -47.396  11.975  1.00  0.00    -0.272 OA
BRANCH  13  16
HETATM   16  C   UNL     1     -42.983 -47.179   9.167  1.00  0.00     0.122 C 
BRANCH  16  17
HETATM   17  C   UNL     1     -44.357 -47.457   8.558  1.00  0.00     0.020 C 
BRANCH  17  18
HETATM   18  C   UNL     1     -45.450 -46.588   9.184  1.00  0.00     0.001 C 
BRANCH  18  19
HETATM   19  C   UNL     1     -46.829 -47.233   9.050  1.00  0.00    -0.004 C 
HETATM   20  C   UNL     1     -46.715 -48.743   8.910  1.00  0.00     0.005 C 
ENDBRANCH  18  19
ENDBRANCH  17  18
ENDBRANCH  16  17
ENDBRANCH  13  16
ENDBRANCH  11  12
ENDBRANCH   1  11
TORSDOF 6
ENDMDL
MODEL 4
REMARK VINA RESULT:      -5.0      5.119      6.700
REMARK  6 active torsions:
REMARK  status: ('A' for Active; 'I' for Inactive)
REMARK    1  A    between atoms: C_2  and  C_3 
REMARK    2  A    between atoms: C_3  and  C_4 
REMARK    3  A    between atoms: C_4  and  C_5 
REMARK    4  A    between atoms: C_5  and  N_6 
REMARK       I    between atoms: N_6  and  C_7 
REMARK    5  A    between atoms: C_7  and  C_9 
REMARK    6  A    between atoms: C_9  and  N_10 
ROOT
HETATM    1  N   UNL     1     -40.104 -49.449  11.993  1.00  0.00    -0.241 N 
HETATM    2  N   UNL     1     -40.471 -50.438  11.113  1.00  0.00    -0.274 N 
ATOM      3  HN  UNL     1     -40.431 -50.367  10.096  1.00  0.00     0.189 HD
HETATM    4  C   UNL     1     -40.876 -51.472  11.774  1.00  0.00     0.162 A 
HETATM    5  N   UNL     1     -41.314 -52.632  11.229  1.00  0.00    -0.378 N 
HETATM    6  S   UNL     1     -40.825 -51.362  13.509  1.00  0.00     0.010 SA
HETATM    7  C   UNL     1     -40.243 -49.725  13.333  1.00  0.00     0.308 A 
HETATM    8  O   UNL     1     -40.029 -48.969  14.267  1.00  0.00    -0.258 OA
HETATM    9  H   UNL     1     -41.070 -52.751  10.252  1.00  0.00     0.158 HD
HETATM   10  H   UNL     1     -41.207 -53.459  11.801  1.00  0.00     0.158 HD
ENDROOT
BRANCH   1  11
HETATM   11  C   UNL     1     -39.588 -48.190  11.492  1.00  0.00     0.255 C 
BRANCH  11  12
HETATM   12  C   UNL     1     -40.694 -47.172  11.240  1.00  0.00     0.237 C 
HETATM   13  N   UNL     1     -41.515 -47.446  10.163  1.00  0.00    -0.360 N 
HETATM   14  H   UNL     1     -41.322 -48.257   9.583  1.00  0.00     0.162 HD
HETATM   15  O   UNL     1     -40.903 -46.239  12.011  1.00  0.00    -0.272 OA
BRANCH  13  16
HETATM   16  C   UNL     1     -42.625 -46.583   9.806  1.00  0.00     0.122 C 
BRANCH  16  17
HETATM   17  C   UNL     1     -43.906 -47.367   9.522  1.00  0.00     0.020 C 
BRANCH  17  18
HETATM   18  C   UNL     1     -44.998 -46.482   8.915  1.00  0.00     0.001 C 
BRANCH  18  19
HETATM   19  C   UNL     1     -46.393 -47.049   9.177  1.00  0.00    -0.004 C 
HETATM   20  C   UNL     1     -46.499 -48.485   8.688  1.00  0.00     0.005 C 
ENDBRANCH  18  19
ENDBRANCH  17  18
ENDBRANCH  16  17
ENDBRANCH  13  16
ENDBRANCH  11  12
ENDBRANCH   1  11
TORSDOF 6
ENDMDL
MODEL 5
REMARK VINA RESULT:      -4.9      3.480      5.763
REMARK  6 active torsions:
REMARK  status: ('A' for Active; 'I' for Inactive)
REMARK    1  A    between atoms: C_2  and  C_3 
REMARK    2  A    between atoms: C_3  and  C_4 
REMARK    3  A    between atoms: C_4  and  C_5 
REMARK    4  A    between atoms: C_5  and  N_6 
REMARK       I    between atoms: N_6  and  C_7 
REMARK    5  A    between atoms: C_7  and  C_9 
REMARK    6  A    between atoms: C_9  and  N_10 
ROOT
HETATM    1  N   UNL     1     -43.048 -53.207  12.823  1.00  0.00    -0.241 N 
HETATM    2  N   UNL     1     -44.022 -52.507  12.155  1.00  0.00    -0.274 N 
ATOM      3  HN  UNL     1     -43.855 -51.761  11.479  1.00  0.00     0.189 HD
HETATM    4  C   UNL     1     -45.185 -52.940  12.516  1.00  0.00     0.162 A 
HETATM    5  N   UNL     1     -46.373 -52.477  12.059  1.00  0.00    -0.378 N 
HETATM    6  S   UNL     1     -45.213 -54.244  13.666  1.00  0.00     0.010 SA
HETATM    7  C   UNL     1     -43.469 -54.169  13.710  1.00  0.00     0.308 A 
HETATM    8  O   UNL     1     -42.772 -54.857  14.439  1.00  0.00    -0.258 OA
HETATM    9  H   UNL     1     -46.307 -51.928  11.209  1.00  0.00     0.158 HD
HETATM   10  H   UNL     1     -47.144 -53.131  12.087  1.00  0.00     0.158 HD
ENDROOT
BRANCH   1  11
HETATM   11  C   UNL     1     -41.649 -52.921  12.570  1.00  0.00     0.255 C 
BRANCH  11  12
HETATM   12  C   UNL     1     -41.378 -51.425  12.448  1.00  0.00     0.237 C 
HETATM   13  N   UNL     1     -40.610 -51.050  11.363  1.00  0.00    -0.360 N 
HETATM   14  H   UNL     1     -40.237 -51.765  10.746  1.00  0.00     0.162 HD
HETATM   15  O   UNL     1     -41.903 -50.610  13.202  1.00  0.00    -0.272 OA
BRANCH  13  16
HETATM   16  C   UNL     1     -40.282 -49.662  11.099  1.00  0.00     0.122 C 
BRANCH  16  17
HETATM   17  C   UNL     1     -39.025 -49.208  11.840  1.00  0.00     0.020 C 
BRANCH  17  18
HETATM   18  C   UNL     1     -37.781 -49.977  11.386  1.00  0.00     0.001 C 
BRANCH  18  19
HETATM   19  C   UNL     1     -37.265 -50.910  12.480  1.00  0.00    -0.004 C 
HETATM   20  C   UNL     1     -37.805 -50.506  13.843  1.00  0.00     0.005 C 
ENDBRANCH  18  19
ENDBRANCH  17  18
ENDBRANCH  16  17
ENDBRANCH  13  16
ENDBRANCH  11  12
ENDBRANCH   1  11
TORSDOF 6
ENDMDL
MODEL 6
REMARK VINA RESULT:      -4.9      5.400      6.853
REMARK  6 active torsions:
REMARK  status: ('A' for Active; 'I' for Inactive)
REMARK    1  A    between atoms: C_2  and  C_3 
REMARK    2  A    between atoms: C_3  and  C_4 
REMARK    3  A    between atoms: C_4  and  C_5 
REMARK    4  A    between atoms: C_5  and  N_6 
REMARK       I    between atoms: N_6  and  C_7 
REMARK    5  A    between atoms: C_7  and  C_9 
REMARK    6  A    between atoms: C_9  and  N_10 
ROOT
HETATM    1  N   UNL     1     -42.110 -47.506  10.070  1.00  0.00    -0.241 N 
HETATM    2  N   UNL     1     -42.581 -48.282   9.040  1.00  0.00    -0.274 N 
ATOM      3  HN  UNL     1     -42.255 -49.222   8.812  1.00  0.00     0.189 HD
HETATM    4  C   UNL     1     -43.502 -47.637   8.403  1.00  0.00     0.162 A 
HETATM    5  N   UNL     1     -44.186 -48.099   7.329  1.00  0.00    -0.378 N 
HETATM    6  S   UNL     1     -43.906 -46.054   9.000  1.00  0.00     0.010 SA
HETATM    7  C   UNL     1     -42.664 -46.256  10.212  1.00  0.00     0.308 A 
HETATM    8  O   UNL     1     -42.350 -45.396  11.020  1.00  0.00    -0.258 OA
HETATM    9  H   UNL     1     -44.119 -49.101   7.192  1.00  0.00     0.158 HD
HETATM   10  H   UNL     1     -45.109 -47.709   7.190  1.00  0.00     0.158 HD
ENDROOT
BRANCH   1  11
HETATM   11  C   UNL     1     -41.082 -48.021  10.953  1.00  0.00     0.255 C 
BRANCH  11  12
HETATM   12  C   UNL     1     -41.668 -48.752  12.157  1.00  0.00     0.237 C 
HETATM   13  N   UNL     1     -42.152 -50.019  11.901  1.00  0.00    -0.360 N 
HETATM   14  H   UNL     1     -42.139 -50.375  10.949  1.00  0.00     0.162 HD
HETATM   15  O   UNL     1     -41.606 -48.282  13.290  1.00  0.00    -0.272 OA
BRANCH  13  16
HETATM   16  C   UNL     1     -42.723 -50.848  12.946  1.00  0.00     0.122 C 
BRANCH  16  17
HETATM   17  C   UNL     1     -44.126 -50.396  13.349  1.00  0.00     0.020 C 
BRANCH  17  18
HETATM   18  C   UNL     1     -44.812 -51.406  14.272  1.00  0.00     0.001 C 
BRANCH  18  19
HETATM   19  C   UNL     1     -46.311 -51.500  13.990  1.00  0.00    -0.004 C 
HETATM   20  C   UNL     1     -46.577 -51.669  12.502  1.00  0.00     0.005 C 
ENDBRANCH  18  19
ENDBRANCH  17  18
ENDBRANCH  16  17
ENDBRANCH  13  16
ENDBRANCH  11  12
ENDBRANCH   1  11
TORSDOF 6
ENDMDL
MODEL 7
REMARK VINA RESULT:      -4.8      1.891      2.371
REMARK  6 active torsions:
REMARK  status: ('A' for Active; 'I' for Inactive)
REMARK    1  A    between atoms: C_2  and  C_3 
REMARK    2  A    between atoms: C_3  and  C_4 
REMARK    3  A    between atoms: C_4  and  C_5 
REMARK    4  A    between atoms: C_5  and  N_6 
REMARK       I    between atoms: N_6  and  C_7 
REMARK    5  A    between atoms: C_7  and  C_9 
REMARK    6  A    between atoms: C_9  and  N_10 
ROOT
HETATM    1  N   UNL     1     -42.876 -53.591  12.840  1.00  0.00    -0.241 N 
HETATM    2  N   UNL     1     -42.657 -52.687  11.830  1.00  0.00    -0.274 N 
ATOM      3  HN  UNL     1     -43.314 -52.469  11.081  1.00  0.00     0.189 HD
HETATM    4  C   UNL     1     -41.488 -52.155  11.976  1.00  0.00     0.162 A 
HETATM    5  N   UNL     1     -40.941 -51.222  11.160  1.00  0.00    -0.378 N 
HETATM    6  S   UNL     1     -40.559 -52.670  13.353  1.00  0.00     0.010 SA
HETATM    7  C   UNL     1     -41.863 -53.761  13.754  1.00  0.00     0.308 A 
HETATM    8  O   UNL     1     -41.834 -54.550  14.685  1.00  0.00    -0.258 OA
HETATM    9  H   UNL     1     -41.607 -50.759  10.551  1.00  0.00     0.158 HD
HETATM   10  H   UNL     1     -40.253 -50.612  11.583  1.00  0.00     0.158 HD
ENDROOT
BRANCH   1  11
HETATM   11  C   UNL     1     -44.135 -54.306  12.911  1.00  0.00     0.255 C 
BRANCH  11  12
HETATM   12  C   UNL     1     -45.330 -53.363  12.996  1.00  0.00     0.237 C 
HETATM   13  N   UNL     1     -45.747 -53.050  14.274  1.00  0.00    -0.360 N 
HETATM   14  H   UNL     1     -45.286 -53.483  15.069  1.00  0.00     0.162 HD
HETATM   15  O   UNL     1     -45.810 -52.837  11.995  1.00  0.00    -0.272 OA
BRANCH  13  16
HETATM   16  C   UNL     1     -46.859 -52.151  14.520  1.00  0.00     0.122 C 
BRANCH  16  17
HETATM   17  C   UNL     1     -46.609 -51.226  15.711  1.00  0.00     0.020 C 
BRANCH  17  18
HETATM   18  C   UNL     1     -47.793 -51.206  16.681  1.00  0.00     0.001 C 
BRANCH  18  19
HETATM   19  C   UNL     1     -47.360 -50.809  18.091  1.00  0.00    -0.004 C 
HETATM   20  C   UNL     1     -46.211 -49.813  18.050  1.00  0.00     0.005 C 
ENDBRANCH  18  19
ENDBRANCH  17  18
ENDBRANCH  16  17
ENDBRANCH  13  16
ENDBRANCH  11  12
ENDBRANCH   1  11
TORSDOF 6
ENDMDL
MODEL 8
REMARK VINA RESULT:      -4.7      1.403      1.981
REMARK  6 active torsions:
REMARK  status: ('A' for Active; 'I' for Inactive)
REMARK    1  A    between atoms: C_2  and  C_3 
REMARK    2  A    between atoms: C_3  and  C_4 
REMARK    3  A    between atoms: C_4  and  C_5 
REMARK    4  A    between atoms: C_5  and  N_6 
REMARK       I    between atoms: N_6  and  C_7 
REMARK    5  A    between atoms: C_7  and  C_9 
REMARK    6  A    between atoms: C_9  and  N_10 
ROOT
HETATM    1  N   UNL     1     -42.349 -54.504  14.166  1.00  0.00    -0.241 N 
HETATM    2  N   UNL     1     -42.339 -54.050  12.870  1.00  0.00    -0.274 N 
ATOM      3  HN  UNL     1     -43.135 -54.068  12.233  1.00  0.00     0.189 HD
HETATM    4  C   UNL     1     -41.163 -53.595  12.585  1.00  0.00     0.162 A 
HETATM    5  N   UNL     1     -40.792 -53.069  11.393  1.00  0.00    -0.378 N 
HETATM    6  S   UNL     1     -39.974 -53.646  13.852  1.00  0.00     0.010 SA
HETATM    7  C   UNL     1     -41.171 -54.410  14.869  1.00  0.00     0.308 A 
HETATM    8  O   UNL     1     -40.955 -54.805  16.003  1.00  0.00    -0.258 OA
HETATM    9  H   UNL     1     -41.567 -52.809  10.793  1.00  0.00     0.158 HD
HETATM   10  H   UNL     1     -40.030 -52.405  11.420  1.00  0.00     0.158 HD
ENDROOT
BRANCH   1  11
HETATM   11  C   UNL     1     -43.570 -55.043  14.735  1.00  0.00     0.255 C 
BRANCH  11  12
HETATM   12  C   UNL     1     -44.818 -54.444  14.095  1.00  0.00     0.237 C 
HETATM   13  N   UNL     1     -45.338 -53.337  14.735  1.00  0.00    -0.360 N 
HETATM   14  H   UNL     1     -44.909 -53.012  15.597  1.00  0.00     0.162 HD
HETATM   15  O   UNL     1     -45.255 -54.856  13.024  1.00  0.00    -0.272 OA
BRANCH  13  16
HETATM   16  C   UNL     1     -46.511 -52.643  14.238  1.00  0.00     0.122 C 
BRANCH  16  17
HETATM   17  C   UNL     1     -46.812 -51.368  15.024  1.00  0.00     0.020 C 
BRANCH  17  18
HETATM   18  C   UNL     1     -47.551 -51.661  16.333  1.00  0.00     0.001 C 
BRANCH  18  19
HETATM   19  C   UNL     1     -47.267 -50.596  17.391  1.00  0.00    -0.004 C 
HETATM   20  C   UNL     1     -47.008 -51.231  18.749  1.00  0.00     0.005 C 
ENDBRANCH  18  19
ENDBRANCH  17  18
ENDBRANCH  16  17
ENDBRANCH  13  16
ENDBRANCH  11  12
ENDBRANCH   1  11
TORSDOF 6
ENDMDL
MODEL 9
REMARK VINA RESULT:      -4.7      1.965      2.647
REMARK  6 active torsions:
REMARK  status: ('A' for Active; 'I' for Inactive)
REMARK    1  A    between atoms: C_2  and  C_3 
REMARK    2  A    between atoms: C_3  and  C_4 
REMARK    3  A    between atoms: C_4  and  C_5 
REMARK    4  A    between atoms: C_5  and  N_6 
REMARK       I    between atoms: N_6  and  C_7 
REMARK    5  A    between atoms: C_7  and  C_9 
REMARK    6  A    between atoms: C_9  and  N_10 
ROOT
HETATM    1  N   UNL     1     -41.735 -53.214  12.992  1.00  0.00    -0.241 N 
HETATM    2  N   UNL     1     -40.720 -54.066  12.630  1.00  0.00    -0.274 N 
ATOM      3  HN  UNL     1     -40.590 -54.466  11.700  1.00  0.00     0.189 HD
HETATM    4  C   UNL     1     -39.956 -54.281  13.650  1.00  0.00     0.162 A 
HETATM    5  N   UNL     1     -38.858 -55.073  13.656  1.00  0.00    -0.378 N 
HETATM    6  S   UNL     1     -40.370 -53.460  15.126  1.00  0.00     0.010 SA
HETATM    7  C   UNL     1     -41.754 -52.788  14.299  1.00  0.00     0.308 A 
HETATM    8  O   UNL     1     -42.594 -52.082  14.833  1.00  0.00    -0.258 OA
HETATM    9  H   UNL     1     -38.504 -55.302  12.733  1.00  0.00     0.158 HD
HETATM   10  H   UNL     1     -38.150 -54.844  14.340  1.00  0.00     0.158 HD
ENDROOT
BRANCH   1  11
HETATM   11  C   UNL     1     -42.716 -52.797  12.009  1.00  0.00     0.255 C 
BRANCH  11  12
HETATM   12  C   UNL     1     -44.139 -53.147  12.429  1.00  0.00     0.237 C 
HETATM   13  N   UNL     1     -44.972 -52.069  12.652  1.00  0.00    -0.360 N 
HETATM   14  H   UNL     1     -44.600 -51.127  12.574  1.00  0.00     0.162 HD
HETATM   15  O   UNL     1     -44.538 -54.309  12.456  1.00  0.00    -0.272 OA
BRANCH  13  16
HETATM   16  C   UNL     1     -46.360 -52.239  13.039  1.00  0.00     0.122 C 
BRANCH  16  17
HETATM   17  C   UNL     1     -46.743 -51.369  14.236  1.00  0.00     0.020 C 
BRANCH  17  18
HETATM   18  C   UNL     1     -47.129 -52.209  15.456  1.00  0.00     0.001 C 
BRANCH  18  19
HETATM   19  C   UNL     1     -45.926 -52.479  16.359  1.00  0.00    -0.004 C 
HETATM   20  C   UNL     1     -45.379 -53.880  16.135  1.00  0.00     0.005 C 
ENDBRANCH  18  19
ENDBRANCH  17  18
ENDBRANCH  16  17
ENDBRANCH  13  16
ENDBRANCH  11  12
ENDBRANCH   1  11
TORSDOF 6
ENDMDL
