MODEL 1
REMARK VINA RESULT:      -6.2      0.000      0.000
REMARK  7 active torsions:
REMARK  status: ('A' for Active; 'I' for Inactive)
REMARK    1  A    between atoms: C_2  and  O_3 
REMARK    2  A    between atoms: O_3  and  C_4 
REMARK    3  A    between atoms: N_7  and  C_8 
REMARK    4  A    between atoms: C_8  and  C_9 
REMARK    5  A    between atoms: C_9  and  O_10 
REMARK    6  A    between atoms: C_9  and  C_11 
REMARK    7  A    between atoms: C_11  and  N_12 
ROOT
HETATM    1  C   UNL     1     -41.484 -52.249  11.954  1.00  0.00     0.164 C 
ENDROOT
BRANCH   1   2
HETATM    2  C   UNL     1     -40.812 -50.867  11.757  1.00  0.00     0.305 C 
BRANCH   2   3
HETATM    3  N   UNL     1     -41.392 -49.726  12.495  1.00  0.00     0.091 N 
HETATM    4  C   UNL     1     -42.291 -48.859  11.714  1.00  0.00     0.275 C 
HETATM    5  C   UNL     1     -41.568 -48.107  10.590  1.00  0.00     0.062 C 
HETATM    6  C   UNL     1     -40.430 -47.250  11.159  1.00  0.00     0.124 C 
HETATM    7  C   UNL     1     -39.526 -48.103  12.059  1.00  0.00     0.062 C 
HETATM    8  C   UNL     1     -40.342 -48.883  13.098  1.00  0.00     0.275 C 
BRANCH   6   9
HETATM    9  O   UNL     1     -41.045 -46.169  11.870  1.00  0.00    -0.386 OA
BRANCH   9  10
HETATM   10  C   UNL     1     -41.118 -44.949  11.141  1.00  0.00     0.163 C 
HETATM   11  C   UNL     1     -39.803 -44.755  10.415  1.00  0.00     0.033 C 
ENDBRANCH   9  10
ENDBRANCH   6   9
ENDBRANCH   2   3
ENDBRANCH   1   2
BRANCH   1  12
HETATM   12  O   UNL     1     -40.611 -53.318  11.575  1.00  0.00    -0.392 OA
HETATM   13  H   UNL     1     -40.690 -53.467  10.623  1.00  0.00     0.210 HD
ENDBRANCH   1  12
BRANCH   1  14
HETATM   14  C   UNL     1     -41.842 -52.440  13.438  1.00  0.00     0.163 C 
BRANCH  14  15
HETATM   15  N   UNL     1     -43.221 -52.863  13.598  1.00  0.00    -0.339 N 
HETATM   16  C   UNL     1     -43.845 -53.808  12.830  1.00  0.00     0.184 A 
HETATM   17  N   UNL     1     -45.129 -53.875  13.097  1.00  0.00    -0.350 N 
HETATM   18  C   UNL     1     -45.335 -52.935  14.074  1.00  0.00     0.060 A 
ATOM     19  HN  UNL     1     -45.821 -54.492  12.671  1.00  0.00     0.166 HD
HETATM   20  C   UNL     1     -46.528 -52.543  14.694  1.00  0.00     0.039 A 
HETATM   21  C   UNL     1     -44.147 -52.317  14.444  1.00  0.00     0.062 A 
HETATM   22  C   UNL     1     -46.502 -51.559  15.705  1.00  0.00    -0.054 A 
HETATM   23  C   UNL     1     -47.806 -51.163  16.340  1.00  0.00     0.049 C 
HETATM   24  C   UNL     1     -45.273 -50.983  16.097  1.00  0.00    -0.054 A 
HETATM   25  C   UNL     1     -45.164 -49.967  17.204  1.00  0.00     0.049 C 
HETATM   26  C   UNL     1     -44.075 -51.347  15.446  1.00  0.00     0.039 A 
ENDBRANCH  14  15
ENDBRANCH   1  14
TORSDOF 7
ENDMDL
MODEL 2
REMARK VINA RESULT:      -6.1      1.942      2.875
REMARK  7 active torsions:
REMARK  status: ('A' for Active; 'I' for Inactive)
REMARK    1  A    between atoms: C_2  and  O_3 
REMARK    2  A    between atoms: O_3  and  C_4 
REMARK    3  A    between atoms: N_7  and  C_8 
REMARK    4  A    between atoms: C_8  and  C_9 
REMARK    5  A    between atoms: C_9  and  O_10 
REMARK    6  A    between atoms: C_9  and  C_11 
REMARK    7  A    between atoms: C_11  and  N_12 
ROOT
HETATM    1  C   UNL     1     -39.250 -50.013  12.899  1.00  0.00     0.164 C 
ENDROOT
BRANCH   1   2
HETATM    2  C   UNL     1     -39.873 -48.596  12.840  1.00  0.00     0.305 C 
BRANCH   2   3
HETATM    3  N   UNL     1     -40.188 -48.055  11.502  1.00  0.00     0.091 N 
HETATM    4  C   UNL     1     -40.500 -46.616  11.458  1.00  0.00     0.275 C 
HETATM    5  C   UNL     1     -41.796 -46.262  12.198  1.00  0.00     0.062 C 
HETATM    6  C   UNL     1     -42.981 -47.039  11.611  1.00  0.00     0.124 C 
HETATM    7  C   UNL     1     -42.652 -48.536  11.552  1.00  0.00     0.062 C 
HETATM    8  C   UNL     1     -41.302 -48.790  10.871  1.00  0.00     0.275 C 
BRANCH   6   9
HETATM    9  O   UNL     1     -43.236 -46.484  10.316  1.00  0.00    -0.386 OA
BRANCH   9  10
HETATM   10  C   UNL     1     -44.250 -47.154   9.577  1.00  0.00     0.163 C 
HETATM   11  C   UNL     1     -43.697 -47.477   8.205  1.00  0.00     0.033 C 
ENDBRANCH   9  10
ENDBRANCH   6   9
ENDBRANCH   2   3
ENDBRANCH   1   2
BRANCH   1  12
HETATM   12  O   UNL     1     -37.870 -49.965  13.277  1.00  0.00    -0.392 OA
HETATM   13  H   UNL     1     -37.763 -50.391  14.139  1.00  0.00     0.210 HD
ENDBRANCH   1  12
BRANCH   1  14
HETATM   14  C   UNL     1     -39.993 -50.859  13.946  1.00  0.00     0.163 C 
BRANCH  14  15
HETATM   15  N   UNL     1     -41.180 -51.475  13.381  1.00  0.00    -0.339 N 
HETATM   16  C   UNL     1     -41.221 -52.153  12.193  1.00  0.00     0.184 A 
HETATM   17  N   UNL     1     -42.452 -52.465  11.859  1.00  0.00    -0.350 N 
HETATM   18  C   UNL     1     -43.230 -51.967  12.874  1.00  0.00     0.060 A 
ATOM     19  HN  UNL     1     -42.761 -52.968  11.028  1.00  0.00     0.166 HD
HETATM   20  C   UNL     1     -44.623 -51.969  13.009  1.00  0.00     0.039 A 
HETATM   21  C   UNL     1     -42.456 -51.382  13.868  1.00  0.00     0.062 A 
HETATM   22  C   UNL     1     -45.216 -51.414  14.163  1.00  0.00    -0.054 A 
HETATM   23  C   UNL     1     -46.716 -51.432  14.266  1.00  0.00     0.049 C 
HETATM   24  C   UNL     1     -44.403 -50.872  15.182  1.00  0.00    -0.054 A 
HETATM   25  C   UNL     1     -44.963 -50.312  16.463  1.00  0.00     0.049 C 
HETATM   26  C   UNL     1     -43.000 -50.832  15.029  1.00  0.00     0.039 A 
ENDBRANCH  14  15
ENDBRANCH   1  14
TORSDOF 7
ENDMDL
MODEL 3
REMARK VINA RESULT:      -6.0      1.954      7.431
REMARK  7 active torsions:
REMARK  status: ('A' for Active; 'I' for Inactive)
REMARK    1  A    between atoms: C_2  and  O_3 
REMARK    2  A    between atoms: O_3  and  C_4 
REMARK    3  A    between atoms: N_7  and  C_8 
REMARK    4  A    between atoms: C_8  and  C_9 
REMARK    5  A    between atoms: C_9  and  O_10 
REMARK    6  A    between atoms: C_9  and  C_11 
REMARK    7  A    between atoms: C_11  and  N_12 
ROOT
HETATM    1  C   UNL     1     -40.963 -52.702  12.457  1.00  0.00     0.164 C 
ENDROOT
BRANCH   1   2
HETATM    2  C   UNL     1     -42.075 -53.409  13.272  1.00  0.00     0.305 C 
BRANCH   2   3
HETATM    3  N   UNL     1     -43.410 -52.777  13.276  1.00  0.00     0.091 N 
HETATM    4  C   UNL     1     -43.783 -52.094  14.527  1.00  0.00     0.275 C 
HETATM    5  C   UNL     1     -43.944 -53.057  15.709  1.00  0.00     0.062 C 
HETATM    6  C   UNL     1     -45.002 -54.123  15.397  1.00  0.00     0.124 C 
HETATM    7  C   UNL     1     -44.698 -54.789  14.049  1.00  0.00     0.062 C 
HETATM    8  C   UNL     1     -44.470 -53.749  12.945  1.00  0.00     0.275 C 
BRANCH   6   9
HETATM    9  O   UNL     1     -46.270 -53.457  15.403  1.00  0.00    -0.386 OA
BRANCH   9  10
HETATM   10  C   UNL     1     -46.523 -52.681  16.569  1.00  0.00     0.163 C 
HETATM   11  C   UNL     1     -47.339 -51.472  16.162  1.00  0.00     0.033 C 
ENDBRANCH   9  10
ENDBRANCH   6   9
ENDBRANCH   2   3
ENDBRANCH   1   2
BRANCH   1  12
HETATM   12  O   UNL     1     -40.467 -53.540  11.408  1.00  0.00    -0.392 OA
HETATM   13  H   UNL     1     -39.514 -53.402  11.317  1.00  0.00     0.210 HD
ENDBRANCH   1  12
BRANCH   1  14
HETATM   14  C   UNL     1     -41.530 -51.428  11.810  1.00  0.00     0.163 C 
BRANCH  14  15
HETATM   15  N   UNL     1     -40.564 -50.345  11.841  1.00  0.00    -0.339 N 
HETATM   16  C   UNL     1     -39.331 -50.412  12.430  1.00  0.00     0.184 A 
HETATM   17  N   UNL     1     -38.738 -49.241  12.441  1.00  0.00    -0.350 N 
HETATM   18  C   UNL     1     -39.627 -48.390  11.834  1.00  0.00     0.060 A 
ATOM     19  HN  UNL     1     -37.817 -49.014  12.817  1.00  0.00     0.166 HD
HETATM   20  C   UNL     1     -39.533 -47.009  11.622  1.00  0.00     0.039 A 
HETATM   21  C   UNL     1     -40.762 -49.064  11.403  1.00  0.00     0.062 A 
HETATM   22  C   UNL     1     -40.570 -46.333  10.946  1.00  0.00    -0.054 A 
HETATM   23  C   UNL     1     -40.432 -44.849  10.745  1.00  0.00     0.049 C 
HETATM   24  C   UNL     1     -41.691 -47.051  10.473  1.00  0.00    -0.054 A 
HETATM   25  C   UNL     1     -42.808 -46.404   9.697  1.00  0.00     0.049 C 
HETATM   26  C   UNL     1     -41.806 -48.436  10.721  1.00  0.00     0.039 A 
ENDBRANCH  14  15
ENDBRANCH   1  14
TORSDOF 7
ENDMDL
MODEL 4
REMARK VINA RESULT:      -5.9      3.091      4.105
REMARK  7 active torsions:
REMARK  status: ('A' for Active; 'I' for Inactive)
REMARK    1  A    between atoms: C_2  and  O_3 
REMARK    2  A    between atoms: O_3  and  C_4 
REMARK    3  A    between atoms: N_7  and  C_8 
REMARK    4  A    between atoms: C_8  and  C_9 
REMARK    5  A    between atoms: C_9  and  O_10 
REMARK    6  A    between atoms: C_9  and  C_11 
REMARK    7  A    between atoms: C_11  and  N_12 
ROOT
HETATM    1  C   UNL     1     -38.158 -51.019  13.090  1.00  0.00     0.164 C 
ENDROOT
BRANCH   1   2
HETATM    2  C   UNL     1     -37.726 -49.956  14.131  1.00  0.00     0.305 C 
BRANCH   2   3
HETATM    3  N   UNL     1     -37.563 -48.569  13.647  1.00  0.00     0.091 N 
HETATM    4  C   UNL     1     -37.048 -47.609  14.639  1.00  0.00     0.275 C 
HETATM    5  C   UNL     1     -38.020 -47.371  15.800  1.00  0.00     0.062 C 
HETATM    6  C   UNL     1     -39.369 -46.862  15.279  1.00  0.00     0.124 C 
HETATM    7  C   UNL     1     -39.891 -47.788  14.172  1.00  0.00     0.062 C 
HETATM    8  C   UNL     1     -38.825 -48.037  13.098  1.00  0.00     0.275 C 
BRANCH   6   9
HETATM    9  O   UNL     1     -39.153 -45.525  14.815  1.00  0.00    -0.386 OA
BRANCH   9  10
HETATM   10  C   UNL     1     -40.262 -44.950  14.132  1.00  0.00     0.163 C 
HETATM   11  C   UNL     1     -39.749 -44.295  12.868  1.00  0.00     0.033 C 
ENDBRANCH   9  10
ENDBRANCH   6   9
ENDBRANCH   2   3
ENDBRANCH   1   2
BRANCH   1  12
HETATM   12  O   UNL     1     -37.028 -51.685  12.518  1.00  0.00    -0.392 OA
HETATM   13  H   UNL     1     -37.339 -52.355  11.894  1.00  0.00     0.210 HD
ENDBRANCH   1  12
BRANCH   1  14
HETATM   14  C   UNL     1     -39.032 -52.083  13.775  1.00  0.00     0.163 C 
BRANCH  14  15
HETATM   15  N   UNL     1     -40.295 -52.256  13.080  1.00  0.00    -0.339 N 
HETATM   16  C   UNL     1     -40.702 -51.521  12.000  1.00  0.00     0.184 A 
HETATM   17  N   UNL     1     -41.946 -51.788  11.676  1.00  0.00    -0.350 N 
HETATM   18  C   UNL     1     -42.352 -52.731  12.586  1.00  0.00     0.060 A 
ATOM     19  HN  UNL     1     -42.490 -51.383  10.915  1.00  0.00     0.166 HD
HETATM   20  C   UNL     1     -43.606 -53.335  12.742  1.00  0.00     0.039 A 
HETATM   21  C   UNL     1     -41.322 -53.081  13.450  1.00  0.00     0.062 A 
HETATM   22  C   UNL     1     -43.794 -54.310  13.744  1.00  0.00    -0.054 A 
HETATM   23  C   UNL     1     -45.157 -54.929  13.881  1.00  0.00     0.049 C 
HETATM   24  C   UNL     1     -42.715 -54.684  14.576  1.00  0.00    -0.054 A 
HETATM   25  C   UNL     1     -42.830 -55.755  15.629  1.00  0.00     0.049 C 
HETATM   26  C   UNL     1     -41.462 -54.047  14.447  1.00  0.00     0.039 A 
ENDBRANCH  14  15
ENDBRANCH   1  14
TORSDOF 7
ENDMDL
MODEL 5
REMARK VINA RESULT:      -5.9      1.559      2.228
REMARK  7 active torsions:
REMARK  status: ('A' for Active; 'I' for Inactive)
REMARK    1  A    between atoms: C_2  and  O_3 
REMARK    2  A    between atoms: O_3  and  C_4 
REMARK    3  A    between atoms: N_7  and  C_8 
REMARK    4  A    between atoms: C_8  and  C_9 
REMARK    5  A    between atoms: C_9  and  O_10 
REMARK    6  A    between atoms: C_9  and  C_11 
REMARK    7  A    between atoms: C_11  and  N_12 
ROOT
HETATM    1  C   UNL     1     -41.058 -52.816  12.456  1.00  0.00     0.164 C 
ENDROOT
BRANCH   1   2
HETATM    2  C   UNL     1     -39.975 -51.945  13.141  1.00  0.00     0.305 C 
BRANCH   2   3
HETATM    3  N   UNL     1     -40.387 -50.604  13.606  1.00  0.00     0.091 N 
HETATM    4  C   UNL     1     -41.179 -49.817  12.645  1.00  0.00     0.275 C 
HETATM    5  C   UNL     1     -40.386 -49.430  11.391  1.00  0.00     0.062 C 
HETATM    6  C   UNL     1     -39.136 -48.627  11.770  1.00  0.00     0.124 C 
HETATM    7  C   UNL     1     -38.334 -49.375  12.844  1.00  0.00     0.062 C 
HETATM    8  C   UNL     1     -39.224 -49.796  14.020  1.00  0.00     0.275 C 
BRANCH   6   9
HETATM    9  O   UNL     1     -39.590 -47.347  12.222  1.00  0.00    -0.386 OA
BRANCH   9  10
HETATM   10  C   UNL     1     -40.063 -46.491  11.188  1.00  0.00     0.163 C 
HETATM   11  C   UNL     1     -39.814 -45.058  11.612  1.00  0.00     0.033 C 
ENDBRANCH   9  10
ENDBRANCH   6   9
ENDBRANCH   2   3
ENDBRANCH   1   2
BRANCH   1  12
HETATM   12  O   UNL     1     -40.560 -53.435  11.266  1.00  0.00    -0.392 OA
HETATM   13  H   UNL     1     -40.647 -54.395  11.348  1.00  0.00     0.210 HD
ENDBRANCH   1  12
BRANCH   1  14
HETATM   14  C   UNL     1     -41.502 -53.934  13.415  1.00  0.00     0.163 C 
BRANCH  14  15
HETATM   15  N   UNL     1     -42.226 -53.397  14.552  1.00  0.00    -0.339 N 
HETATM   16  C   UNL     1     -41.809 -53.473  15.853  1.00  0.00     0.184 A 
HETATM   17  N   UNL     1     -42.733 -53.044  16.681  1.00  0.00    -0.350 N 
HETATM   18  C   UNL     1     -43.784 -52.678  15.879  1.00  0.00     0.060 A 
ATOM     19  HN  UNL     1     -42.681 -52.992  17.699  1.00  0.00     0.166 HD
HETATM   20  C   UNL     1     -45.051 -52.200  16.234  1.00  0.00     0.039 A 
HETATM   21  C   UNL     1     -43.477 -52.843  14.534  1.00  0.00     0.062 A 
HETATM   22  C   UNL     1     -45.979 -51.860  15.228  1.00  0.00    -0.054 A 
HETATM   23  C   UNL     1     -47.331 -51.356  15.653  1.00  0.00     0.049 C 
HETATM   24  C   UNL     1     -45.624 -51.989  13.867  1.00  0.00    -0.054 A 
HETATM   25  C   UNL     1     -46.543 -51.595  12.741  1.00  0.00     0.049 C 
HETATM   26  C   UNL     1     -44.362 -52.509  13.506  1.00  0.00     0.039 A 
ENDBRANCH  14  15
ENDBRANCH   1  14
TORSDOF 7
ENDMDL
MODEL 6
REMARK VINA RESULT:      -5.8      2.366      3.016
REMARK  7 active torsions:
REMARK  status: ('A' for Active; 'I' for Inactive)
REMARK    1  A    between atoms: C_2  and  O_3 
REMARK    2  A    between atoms: O_3  and  C_4 
REMARK    3  A    between atoms: N_7  and  C_8 
REMARK    4  A    between atoms: C_8  and  C_9 
REMARK    5  A    between atoms: C_9  and  O_10 
REMARK    6  A    between atoms: C_9  and  C_11 
REMARK    7  A    between atoms: C_11  and  N_12 
ROOT
HETATM    1  C   UNL     1     -41.463 -52.427  12.117  1.00  0.00     0.164 C 
ENDROOT
BRANCH   1   2
HETATM    2  C   UNL     1     -40.636 -51.157  12.438  1.00  0.00     0.305 C 
BRANCH   2   3
HETATM    3  N   UNL     1     -39.959 -51.110  13.751  1.00  0.00     0.091 N 
HETATM    4  C   UNL     1     -39.974 -49.800  14.425  1.00  0.00     0.275 C 
HETATM    5  C   UNL     1     -39.170 -48.732  13.674  1.00  0.00     0.062 C 
HETATM    6  C   UNL     1     -37.713 -49.178  13.500  1.00  0.00     0.124 C 
HETATM    7  C   UNL     1     -37.660 -50.584  12.888  1.00  0.00     0.062 C 
HETATM    8  C   UNL     1     -38.558 -51.565  13.652  1.00  0.00     0.275 C 
BRANCH   6   9
HETATM    9  O   UNL     1     -37.109 -49.124  14.797  1.00  0.00    -0.386 OA
BRANCH   9  10
HETATM   10  C   UNL     1     -36.810 -47.810  15.255  1.00  0.00     0.163 C 
HETATM   11  C   UNL     1     -35.907 -47.927  16.465  1.00  0.00     0.033 C 
ENDBRANCH   9  10
ENDBRANCH   6   9
ENDBRANCH   2   3
ENDBRANCH   1   2
BRANCH   1  12
HETATM   12  O   UNL     1     -40.650 -53.449  11.530  1.00  0.00    -0.392 OA
HETATM   13  H   UNL     1     -40.582 -53.292  10.578  1.00  0.00     0.210 HD
ENDBRANCH   1  12
BRANCH   1  14
HETATM   14  C   UNL     1     -42.062 -52.993  13.415  1.00  0.00     0.163 C 
BRANCH  14  15
HETATM   15  N   UNL     1     -43.513 -52.939  13.394  1.00  0.00    -0.339 N 
HETATM   16  C   UNL     1     -44.292 -53.226  12.306  1.00  0.00     0.184 A 
HETATM   17  N   UNL     1     -45.554 -52.944  12.530  1.00  0.00    -0.350 N 
HETATM   18  C   UNL     1     -45.585 -52.457  13.812  1.00  0.00     0.060 A 
ATOM     19  HN  UNL     1     -46.340 -53.061  11.890  1.00  0.00     0.166 HD
HETATM   20  C   UNL     1     -46.666 -51.955  14.548  1.00  0.00     0.039 A 
HETATM   21  C   UNL     1     -44.325 -52.488  14.398  1.00  0.00     0.062 A 
HETATM   22  C   UNL     1     -46.469 -51.525  15.877  1.00  0.00    -0.054 A 
HETATM   23  C   UNL     1     -47.655 -50.988  16.629  1.00  0.00     0.049 C 
HETATM   24  C   UNL     1     -45.188 -51.614  16.465  1.00  0.00    -0.054 A 
HETATM   25  C   UNL     1     -44.916 -51.224  17.895  1.00  0.00     0.049 C 
HETATM   26  C   UNL     1     -44.088 -52.082  15.712  1.00  0.00     0.039 A 
ENDBRANCH  14  15
ENDBRANCH   1  14
TORSDOF 7
ENDMDL
MODEL 7
REMARK VINA RESULT:      -5.7      2.666      4.229
REMARK  7 active torsions:
REMARK  status: ('A' for Active; 'I' for Inactive)
REMARK    1  A    between atoms: C_2  and  O_3 
REMARK    2  A    between atoms: O_3  and  C_4 
REMARK    3  A    between atoms: N_7  and  C_8 
REMARK    4  A    between atoms: C_8  and  C_9 
REMARK    5  A    between atoms: C_9  and  O_10 
REMARK    6  A    between atoms: C_9  and  C_11 
REMARK    7  A    between atoms: C_11  and  N_12 
ROOT
HETATM    1  C   UNL     1     -41.302 -48.972  11.146  1.00  0.00     0.164 C 
ENDROOT
BRANCH   1   2
HETATM    2  C   UNL     1     -41.045 -47.469  10.871  1.00  0.00     0.305 C 
BRANCH   2   3
HETATM    3  N   UNL     1     -42.191 -46.551  11.033  1.00  0.00     0.091 N 
HETATM    4  C   UNL     1     -43.446 -47.178  11.482  1.00  0.00     0.275 C 
HETATM    5  C   UNL     1     -44.031 -48.151  10.451  1.00  0.00     0.062 C 
HETATM    6  C   UNL     1     -44.289 -47.435   9.119  1.00  0.00     0.124 C 
HETATM    7  C   UNL     1     -43.026 -46.688   8.668  1.00  0.00     0.062 C 
HETATM    8  C   UNL     1     -42.465 -45.804   9.789  1.00  0.00     0.275 C 
BRANCH   6   9
HETATM    9  O   UNL     1     -45.397 -46.554   9.334  1.00  0.00    -0.386 OA
BRANCH   9  10
HETATM   10  C   UNL     1     -46.671 -47.187   9.288  1.00  0.00     0.163 C 
HETATM   11  C   UNL     1     -46.582 -48.356   8.330  1.00  0.00     0.033 C 
ENDBRANCH   9  10
ENDBRANCH   6   9
ENDBRANCH   2   3
ENDBRANCH   1   2
BRANCH   1  12
HETATM   12  O   UNL     1     -40.652 -49.802  10.178  1.00  0.00    -0.392 OA
HETATM   13  H   UNL     1     -41.313 -50.144   9.560  1.00  0.00     0.210 HD
ENDBRANCH   1  12
BRANCH   1  14
HETATM   14  C   UNL     1     -40.747 -49.344  12.530  1.00  0.00     0.163 C 
BRANCH  14  15
HETATM   15  N   UNL     1     -40.944 -50.754  12.816  1.00  0.00    -0.339 N 
HETATM   16  C   UNL     1     -39.962 -51.706  12.779  1.00  0.00     0.184 A 
HETATM   17  N   UNL     1     -40.455 -52.913  12.928  1.00  0.00    -0.350 N 
HETATM   18  C   UNL     1     -41.808 -52.727  13.065  1.00  0.00     0.060 A 
ATOM     19  HN  UNL     1     -39.944 -53.796  12.939  1.00  0.00     0.166 HD
HETATM   20  C   UNL     1     -42.827 -53.678  13.201  1.00  0.00     0.039 A 
HETATM   21  C   UNL     1     -42.140 -51.378  13.048  1.00  0.00     0.062 A 
HETATM   22  C   UNL     1     -44.164 -53.254  13.354  1.00  0.00    -0.054 A 
HETATM   23  C   UNL     1     -45.228 -54.307  13.491  1.00  0.00     0.049 C 
HETATM   24  C   UNL     1     -44.468 -51.875  13.384  1.00  0.00    -0.054 A 
HETATM   25  C   UNL     1     -45.864 -51.350  13.599  1.00  0.00     0.049 C 
HETATM   26  C   UNL     1     -43.447 -50.916  13.207  1.00  0.00     0.039 A 
ENDBRANCH  14  15
ENDBRANCH   1  14
TORSDOF 7
ENDMDL
MODEL 8
REMARK VINA RESULT:      -5.7      1.904      3.161
REMARK  7 active torsions:
REMARK  status: ('A' for Active; 'I' for Inactive)
REMARK    1  A    between atoms: C_2  and  O_3 
REMARK    2  A    between atoms: O_3  and  C_4 
REMARK    3  A    between atoms: N_7  and  C_8 
REMARK    4  A    between atoms: C_8  and  C_9 
REMARK    5  A    between atoms: C_9  and  O_10 
REMARK    6  A    between atoms: C_9  and  C_11 
REMARK    7  A    between atoms: C_11  and  N_12 
ROOT
HETATM    1  C   UNL     1     -41.077 -49.635  11.542  1.00  0.00     0.164 C 
ENDROOT
BRANCH   1   2
HETATM    2  C   UNL     1     -40.812 -48.127  11.776  1.00  0.00     0.305 C 
BRANCH   2   3
HETATM    3  N   UNL     1     -41.078 -47.214  10.645  1.00  0.00     0.091 N 
HETATM    4  C   UNL     1     -40.305 -45.960  10.648  1.00  0.00     0.275 C 
HETATM    5  C   UNL     1     -40.665 -45.039  11.821  1.00  0.00     0.062 C 
HETATM    6  C   UNL     1     -42.159 -44.695  11.798  1.00  0.00     0.124 C 
HETATM    7  C   UNL     1     -42.995 -45.978  11.696  1.00  0.00     0.062 C 
HETATM    8  C   UNL     1     -42.512 -46.875  10.550  1.00  0.00     0.275 C 
BRANCH   6   9
HETATM    9  O   UNL     1     -42.363 -43.821  10.682  1.00  0.00    -0.386 OA
BRANCH   9  10
HETATM   10  C   UNL     1     -42.984 -42.583  11.007  1.00  0.00     0.163 C 
HETATM   11  C   UNL     1     -41.899 -41.538  11.161  1.00  0.00     0.033 C 
ENDBRANCH   9  10
ENDBRANCH   6   9
ENDBRANCH   2   3
ENDBRANCH   1   2
BRANCH   1  12
HETATM   12  O   UNL     1     -40.452 -50.098  10.340  1.00  0.00    -0.392 OA
HETATM   13  H   UNL     1     -39.934 -50.891  10.539  1.00  0.00     0.210 HD
ENDBRANCH   1  12
BRANCH   1  14
HETATM   14  C   UNL     1     -40.500 -50.447  12.713  1.00  0.00     0.163 C 
BRANCH  14  15
HETATM   15  N   UNL     1     -41.116 -51.758  12.801  1.00  0.00    -0.339 N 
HETATM   16  C   UNL     1     -40.574 -52.914  12.308  1.00  0.00     0.184 A 
HETATM   17  N   UNL     1     -41.418 -53.916  12.391  1.00  0.00    -0.350 N 
HETATM   18  C   UNL     1     -42.546 -53.380  12.959  1.00  0.00     0.060 A 
ATOM     19  HN  UNL     1     -41.268 -54.881  12.097  1.00  0.00     0.166 HD
HETATM   20  C   UNL     1     -43.778 -53.987  13.232  1.00  0.00     0.039 A 
HETATM   21  C   UNL     1     -42.370 -52.039  13.273  1.00  0.00     0.062 A 
HETATM   22  C   UNL     1     -44.804 -53.242  13.851  1.00  0.00    -0.054 A 
HETATM   23  C   UNL     1     -46.113 -53.930  14.121  1.00  0.00     0.049 C 
HETATM   24  C   UNL     1     -44.581 -51.893  14.206  1.00  0.00    -0.054 A 
HETATM   25  C   UNL     1     -45.610 -51.054  14.917  1.00  0.00     0.049 C 
HETATM   26  C   UNL     1     -43.354 -51.268  13.895  1.00  0.00     0.039 A 
ENDBRANCH  14  15
ENDBRANCH   1  14
TORSDOF 7
ENDMDL
MODEL 9
REMARK VINA RESULT:      -5.6      3.084      4.354
REMARK  7 active torsions:
REMARK  status: ('A' for Active; 'I' for Inactive)
REMARK    1  A    between atoms: C_2  and  O_3 
REMARK    2  A    between atoms: O_3  and  C_4 
REMARK    3  A    between atoms: N_7  and  C_8 
REMARK    4  A    between atoms: C_8  and  C_9 
REMARK    5  A    between atoms: C_9  and  O_10 
REMARK    6  A    between atoms: C_9  and  C_11 
REMARK    7  A    between atoms: C_11  and  N_12 
ROOT
HETATM    1  C   UNL     1     -41.118 -52.246  12.165  1.00  0.00     0.164 C 
ENDROOT
BRANCH   1   2
HETATM    2  C   UNL     1     -40.738 -50.817  11.704  1.00  0.00     0.305 C 
BRANCH   2   3
HETATM    3  N   UNL     1     -41.331 -49.689  12.452  1.00  0.00     0.091 N 
HETATM    4  C   UNL     1     -42.306 -48.877  11.704  1.00  0.00     0.275 C 
HETATM    5  C   UNL     1     -41.675 -48.114  10.532  1.00  0.00     0.062 C 
HETATM    6  C   UNL     1     -40.550 -47.197  11.029  1.00  0.00     0.124 C 
HETATM    7  C   UNL     1     -39.565 -47.993  11.896  1.00  0.00     0.062 C 
HETATM    8  C   UNL     1     -40.291 -48.789  12.987  1.00  0.00     0.275 C 
BRANCH   6   9
HETATM    9  O   UNL     1     -41.177 -46.132  11.753  1.00  0.00    -0.386 OA
BRANCH   9  10
HETATM   10  C   UNL     1     -41.299 -44.916  11.024  1.00  0.00     0.163 C 
HETATM   11  C   UNL     1     -39.913 -44.486  10.591  1.00  0.00     0.033 C 
ENDBRANCH   9  10
ENDBRANCH   6   9
ENDBRANCH   2   3
ENDBRANCH   1   2
BRANCH   1  12
HETATM   12  O   UNL     1     -40.608 -53.240  11.270  1.00  0.00    -0.392 OA
HETATM   13  H   UNL     1     -41.273 -53.934  11.158  1.00  0.00     0.210 HD
ENDBRANCH   1  12
BRANCH   1  14
HETATM   14  C   UNL     1     -40.517 -52.515  13.555  1.00  0.00     0.163 C 
BRANCH  14  15
HETATM   15  N   UNL     1     -41.197 -53.610  14.221  1.00  0.00    -0.339 N 
HETATM   16  C   UNL     1     -42.545 -53.842  14.170  1.00  0.00     0.184 A 
HETATM   17  N   UNL     1     -42.900 -54.804  14.989  1.00  0.00    -0.350 N 
HETATM   18  C   UNL     1     -41.733 -55.204  15.590  1.00  0.00     0.060 A 
ATOM     19  HN  UNL     1     -43.838 -55.174  15.144  1.00  0.00     0.166 HD
HETATM   20  C   UNL     1     -41.531 -56.164  16.589  1.00  0.00     0.039 A 
HETATM   21  C   UNL     1     -40.640 -54.506  15.093  1.00  0.00     0.062 A 
HETATM   22  C   UNL     1     -40.224 -56.432  17.048  1.00  0.00    -0.054 A 
HETATM   23  C   UNL     1     -40.051 -57.466  18.126  1.00  0.00     0.049 C 
HETATM   24  C   UNL     1     -39.124 -55.743  16.490  1.00  0.00    -0.054 A 
HETATM   25  C   UNL     1     -37.699 -56.017  16.892  1.00  0.00     0.049 C 
HETATM   26  C   UNL     1     -39.330 -54.746  15.511  1.00  0.00     0.039 A 
ENDBRANCH  14  15
ENDBRANCH   1  14
TORSDOF 7
ENDMDL
