MODEL 1
REMARK VINA RESULT:      -6.8      0.000      0.000
REMARK  5 active torsions:
REMARK  status: ('A' for Active; 'I' for Inactive)
REMARK       I    between atoms: C_2  and  N_3 
REMARK    1  A    between atoms: C_2  and  C_13 
REMARK    2  A    between atoms: N_3  and  C_4 
REMARK    3  A    between atoms: C_4  and  C_5 
REMARK    4  A    between atoms: C_5  and  C_6 
REMARK       I    between atoms: N_17  and  C_18 
REMARK    5  A    between atoms: C_18  and  C_20 
ROOT
HETATM    1  C   UNL     1     -41.003 -52.294  13.798  1.00  0.00     0.179 C 
HETATM    2  C   UNL     1     -39.662 -53.054  13.963  1.00  0.00     0.037 C 
HETATM    3  C   UNL     1     -40.014 -54.455  14.460  1.00  0.00     0.022 C 
HETATM    4  C   UNL     1     -41.442 -54.337  14.919  1.00  0.00     0.127 C 
HETATM    5  N   UNL     1     -42.016 -53.328  14.043  1.00  0.00    -0.338 N 
HETATM    6  C   UNL     1     -43.395 -53.252  14.025  1.00  0.00     0.224 C 
HETATM    7  O   UNL     1     -44.017 -54.153  14.601  1.00  0.00    -0.273 OA
ENDROOT
BRANCH   1   8
HETATM    8  C   UNL     1     -41.018 -51.627  12.429  1.00  0.00     0.240 C 
HETATM    9  O   UNL     1     -41.142 -52.283  11.397  1.00  0.00    -0.271 OA
HETATM   10  N   UNL     1     -41.040 -50.250  12.459  1.00  0.00    -0.359 N 
HETATM   11  H   UNL     1     -40.769 -49.804  13.329  1.00  0.00     0.162 HD
BRANCH  10  12
HETATM   12  C   UNL     1     -40.989 -49.485  11.231  1.00  0.00     0.128 C 
BRANCH  12  13
HETATM   13  C   UNL     1     -41.571 -48.091  11.413  1.00  0.00     0.076 C 
BRANCH  13  14
HETATM   14  C   UNL     1     -42.660 -47.858  10.404  1.00  0.00     0.010 A 
HETATM   15  C   UNL     1     -43.968 -47.614  10.822  1.00  0.00     0.025 A 
HETATM   16  C   UNL     1     -44.963 -47.488   9.855  1.00  0.00     0.003 A 
HETATM   17  C   UNL     1     -44.630 -47.604   8.505  1.00  0.00     0.017 A 
HETATM   18  C   UNL     1     -43.305 -47.849   8.186  1.00  0.00     0.088 A 
HETATM   19  N   UNL     1     -42.317 -47.983   9.103  1.00  0.00    -0.369 N 
ATOM     20  HN  UNL     1     -41.354 -48.170   8.823  1.00  0.00     0.165 HD
ENDBRANCH  13  14
ENDBRANCH  12  13
ENDBRANCH  10  12
ENDBRANCH   1   8
BRANCH   6  21
HETATM   21  C   UNL     1     -44.160 -52.203  13.194  1.00  0.00     0.078 C 
HETATM   22  C   UNL     1     -44.402 -50.824  13.821  1.00  0.00     0.014 C 
HETATM   23  C   UNL     1     -45.412 -50.830  14.969  1.00  0.00     0.001 C 
HETATM   24  C   UNL     1     -46.719 -51.550  14.637  1.00  0.00     0.000 C 
HETATM   25  C   UNL     1     -46.490 -52.904  13.983  1.00  0.00     0.001 C 
HETATM   26  C   UNL     1     -45.533 -52.793  12.792  1.00  0.00     0.014 C 
ENDBRANCH   6  21
TORSDOF 5
ENDMDL
MODEL 2
REMARK VINA RESULT:      -6.6      2.492      5.431
REMARK  5 active torsions:
REMARK  status: ('A' for Active; 'I' for Inactive)
REMARK       I    between atoms: C_2  and  N_3 
REMARK    1  A    between atoms: C_2  and  C_13 
REMARK    2  A    between atoms: N_3  and  C_4 
REMARK    3  A    between atoms: C_4  and  C_5 
REMARK    4  A    between atoms: C_5  and  C_6 
REMARK       I    between atoms: N_17  and  C_18 
REMARK    5  A    between atoms: C_18  and  C_20 
ROOT
HETATM    1  C   UNL     1     -41.005 -53.139  13.017  1.00  0.00     0.179 C 
HETATM    2  C   UNL     1     -40.040 -54.212  13.584  1.00  0.00     0.037 C 
HETATM    3  C   UNL     1     -38.918 -53.456  14.295  1.00  0.00     0.022 C 
HETATM    4  C   UNL     1     -39.056 -52.041  13.802  1.00  0.00     0.127 C 
HETATM    5  N   UNL     1     -40.481 -51.881  13.566  1.00  0.00    -0.338 N 
HETATM    6  C   UNL     1     -40.932 -50.585  13.419  1.00  0.00     0.224 C 
HETATM    7  O   UNL     1     -40.133 -49.677  13.680  1.00  0.00    -0.273 OA
ENDROOT
BRANCH   1   8
HETATM    8  C   UNL     1     -42.430 -53.516  13.402  1.00  0.00     0.240 C 
HETATM    9  O   UNL     1     -42.766 -53.639  14.577  1.00  0.00    -0.271 OA
HETATM   10  N   UNL     1     -43.320 -53.549  12.351  1.00  0.00    -0.359 N 
HETATM   11  H   UNL     1     -42.929 -53.600  11.417  1.00  0.00     0.162 HD
BRANCH  10  12
HETATM   12  C   UNL     1     -44.693 -53.957  12.562  1.00  0.00     0.128 C 
BRANCH  12  13
HETATM   13  C   UNL     1     -45.629 -52.759  12.645  1.00  0.00     0.076 C 
BRANCH  13  14
HETATM   14  C   UNL     1     -46.087 -52.569  14.063  1.00  0.00     0.010 A 
HETATM   15  C   UNL     1     -46.752 -51.401  14.437  1.00  0.00     0.025 A 
HETATM   16  C   UNL     1     -47.085 -51.226  15.778  1.00  0.00     0.003 A 
HETATM   17  C   UNL     1     -46.753 -52.215  16.705  1.00  0.00     0.017 A 
HETATM   18  C   UNL     1     -46.091 -53.339  16.240  1.00  0.00     0.088 A 
HETATM   19  N   UNL     1     -45.748 -53.534  14.945  1.00  0.00    -0.369 N 
ATOM     20  HN  UNL     1     -45.255 -54.376  14.646  1.00  0.00     0.165 HD
ENDBRANCH  13  14
ENDBRANCH  12  13
ENDBRANCH  10  12
ENDBRANCH   1   8
BRANCH   6  21
HETATM   21  C   UNL     1     -42.404 -50.244  13.108  1.00  0.00     0.078 C 
HETATM   22  C   UNL     1     -42.692 -48.999  12.261  1.00  0.00     0.014 C 
HETATM   23  C   UNL     1     -42.410 -47.679  12.979  1.00  0.00     0.001 C 
HETATM   24  C   UNL     1     -43.036 -47.587  14.370  1.00  0.00     0.000 C 
HETATM   25  C   UNL     1     -42.785 -48.832  15.206  1.00  0.00     0.001 C 
HETATM   26  C   UNL     1     -43.172 -50.103  14.444  1.00  0.00     0.014 C 
ENDBRANCH   6  21
TORSDOF 5
ENDMDL
MODEL 3
REMARK VINA RESULT:      -6.6      2.043      4.345
REMARK  5 active torsions:
REMARK  status: ('A' for Active; 'I' for Inactive)
REMARK       I    between atoms: C_2  and  N_3 
REMARK    1  A    between atoms: C_2  and  C_13 
REMARK    2  A    between atoms: N_3  and  C_4 
REMARK    3  A    between atoms: C_4  and  C_5 
REMARK    4  A    between atoms: C_5  and  C_6 
REMARK       I    between atoms: N_17  and  C_18 
REMARK    5  A    between atoms: C_18  and  C_20 
ROOT
HETATM    1  C   UNL     1     -42.657 -52.010  12.488  1.00  0.00     0.179 C 
HETATM    2  C   UNL     1     -43.817 -52.938  12.931  1.00  0.00     0.037 C 
HETATM    3  C   UNL     1     -43.174 -54.136  13.630  1.00  0.00     0.022 C 
HETATM    4  C   UNL     1     -41.723 -54.055  13.239  1.00  0.00     0.127 C 
HETATM    5  N   UNL     1     -41.470 -52.631  13.090  1.00  0.00    -0.338 N 
HETATM    6  C   UNL     1     -40.144 -52.250  13.053  1.00  0.00     0.224 C 
HETATM    7  O   UNL     1     -39.301 -53.111  13.331  1.00  0.00    -0.273 OA
ENDROOT
BRANCH   1   8
HETATM    8  C   UNL     1     -42.981 -50.586  12.922  1.00  0.00     0.240 C 
HETATM    9  O   UNL     1     -43.283 -50.323  14.084  1.00  0.00    -0.271 OA
HETATM   10  N   UNL     1     -42.759 -49.626  11.960  1.00  0.00    -0.359 N 
HETATM   11  H   UNL     1     -42.676 -49.946  11.000  1.00  0.00     0.162 HD
BRANCH  10  12
HETATM   12  C   UNL     1     -43.088 -48.239  12.213  1.00  0.00     0.128 C 
BRANCH  12  13
HETATM   13  C   UNL     1     -42.603 -47.333  11.091  1.00  0.00     0.076 C 
BRANCH  13  14
HETATM   14  C   UNL     1     -43.436 -47.556   9.860  1.00  0.00     0.010 A 
HETATM   15  C   UNL     1     -44.828 -47.546   9.941  1.00  0.00     0.025 A 
HETATM   16  C   UNL     1     -45.564 -47.840   8.796  1.00  0.00     0.003 A 
HETATM   17  C   UNL     1     -44.897 -48.133   7.605  1.00  0.00     0.017 A 
HETATM   18  C   UNL     1     -43.512 -48.122   7.622  1.00  0.00     0.088 A 
HETATM   19  N   UNL     1     -42.770 -47.845   8.721  1.00  0.00    -0.369 N 
ATOM     20  HN  UNL     1     -41.750 -47.854   8.690  1.00  0.00     0.165 HD
ENDBRANCH  13  14
ENDBRANCH  12  13
ENDBRANCH  10  12
ENDBRANCH   1   8
BRANCH   6  21
HETATM   21  C   UNL     1     -39.704 -50.786  12.844  1.00  0.00     0.078 C 
HETATM   22  C   UNL     1     -38.344 -50.530  12.183  1.00  0.00     0.014 C 
HETATM   23  C   UNL     1     -37.147 -50.893  13.062  1.00  0.00     0.001 C 
HETATM   24  C   UNL     1     -37.219 -50.314  14.475  1.00  0.00     0.000 C 
HETATM   25  C   UNL     1     -38.576 -50.533  15.126  1.00  0.00     0.001 C 
HETATM   26  C   UNL     1     -39.714 -50.065  14.214  1.00  0.00     0.014 C 
ENDBRANCH   6  21
TORSDOF 5
ENDMDL
MODEL 4
REMARK VINA RESULT:      -6.5      1.071      1.407
REMARK  5 active torsions:
REMARK  status: ('A' for Active; 'I' for Inactive)
REMARK       I    between atoms: C_2  and  N_3 
REMARK    1  A    between atoms: C_2  and  C_13 
REMARK    2  A    between atoms: N_3  and  C_4 
REMARK    3  A    between atoms: C_4  and  C_5 
REMARK    4  A    between atoms: C_5  and  C_6 
REMARK       I    between atoms: N_17  and  C_18 
REMARK    5  A    between atoms: C_18  and  C_20 
ROOT
HETATM    1  C   UNL     1     -40.669 -52.823  14.474  1.00  0.00     0.179 C 
HETATM    2  C   UNL     1     -39.466 -53.650  14.999  1.00  0.00     0.037 C 
HETATM    3  C   UNL     1     -40.042 -54.954  15.548  1.00  0.00     0.022 C 
HETATM    4  C   UNL     1     -41.516 -54.683  15.676  1.00  0.00     0.127 C 
HETATM    5  N   UNL     1     -41.802 -53.748  14.600  1.00  0.00    -0.338 N 
HETATM    6  C   UNL     1     -43.135 -53.579  14.279  1.00  0.00     0.224 C 
HETATM    7  O   UNL     1     -43.943 -54.360  14.796  1.00  0.00    -0.273 OA
ENDROOT
BRANCH   1   8
HETATM    8  C   UNL     1     -40.341 -52.323  13.073  1.00  0.00     0.240 C 
HETATM    9  O   UNL     1     -40.393 -53.069  12.098  1.00  0.00    -0.271 OA
HETATM   10  N   UNL     1     -40.141 -50.964  12.979  1.00  0.00    -0.359 N 
HETATM   11  H   UNL     1     -39.954 -50.465  13.841  1.00  0.00     0.162 HD
BRANCH  10  12
HETATM   12  C   UNL     1     -39.757 -50.362  11.719  1.00  0.00     0.128 C 
BRANCH  12  13
HETATM   13  C   UNL     1     -39.745 -48.842  11.804  1.00  0.00     0.076 C 
BRANCH  13  14
HETATM   14  C   UNL     1     -41.096 -48.301  11.428  1.00  0.00     0.010 A 
HETATM   15  C   UNL     1     -42.004 -47.924  12.417  1.00  0.00     0.025 A 
HETATM   16  C   UNL     1     -43.275 -47.508  12.030  1.00  0.00     0.003 A 
HETATM   17  C   UNL     1     -43.606 -47.475  10.675  1.00  0.00     0.017 A 
HETATM   18  C   UNL     1     -42.639 -47.870   9.765  1.00  0.00     0.088 A 
HETATM   19  N   UNL     1     -41.398 -48.285  10.111  1.00  0.00    -0.369 N 
ATOM     20  HN  UNL     1     -40.718 -48.573   9.407  1.00  0.00     0.165 HD
ENDBRANCH  13  14
ENDBRANCH  12  13
ENDBRANCH  10  12
ENDBRANCH   1   8
BRANCH   6  21
HETATM   21  C   UNL     1     -43.613 -52.585  13.201  1.00  0.00     0.078 C 
HETATM   22  C   UNL     1     -43.790 -51.115  13.605  1.00  0.00     0.014 C 
HETATM   23  C   UNL     1     -44.976 -50.865  14.536  1.00  0.00     0.001 C 
HETATM   24  C   UNL     1     -46.283 -51.493  14.054  1.00  0.00     0.000 C 
HETATM   25  C   UNL     1     -46.111 -52.939  13.619  1.00  0.00     0.001 C 
HETATM   26  C   UNL     1     -44.957 -53.088  12.623  1.00  0.00     0.014 C 
ENDBRANCH   6  21
TORSDOF 5
ENDMDL
MODEL 5
REMARK VINA RESULT:      -6.4      2.147      2.673
REMARK  5 active torsions:
REMARK  status: ('A' for Active; 'I' for Inactive)
REMARK       I    between atoms: C_2  and  N_3 
REMARK    1  A    between atoms: C_2  and  C_13 
REMARK    2  A    between atoms: N_3  and  C_4 
REMARK    3  A    between atoms: C_4  and  C_5 
REMARK    4  A    between atoms: C_5  and  C_6 
REMARK       I    between atoms: N_17  and  C_18 
REMARK    5  A    between atoms: C_18  and  C_20 
ROOT
HETATM    1  C   UNL     1     -41.787 -51.356  13.752  1.00  0.00     0.179 C 
HETATM    2  C   UNL     1     -40.529 -51.887  13.018  1.00  0.00     0.037 C 
HETATM    3  C   UNL     1     -40.894 -53.267  12.472  1.00  0.00     0.022 C 
HETATM    4  C   UNL     1     -42.154 -53.634  13.209  1.00  0.00     0.127 C 
HETATM    5  N   UNL     1     -42.814 -52.360  13.447  1.00  0.00    -0.338 N 
HETATM    6  C   UNL     1     -44.142 -52.424  13.817  1.00  0.00     0.224 C 
HETATM    7  O   UNL     1     -44.699 -53.525  13.736  1.00  0.00    -0.273 OA
ENDROOT
BRANCH   1   8
HETATM    8  C   UNL     1     -42.059 -49.932  13.284  1.00  0.00     0.240 C 
HETATM    9  O   UNL     1     -41.860 -48.966  14.018  1.00  0.00    -0.271 OA
HETATM   10  N   UNL     1     -42.385 -49.817  11.951  1.00  0.00    -0.359 N 
HETATM   11  H   UNL     1     -42.686 -50.661  11.475  1.00  0.00     0.162 HD
BRANCH  10  12
HETATM   12  C   UNL     1     -42.733 -48.529  11.386  1.00  0.00     0.128 C 
BRANCH  12  13
HETATM   13  C   UNL     1     -41.693 -48.057  10.381  1.00  0.00     0.076 C 
BRANCH  13  14
HETATM   14  C   UNL     1     -41.290 -46.643  10.693  1.00  0.00     0.010 A 
HETATM   15  C   UNL     1     -42.209 -45.756  11.253  1.00  0.00     0.025 A 
HETATM   16  C   UNL     1     -41.822 -44.433  11.449  1.00  0.00     0.003 A 
HETATM   17  C   UNL     1     -40.536 -44.030  11.087  1.00  0.00     0.017 A 
HETATM   18  C   UNL     1     -39.693 -44.982  10.536  1.00  0.00     0.088 A 
HETATM   19  N   UNL     1     -40.043 -46.273  10.328  1.00  0.00    -0.369 N 
ATOM     20  HN  UNL     1     -39.391 -46.940   9.913  1.00  0.00     0.165 HD
ENDBRANCH  13  14
ENDBRANCH  12  13
ENDBRANCH  10  12
ENDBRANCH   1   8
BRANCH   6  21
HETATM   21  C   UNL     1     -44.972 -51.169  14.159  1.00  0.00     0.078 C 
HETATM   22  C   UNL     1     -44.884 -50.615  15.587  1.00  0.00     0.014 C 
HETATM   23  C   UNL     1     -45.556 -51.497  16.639  1.00  0.00     0.001 C 
HETATM   24  C   UNL     1     -46.978 -51.922  16.272  1.00  0.00     0.000 C 
HETATM   25  C   UNL     1     -47.082 -52.441  14.847  1.00  0.00     0.001 C 
HETATM   26  C   UNL     1     -46.460 -51.459  13.849  1.00  0.00     0.014 C 
ENDBRANCH   6  21
TORSDOF 5
ENDMDL
MODEL 6
REMARK VINA RESULT:      -6.4      2.155      4.942
REMARK  5 active torsions:
REMARK  status: ('A' for Active; 'I' for Inactive)
REMARK       I    between atoms: C_2  and  N_3 
REMARK    1  A    between atoms: C_2  and  C_13 
REMARK    2  A    between atoms: N_3  and  C_4 
REMARK    3  A    between atoms: C_4  and  C_5 
REMARK    4  A    between atoms: C_5  and  C_6 
REMARK       I    between atoms: N_17  and  C_18 
REMARK    5  A    between atoms: C_18  and  C_20 
ROOT
HETATM    1  C   UNL     1     -44.647 -51.635  13.309  1.00  0.00     0.179 C 
HETATM    2  C   UNL     1     -46.082 -51.430  13.859  1.00  0.00     0.037 C 
HETATM    3  C   UNL     1     -46.336 -52.568  14.846  1.00  0.00     0.022 C 
HETATM    4  C   UNL     1     -45.246 -53.562  14.553  1.00  0.00     0.127 C 
HETATM    5  N   UNL     1     -44.125 -52.745  14.115  1.00  0.00    -0.338 N 
HETATM    6  C   UNL     1     -42.892 -53.367  14.092  1.00  0.00     0.224 C 
HETATM    7  O   UNL     1     -42.815 -54.487  14.611  1.00  0.00    -0.273 OA
ENDROOT
BRANCH   1   8
HETATM    8  C   UNL     1     -43.899 -50.310  13.397  1.00  0.00     0.240 C 
HETATM    9  O   UNL     1     -43.721 -49.745  14.473  1.00  0.00    -0.271 OA
HETATM   10  N   UNL     1     -43.320 -49.896  12.218  1.00  0.00    -0.359 N 
HETATM   11  H   UNL     1     -43.656 -50.328  11.363  1.00  0.00     0.162 HD
BRANCH  10  12
HETATM   12  C   UNL     1     -42.635 -48.623  12.141  1.00  0.00     0.128 C 
BRANCH  12  13
HETATM   13  C   UNL     1     -41.515 -48.649  11.111  1.00  0.00     0.076 C 
BRANCH  13  14
HETATM   14  C   UNL     1     -40.246 -49.132  11.752  1.00  0.00     0.010 A 
HETATM   15  C   UNL     1     -39.945 -48.784  13.069  1.00  0.00     0.025 A 
HETATM   16  C   UNL     1     -38.720 -49.180  13.600  1.00  0.00     0.003 A 
HETATM   17  C   UNL     1     -37.832 -49.912  12.810  1.00  0.00     0.017 A 
HETATM   18  C   UNL     1     -38.216 -50.209  11.513  1.00  0.00     0.088 A 
HETATM   19  N   UNL     1     -39.397 -49.832  10.968  1.00  0.00    -0.369 N 
ATOM     20  HN  UNL     1     -39.637 -50.068  10.005  1.00  0.00     0.165 HD
ENDBRANCH  13  14
ENDBRANCH  12  13
ENDBRANCH  10  12
ENDBRANCH   1   8
BRANCH   6  21
HETATM   21  C   UNL     1     -41.612 -52.660  13.602  1.00  0.00     0.078 C 
HETATM   22  C   UNL     1     -40.539 -53.511  12.911  1.00  0.00     0.014 C 
HETATM   23  C   UNL     1     -39.799 -54.463  13.852  1.00  0.00     0.001 C 
HETATM   24  C   UNL     1     -39.276 -53.793  15.122  1.00  0.00     0.000 C 
HETATM   25  C   UNL     1     -40.323 -52.919  15.795  1.00  0.00     0.001 C 
HETATM   26  C   UNL     1     -40.953 -51.938  14.802  1.00  0.00     0.014 C 
ENDBRANCH   6  21
TORSDOF 5
ENDMDL
MODEL 7
REMARK VINA RESULT:      -6.2      2.527      4.819
REMARK  5 active torsions:
REMARK  status: ('A' for Active; 'I' for Inactive)
REMARK       I    between atoms: C_2  and  N_3 
REMARK    1  A    between atoms: C_2  and  C_13 
REMARK    2  A    between atoms: N_3  and  C_4 
REMARK    3  A    between atoms: C_4  and  C_5 
REMARK    4  A    between atoms: C_5  and  C_6 
REMARK       I    between atoms: N_17  and  C_18 
REMARK    5  A    between atoms: C_18  and  C_20 
ROOT
HETATM    1  C   UNL     1     -42.613 -52.133  12.472  1.00  0.00     0.179 C 
HETATM    2  C   UNL     1     -43.758 -53.074  12.927  1.00  0.00     0.037 C 
HETATM    3  C   UNL     1     -43.098 -54.234  13.671  1.00  0.00     0.022 C 
HETATM    4  C   UNL     1     -41.644 -54.132  13.300  1.00  0.00     0.127 C 
HETATM    5  N   UNL     1     -41.422 -52.707  13.110  1.00  0.00    -0.338 N 
HETATM    6  C   UNL     1     -40.104 -52.296  13.080  1.00  0.00     0.224 C 
HETATM    7  O   UNL     1     -39.246 -53.129  13.397  1.00  0.00    -0.273 OA
ENDROOT
BRANCH   1   8
HETATM    8  C   UNL     1     -42.977 -50.704  12.857  1.00  0.00     0.240 C 
HETATM    9  O   UNL     1     -43.290 -50.410  14.008  1.00  0.00    -0.271 OA
HETATM   10  N   UNL     1     -42.777 -49.772  11.863  1.00  0.00    -0.359 N 
HETATM   11  H   UNL     1     -42.681 -50.121  10.915  1.00  0.00     0.162 HD
BRANCH  10  12
HETATM   12  C   UNL     1     -43.143 -48.386  12.069  1.00  0.00     0.128 C 
BRANCH  12  13
HETATM   13  C   UNL     1     -43.197 -47.619  10.755  1.00  0.00     0.076 C 
BRANCH  13  14
HETATM   14  C   UNL     1     -42.279 -46.431  10.823  1.00  0.00     0.010 A 
HETATM   15  C   UNL     1     -40.898 -46.602  10.723  1.00  0.00     0.025 A 
HETATM   16  C   UNL     1     -40.077 -45.487  10.874  1.00  0.00     0.003 A 
HETATM   17  C   UNL     1     -40.650 -44.238  11.116  1.00  0.00     0.017 A 
HETATM   18  C   UNL     1     -42.031 -44.166  11.201  1.00  0.00     0.088 A 
HETATM   19  N   UNL     1     -42.854 -45.233  11.064  1.00  0.00    -0.369 N 
ATOM     20  HN  UNL     1     -43.867 -45.136  11.141  1.00  0.00     0.165 HD
ENDBRANCH  13  14
ENDBRANCH  12  13
ENDBRANCH  10  12
ENDBRANCH   1   8
BRANCH   6  21
HETATM   21  C   UNL     1     -39.695 -50.830  12.833  1.00  0.00     0.078 C 
HETATM   22  C   UNL     1     -38.335 -50.563  12.175  1.00  0.00     0.014 C 
HETATM   23  C   UNL     1     -37.138 -50.873  13.073  1.00  0.00     0.001 C 
HETATM   24  C   UNL     1     -37.235 -50.256  14.467  1.00  0.00     0.000 C 
HETATM   25  C   UNL     1     -38.591 -50.486  15.114  1.00  0.00     0.001 C 
HETATM   26  C   UNL     1     -39.732 -50.070  14.181  1.00  0.00     0.014 C 
ENDBRANCH   6  21
TORSDOF 5
ENDMDL
MODEL 8
REMARK VINA RESULT:      -6.2      3.138      7.576
REMARK  5 active torsions:
REMARK  status: ('A' for Active; 'I' for Inactive)
REMARK       I    between atoms: C_2  and  N_3 
REMARK    1  A    between atoms: C_2  and  C_13 
REMARK    2  A    between atoms: N_3  and  C_4 
REMARK    3  A    between atoms: C_4  and  C_5 
REMARK    4  A    between atoms: C_5  and  C_6 
REMARK       I    between atoms: N_17  and  C_18 
REMARK    5  A    between atoms: C_18  and  C_20 
ROOT
HETATM    1  C   UNL     1     -43.423 -47.151  10.814  1.00  0.00     0.179 C 
HETATM    2  C   UNL     1     -44.423 -47.464   9.671  1.00  0.00     0.037 C 
HETATM    3  C   UNL     1     -44.401 -46.258   8.732  1.00  0.00     0.022 C 
HETATM    4  C   UNL     1     -43.721 -45.180   9.531  1.00  0.00     0.127 C 
HETATM    5  N   UNL     1     -42.787 -45.900  10.383  1.00  0.00    -0.338 N 
HETATM    6  C   UNL     1     -41.805 -45.141  10.986  1.00  0.00     0.224 C 
HETATM    7  O   UNL     1     -41.690 -43.967  10.613  1.00  0.00    -0.273 OA
ENDROOT
BRANCH   1   8
HETATM    8  C   UNL     1     -42.510 -48.356  11.004  1.00  0.00     0.240 C 
HETATM    9  O   UNL     1     -41.513 -48.522  10.305  1.00  0.00    -0.271 OA
HETATM   10  N   UNL     1     -42.807 -49.136  12.099  1.00  0.00    -0.359 N 
HETATM   11  H   UNL     1     -43.728 -49.024  12.510  1.00  0.00     0.162 HD
BRANCH  10  12
HETATM   12  C   UNL     1     -42.062 -50.350  12.363  1.00  0.00     0.128 C 
BRANCH  12  13
HETATM   13  C   UNL     1     -42.509 -51.013  13.658  1.00  0.00     0.076 C 
BRANCH  13  14
HETATM   14  C   UNL     1     -43.957 -51.402  13.556  1.00  0.00     0.010 A 
HETATM   15  C   UNL     1     -44.879 -50.936  14.492  1.00  0.00     0.025 A 
HETATM   16  C   UNL     1     -46.195 -51.386  14.413  1.00  0.00     0.003 A 
HETATM   17  C   UNL     1     -46.556 -52.282  13.406  1.00  0.00     0.017 A 
HETATM   18  C   UNL     1     -45.571 -52.692  12.522  1.00  0.00     0.088 A 
HETATM   19  N   UNL     1     -44.284 -52.276  12.578  1.00  0.00    -0.369 N 
ATOM     20  HN  UNL     1     -43.588 -52.608  11.910  1.00  0.00     0.165 HD
ENDBRANCH  13  14
ENDBRANCH  12  13
ENDBRANCH  10  12
ENDBRANCH   1   8
BRANCH   6  21
HETATM   21  C   UNL     1     -40.771 -45.740  11.961  1.00  0.00     0.078 C 
HETATM   22  C   UNL     1     -41.197 -45.956  13.419  1.00  0.00     0.014 C 
HETATM   23  C   UNL     1     -41.378 -44.662  14.213  1.00  0.00     0.001 C 
HETATM   24  C   UNL     1     -40.201 -43.695  14.093  1.00  0.00     0.000 C 
HETATM   25  C   UNL     1     -39.749 -43.500  12.655  1.00  0.00     0.001 C 
HETATM   26  C   UNL     1     -39.509 -44.844  11.959  1.00  0.00     0.014 C 
ENDBRANCH   6  21
TORSDOF 5
ENDMDL
MODEL 9
REMARK VINA RESULT:      -6.1      2.185      3.624
REMARK  5 active torsions:
REMARK  status: ('A' for Active; 'I' for Inactive)
REMARK       I    between atoms: C_2  and  N_3 
REMARK    1  A    between atoms: C_2  and  C_13 
REMARK    2  A    between atoms: N_3  and  C_4 
REMARK    3  A    between atoms: C_4  and  C_5 
REMARK    4  A    between atoms: C_5  and  C_6 
REMARK       I    between atoms: N_17  and  C_18 
REMARK    5  A    between atoms: C_18  and  C_20 
ROOT
HETATM    1  C   UNL     1     -42.039 -51.903  14.224  1.00  0.00     0.179 C 
HETATM    2  C   UNL     1     -40.864 -52.647  13.541  1.00  0.00     0.037 C 
HETATM    3  C   UNL     1     -41.428 -53.969  13.022  1.00  0.00     0.022 C 
HETATM    4  C   UNL     1     -42.748 -54.111  13.731  1.00  0.00     0.127 C 
HETATM    5  N   UNL     1     -43.204 -52.743  13.916  1.00  0.00    -0.338 N 
HETATM    6  C   UNL     1     -44.534 -52.585  14.248  1.00  0.00     0.224 C 
HETATM    7  O   UNL     1     -45.256 -53.587  14.180  1.00  0.00    -0.273 OA
ENDROOT
BRANCH   1   8
HETATM    8  C   UNL     1     -42.071 -50.469  13.710  1.00  0.00     0.240 C 
HETATM    9  O   UNL     1     -41.833 -49.517  14.451  1.00  0.00    -0.271 OA
HETATM   10  N   UNL     1     -42.229 -50.349  12.348  1.00  0.00    -0.359 N 
HETATM   11  H   UNL     1     -42.581 -51.161  11.851  1.00  0.00     0.162 HD
BRANCH  10  12
HETATM   12  C   UNL     1     -42.343 -49.044  11.732  1.00  0.00     0.128 C 
BRANCH  12  13
HETATM   13  C   UNL     1     -41.117 -48.708  10.895  1.00  0.00     0.076 C 
BRANCH  13  14
HETATM   14  C   UNL     1     -39.895 -48.688  11.770  1.00  0.00     0.010 A 
HETATM   15  C   UNL     1     -38.905 -49.658  11.620  1.00  0.00     0.025 A 
HETATM   16  C   UNL     1     -37.830 -49.655  12.505  1.00  0.00     0.003 A 
HETATM   17  C   UNL     1     -37.768 -48.689  13.509  1.00  0.00     0.017 A 
HETATM   18  C   UNL     1     -38.799 -47.767  13.582  1.00  0.00     0.088 A 
HETATM   19  N   UNL     1     -39.859 -47.748  12.740  1.00  0.00    -0.369 N 
ATOM     20  HN  UNL     1     -40.600 -47.054  12.834  1.00  0.00     0.165 HD
ENDBRANCH  13  14
ENDBRANCH  12  13
ENDBRANCH  10  12
ENDBRANCH   1   8
BRANCH   6  21
HETATM   21  C   UNL     1     -45.164 -51.206  14.533  1.00  0.00     0.078 C 
HETATM   22  C   UNL     1     -44.904 -50.564  15.903  1.00  0.00     0.014 C 
HETATM   23  C   UNL     1     -45.614 -51.264  17.062  1.00  0.00     0.001 C 
HETATM   24  C   UNL     1     -47.101 -51.514  16.815  1.00  0.00     0.000 C 
HETATM   25  C   UNL     1     -47.372 -52.118  15.446  1.00  0.00     0.001 C 
HETATM   26  C   UNL     1     -46.695 -51.309  14.335  1.00  0.00     0.014 C 
ENDBRANCH   6  21
TORSDOF 5
ENDMDL
