MODEL 1
REMARK VINA RESULT:      -6.2      0.000      0.000
REMARK  5 active torsions:
REMARK  status: ('A' for Active; 'I' for Inactive)
REMARK    1  A    between atoms: N_2  and  C_4 
REMARK    2  A    between atoms: C_4  and  C_5 
REMARK    3  A    between atoms: C_4  and  C_16 
REMARK    4  A    between atoms: C_5  and  N_6 
REMARK       I    between atoms: N_6  and  C_7 
REMARK       I    between atoms: C_7  and  N_9 
REMARK    5  A    between atoms: N_9  and  C_10 
ROOT
HETATM    1  C   UNL     1     -41.421 -48.221  11.113  1.00  0.00     0.165 C 
ENDROOT
BRANCH   1   2
HETATM    2  C   UNL     1     -42.050 -46.929  10.507  1.00  0.00     0.275 C 
BRANCH   2   3
HETATM    3  N   UNL     1     -42.447 -45.899  11.520  1.00  0.00     0.090 N 
HETATM    4  C   UNL     1     -41.693 -46.072  12.770  1.00  0.00     0.310 C 
HETATM    5  C   UNL     1     -42.188 -44.532  11.025  1.00  0.00     0.310 C 
ENDBRANCH   2   3
BRANCH   2   6
HETATM    6  C   UNL     1     -43.238 -47.278   9.645  1.00  0.00     0.011 A 
HETATM    7  C   UNL     1     -43.258 -47.657   8.281  1.00  0.00     0.118 A 
HETATM    8  N   UNL     1     -44.483 -47.953   7.842  1.00  0.00    -0.310 N 
HETATM    9  N   UNL     1     -45.257 -47.771   8.922  1.00  0.00    -0.308 N 
ATOM     10  HN  UNL     1     -44.764 -48.246   6.906  1.00  0.00     0.186 HD
HETATM   11  C   UNL     1     -46.666 -48.077   8.864  1.00  0.00     0.177 C 
HETATM   12  C   UNL     1     -44.567 -47.345  10.021  1.00  0.00     0.120 A 
ENDBRANCH   2   6
ENDBRANCH   1   2
BRANCH   1  13
HETATM   13  N   UNL     1     -42.362 -49.322  11.288  1.00  0.00    -0.341 N 
HETATM   14  C   UNL     1     -42.561 -49.859  12.534  1.00  0.00     0.316 C 
HETATM   15  O   UNL     1     -41.969 -49.490  13.538  1.00  0.00    -0.247 OA
HETATM   16  N   UNL     1     -43.499 -50.858  12.513  1.00  0.00    -0.335 N 
HETATM   17  H   UNL     1     -43.695 -51.283  11.620  1.00  0.00     0.164 HD
HETATM   18  H   UNL     1     -43.139 -49.348  10.646  1.00  0.00     0.164 HD
BRANCH  16  19
HETATM   19  C   UNL     1     -43.806 -51.629  13.707  1.00  0.00     0.109 C 
HETATM   20  C   UNL     1     -43.953 -53.132  13.414  1.00  0.00     0.029 C 
HETATM   21  C   UNL     1     -45.339 -53.777  13.527  1.00  0.00     0.006 C 
HETATM   22  C   UNL     1     -46.502 -52.945  14.067  1.00  0.00     0.027 C 
HETATM   23  C   UNL     1     -46.189 -51.551  14.486  1.00  0.00    -0.029 C 
HETATM   24  C   UNL     1     -44.995 -50.974  14.327  1.00  0.00    -0.006 C 
ENDBRANCH  16  19
ENDBRANCH   1  13
TORSDOF 5
ENDMDL
MODEL 2
REMARK VINA RESULT:      -5.7      1.504      2.027
REMARK  5 active torsions:
REMARK  status: ('A' for Active; 'I' for Inactive)
REMARK    1  A    between atoms: N_2  and  C_4 
REMARK    2  A    between atoms: C_4  and  C_5 
REMARK    3  A    between atoms: C_4  and  C_16 
REMARK    4  A    between atoms: C_5  and  N_6 
REMARK       I    between atoms: N_6  and  C_7 
REMARK       I    between atoms: C_7  and  N_9 
REMARK    5  A    between atoms: N_9  and  C_10 
ROOT
HETATM    1  C   UNL     1     -40.376 -49.780  11.324  1.00  0.00     0.165 C 
ENDROOT
BRANCH   1   2
HETATM    2  C   UNL     1     -40.527 -48.228  11.308  1.00  0.00     0.275 C 
BRANCH   2   3
HETATM    3  N   UNL     1     -40.160 -47.556  12.596  1.00  0.00     0.090 N 
HETATM    4  C   UNL     1     -39.004 -48.214  13.222  1.00  0.00     0.310 C 
HETATM    5  C   UNL     1     -39.808 -46.139  12.380  1.00  0.00     0.310 C 
ENDBRANCH   2   3
BRANCH   2   6
HETATM    6  C   UNL     1     -41.932 -47.841  10.915  1.00  0.00     0.011 A 
HETATM    7  C   UNL     1     -42.991 -47.402  11.746  1.00  0.00     0.118 A 
HETATM    8  N   UNL     1     -44.092 -47.088  11.061  1.00  0.00    -0.310 N 
HETATM    9  N   UNL     1     -43.746 -47.317   9.785  1.00  0.00    -0.308 N 
ATOM     10  HN  UNL     1     -44.985 -46.753  11.422  1.00  0.00     0.186 HD
HETATM   11  C   UNL     1     -44.666 -47.010   8.718  1.00  0.00     0.177 C 
HETATM   12  C   UNL     1     -42.473 -47.791   9.644  1.00  0.00     0.120 A 
ENDBRANCH   2   6
ENDBRANCH   1   2
BRANCH   1  13
HETATM   13  N   UNL     1     -41.630 -50.503  11.507  1.00  0.00    -0.341 N 
HETATM   14  C   UNL     1     -42.030 -50.868  12.768  1.00  0.00     0.316 C 
HETATM   15  O   UNL     1     -41.380 -50.650  13.780  1.00  0.00    -0.247 OA
HETATM   16  N   UNL     1     -43.243 -51.508  12.750  1.00  0.00    -0.335 N 
HETATM   17  H   UNL     1     -43.540 -51.900  11.871  1.00  0.00     0.164 HD
HETATM   18  H   UNL     1     -42.355 -50.315  10.831  1.00  0.00     0.164 HD
BRANCH  16  19
HETATM   19  C   UNL     1     -43.820 -52.062  13.964  1.00  0.00     0.109 C 
HETATM   20  C   UNL     1     -44.244 -53.531  13.796  1.00  0.00     0.029 C 
HETATM   21  C   UNL     1     -45.738 -53.875  13.800  1.00  0.00     0.006 C 
HETATM   22  C   UNL     1     -46.752 -52.776  14.117  1.00  0.00     0.027 C 
HETATM   23  C   UNL     1     -46.201 -51.432  14.440  1.00  0.00    -0.029 C 
HETATM   24  C   UNL     1     -44.903 -51.121  14.374  1.00  0.00    -0.006 C 
ENDBRANCH  16  19
ENDBRANCH   1  13
TORSDOF 5
ENDMDL
MODEL 3
REMARK VINA RESULT:      -5.5      1.957      3.272
REMARK  5 active torsions:
REMARK  status: ('A' for Active; 'I' for Inactive)
REMARK    1  A    between atoms: N_2  and  C_4 
REMARK    2  A    between atoms: C_4  and  C_5 
REMARK    3  A    between atoms: C_4  and  C_16 
REMARK    4  A    between atoms: C_5  and  N_6 
REMARK       I    between atoms: N_6  and  C_7 
REMARK       I    between atoms: C_7  and  N_9 
REMARK    5  A    between atoms: N_9  and  C_10 
ROOT
HETATM    1  C   UNL     1     -41.012 -49.214  13.353  1.00  0.00     0.165 C 
ENDROOT
BRANCH   1   2
HETATM    2  C   UNL     1     -40.275 -49.029  11.991  1.00  0.00     0.275 C 
BRANCH   2   3
HETATM    3  N   UNL     1     -38.809 -48.743  12.113  1.00  0.00     0.090 N 
HETATM    4  C   UNL     1     -38.409 -48.638  13.524  1.00  0.00     0.310 C 
HETATM    5  C   UNL     1     -38.000 -49.812  11.495  1.00  0.00     0.310 C 
ENDBRANCH   2   3
BRANCH   2   6
HETATM    6  C   UNL     1     -40.939 -47.945  11.178  1.00  0.00     0.011 A 
HETATM    7  C   UNL     1     -40.478 -46.632  10.916  1.00  0.00     0.118 A 
HETATM    8  N   UNL     1     -41.291 -45.949  10.108  1.00  0.00    -0.310 N 
HETATM    9  N   UNL     1     -42.276 -46.820   9.841  1.00  0.00    -0.308 N 
ATOM     10  HN  UNL     1     -41.188 -44.991   9.773  1.00  0.00     0.186 HD
HETATM   11  C   UNL     1     -43.325 -46.468   8.915  1.00  0.00     0.177 C 
HETATM   12  C   UNL     1     -42.127 -48.020  10.474  1.00  0.00     0.120 A 
ENDBRANCH   2   6
ENDBRANCH   1   2
BRANCH   1  13
HETATM   13  N   UNL     1     -41.665 -50.509  13.512  1.00  0.00    -0.341 N 
HETATM   14  C   UNL     1     -42.993 -50.647  13.195  1.00  0.00     0.316 C 
HETATM   15  O   UNL     1     -43.700 -49.730  12.803  1.00  0.00    -0.247 OA
HETATM   16  N   UNL     1     -43.426 -51.935  13.376  1.00  0.00    -0.335 N 
HETATM   17  H   UNL     1     -42.870 -52.525  13.974  1.00  0.00     0.164 HD
HETATM   18  H   UNL     1     -41.078 -51.320  13.396  1.00  0.00     0.164 HD
BRANCH  16  19
HETATM   19  C   UNL     1     -44.822 -52.294  13.185  1.00  0.00     0.109 C 
HETATM   20  C   UNL     1     -45.715 -51.818  14.345  1.00  0.00     0.029 C 
HETATM   21  C   UNL     1     -46.331 -52.863  15.282  1.00  0.00     0.006 C 
HETATM   22  C   UNL     1     -46.164 -54.346  14.952  1.00  0.00     0.027 C 
HETATM   23  C   UNL     1     -45.429 -54.673  13.699  1.00  0.00    -0.029 C 
HETATM   24  C   UNL     1     -44.839 -53.762  12.919  1.00  0.00    -0.006 C 
ENDBRANCH  16  19
ENDBRANCH   1  13
TORSDOF 5
ENDMDL
MODEL 4
REMARK VINA RESULT:      -5.5      3.297      4.645
REMARK  5 active torsions:
REMARK  status: ('A' for Active; 'I' for Inactive)
REMARK    1  A    between atoms: N_2  and  C_4 
REMARK    2  A    between atoms: C_4  and  C_5 
REMARK    3  A    between atoms: C_4  and  C_16 
REMARK    4  A    between atoms: C_5  and  N_6 
REMARK       I    between atoms: N_6  and  C_7 
REMARK       I    between atoms: C_7  and  N_9 
REMARK    5  A    between atoms: N_9  and  C_10 
ROOT
HETATM    1  C   UNL     1     -38.519 -51.027  14.490  1.00  0.00     0.165 C 
ENDROOT
BRANCH   1   2
HETATM    2  C   UNL     1     -38.230 -49.650  13.817  1.00  0.00     0.275 C 
BRANCH   2   3
HETATM    3  N   UNL     1     -38.362 -48.472  14.734  1.00  0.00     0.090 N 
HETATM    4  C   UNL     1     -38.284 -48.890  16.142  1.00  0.00     0.310 C 
HETATM    5  C   UNL     1     -37.289 -47.486  14.498  1.00  0.00     0.310 C 
ENDBRANCH   2   3
BRANCH   2   6
HETATM    6  C   UNL     1     -39.119 -49.457  12.613  1.00  0.00     0.011 A 
HETATM    7  C   UNL     1     -39.086 -50.141  11.374  1.00  0.00     0.118 A 
HETATM    8  N   UNL     1     -40.058 -49.759  10.543  1.00  0.00    -0.310 N 
HETATM    9  N   UNL     1     -40.725 -48.830  11.246  1.00  0.00    -0.308 N 
ATOM     10  HN  UNL     1     -40.248 -50.092   9.599  1.00  0.00     0.186 HD
HETATM   11  C   UNL     1     -41.918 -48.228  10.702  1.00  0.00     0.177 C 
HETATM   12  C   UNL     1     -40.191 -48.595  12.480  1.00  0.00     0.120 A 
ENDBRANCH   2   6
ENDBRANCH   1   2
BRANCH   1  13
HETATM   13  N   UNL     1     -39.932 -51.387  14.538  1.00  0.00    -0.341 N 
HETATM   14  C   UNL     1     -40.378 -52.494  13.861  1.00  0.00     0.316 C 
HETATM   15  O   UNL     1     -39.662 -53.208  13.175  1.00  0.00    -0.247 OA
HETATM   16  N   UNL     1     -41.722 -52.694  14.046  1.00  0.00    -0.335 N 
HETATM   17  H   UNL     1     -42.263 -51.906  14.364  1.00  0.00     0.164 HD
HETATM   18  H   UNL     1     -40.427 -51.131  15.379  1.00  0.00     0.164 HD
BRANCH  16  19
HETATM   19  C   UNL     1     -42.427 -53.759  13.351  1.00  0.00     0.109 C 
HETATM   20  C   UNL     1     -43.554 -53.226  12.449  1.00  0.00     0.029 C 
HETATM   21  C   UNL     1     -45.010 -53.509  12.838  1.00  0.00     0.006 C 
HETATM   22  C   UNL     1     -45.295 -54.432  14.022  1.00  0.00     0.027 C 
HETATM   23  C   UNL     1     -44.114 -55.030  14.704  1.00  0.00    -0.029 C 
HETATM   24  C   UNL     1     -42.847 -54.732  14.402  1.00  0.00    -0.006 C 
ENDBRANCH  16  19
ENDBRANCH   1  13
TORSDOF 5
ENDMDL
MODEL 5
REMARK VINA RESULT:      -5.4      2.747      3.857
REMARK  5 active torsions:
REMARK  status: ('A' for Active; 'I' for Inactive)
REMARK    1  A    between atoms: N_2  and  C_4 
REMARK    2  A    between atoms: C_4  and  C_5 
REMARK    3  A    between atoms: C_4  and  C_16 
REMARK    4  A    between atoms: C_5  and  N_6 
REMARK       I    between atoms: N_6  and  C_7 
REMARK       I    between atoms: C_7  and  N_9 
REMARK    5  A    between atoms: N_9  and  C_10 
ROOT
HETATM    1  C   UNL     1     -40.154 -50.103  11.232  1.00  0.00     0.165 C 
ENDROOT
BRANCH   1   2
HETATM    2  C   UNL     1     -39.397 -48.949  11.957  1.00  0.00     0.275 C 
BRANCH   2   3
HETATM    3  N   UNL     1     -38.865 -49.310  13.310  1.00  0.00     0.090 N 
HETATM    4  C   UNL     1     -38.313 -50.673  13.312  1.00  0.00     0.310 C 
HETATM    5  C   UNL     1     -37.790 -48.389  13.727  1.00  0.00     0.310 C 
ENDBRANCH   2   3
BRANCH   2   6
HETATM    6  C   UNL     1     -40.280 -47.730  12.066  1.00  0.00     0.011 A 
HETATM    7  C   UNL     1     -41.047 -47.293  13.173  1.00  0.00     0.118 A 
HETATM    8  N   UNL     1     -41.672 -46.136  12.947  1.00  0.00    -0.310 N 
HETATM    9  N   UNL     1     -41.306 -45.819  11.696  1.00  0.00    -0.308 N 
ATOM     10  HN  UNL     1     -42.284 -45.616  13.577  1.00  0.00     0.186 HD
HETATM   11  C   UNL     1     -41.724 -44.567  11.113  1.00  0.00     0.177 C 
HETATM   12  C   UNL     1     -40.493 -46.750  11.115  1.00  0.00     0.120 A 
ENDBRANCH   2   6
ENDBRANCH   1   2
BRANCH   1  13
HETATM   13  N   UNL     1     -41.578 -50.175  11.542  1.00  0.00    -0.341 N 
HETATM   14  C   UNL     1     -42.044 -51.148  12.389  1.00  0.00     0.316 C 
HETATM   15  O   UNL     1     -41.337 -52.005  12.898  1.00  0.00    -0.247 OA
HETATM   16  N   UNL     1     -43.397 -51.042  12.588  1.00  0.00    -0.335 N 
HETATM   17  H   UNL     1     -43.920 -50.515  11.906  1.00  0.00     0.164 HD
HETATM   18  H   UNL     1     -42.081 -49.301  11.523  1.00  0.00     0.164 HD
BRANCH  16  19
HETATM   19  C   UNL     1     -44.120 -52.023  13.381  1.00  0.00     0.109 C 
HETATM   20  C   UNL     1     -45.406 -52.506  12.687  1.00  0.00     0.029 C 
HETATM   21  C   UNL     1     -46.762 -52.104  13.280  1.00  0.00     0.006 C 
HETATM   22  C   UNL     1     -46.798 -51.365  14.617  1.00  0.00     0.027 C 
HETATM   23  C   UNL     1     -45.487 -51.115  15.277  1.00  0.00    -0.029 C 
HETATM   24  C   UNL     1     -44.306 -51.410  14.729  1.00  0.00    -0.006 C 
ENDBRANCH  16  19
ENDBRANCH   1  13
TORSDOF 5
ENDMDL
MODEL 6
REMARK VINA RESULT:      -5.2      2.969      7.780
REMARK  5 active torsions:
REMARK  status: ('A' for Active; 'I' for Inactive)
REMARK    1  A    between atoms: N_2  and  C_4 
REMARK    2  A    between atoms: C_4  and  C_5 
REMARK    3  A    between atoms: C_4  and  C_16 
REMARK    4  A    between atoms: C_5  and  N_6 
REMARK       I    between atoms: N_6  and  C_7 
REMARK       I    between atoms: C_7  and  N_9 
REMARK    5  A    between atoms: N_9  and  C_10 
ROOT
HETATM    1  C   UNL     1     -42.358 -51.654  13.826  1.00  0.00     0.165 C 
ENDROOT
BRANCH   1   2
HETATM    2  C   UNL     1     -42.529 -53.194  13.650  1.00  0.00     0.275 C 
BRANCH   2   3
HETATM    3  N   UNL     1     -43.635 -53.792  14.466  1.00  0.00     0.090 N 
HETATM    4  C   UNL     1     -44.342 -52.756  15.233  1.00  0.00     0.310 C 
HETATM    5  C   UNL     1     -44.626 -54.471  13.609  1.00  0.00     0.310 C 
ENDBRANCH   2   3
BRANCH   2   6
HETATM    6  C   UNL     1     -41.233 -53.905  13.953  1.00  0.00     0.011 A 
HETATM    7  C   UNL     1     -40.163 -54.201  13.073  1.00  0.00     0.118 A 
HETATM    8  N   UNL     1     -39.137 -54.794  13.686  1.00  0.00    -0.310 N 
HETATM    9  N   UNL     1     -39.539 -54.878  14.964  1.00  0.00    -0.308 N 
ATOM     10  HN  UNL     1     -38.257 -55.110  13.280  1.00  0.00     0.186 HD
HETATM   11  C   UNL     1     -38.648 -55.399  15.971  1.00  0.00     0.177 C 
HETATM   12  C   UNL     1     -40.794 -54.383  15.173  1.00  0.00     0.120 A 
ENDBRANCH   2   6
ENDBRANCH   1   2
BRANCH   1  13
HETATM   13  N   UNL     1     -42.513 -50.887  12.595  1.00  0.00    -0.341 N 
HETATM   14  C   UNL     1     -42.993 -49.603  12.646  1.00  0.00     0.316 C 
HETATM   15  O   UNL     1     -43.338 -49.044  13.676  1.00  0.00    -0.247 OA
HETATM   16  N   UNL     1     -43.041 -49.029  11.401  1.00  0.00    -0.335 N 
HETATM   17  H   UNL     1     -43.030 -49.653  10.609  1.00  0.00     0.164 HD
HETATM   18  H   UNL     1     -41.872 -51.110  11.849  1.00  0.00     0.164 HD
BRANCH  16  19
HETATM   19  C   UNL     1     -43.600 -47.702  11.205  1.00  0.00     0.109 C 
HETATM   20  C   UNL     1     -44.755 -47.694  10.188  1.00  0.00     0.029 C 
HETATM   21  C   UNL     1     -44.543 -47.010   8.832  1.00  0.00     0.006 C 
HETATM   22  C   UNL     1     -43.252 -46.230   8.589  1.00  0.00     0.027 C 
HETATM   23  C   UNL     1     -42.287 -46.162   9.721  1.00  0.00    -0.029 C 
HETATM   24  C   UNL     1     -42.447 -46.812  10.877  1.00  0.00    -0.006 C 
ENDBRANCH  16  19
ENDBRANCH   1  13
TORSDOF 5
ENDMDL
MODEL 7
REMARK VINA RESULT:      -5.2      2.337      7.055
REMARK  5 active torsions:
REMARK  status: ('A' for Active; 'I' for Inactive)
REMARK    1  A    between atoms: N_2  and  C_4 
REMARK    2  A    between atoms: C_4  and  C_5 
REMARK    3  A    between atoms: C_4  and  C_16 
REMARK    4  A    between atoms: C_5  and  N_6 
REMARK       I    between atoms: N_6  and  C_7 
REMARK       I    between atoms: C_7  and  N_9 
REMARK    5  A    between atoms: N_9  and  C_10 
ROOT
HETATM    1  C   UNL     1     -41.325 -52.548  12.242  1.00  0.00     0.165 C 
ENDROOT
BRANCH   1   2
HETATM    2  C   UNL     1     -41.848 -53.110  13.599  1.00  0.00     0.275 C 
BRANCH   2   3
HETATM    3  N   UNL     1     -41.256 -54.429  13.993  1.00  0.00     0.090 N 
HETATM    4  C   UNL     1     -39.801 -54.439  13.775  1.00  0.00     0.310 C 
HETATM    5  C   UNL     1     -41.497 -54.721  15.420  1.00  0.00     0.310 C 
ENDBRANCH   2   3
BRANCH   2   6
HETATM    6  C   UNL     1     -43.353 -53.215  13.579  1.00  0.00     0.011 A 
HETATM    7  C   UNL     1     -44.168 -54.053  12.780  1.00  0.00     0.118 A 
HETATM    8  N   UNL     1     -45.468 -53.932  13.058  1.00  0.00    -0.310 N 
HETATM    9  N   UNL     1     -45.495 -53.019  14.041  1.00  0.00    -0.308 N 
ATOM     10  HN  UNL     1     -46.253 -54.417  12.626  1.00  0.00     0.186 HD
HETATM   11  C   UNL     1     -46.744 -52.674  14.676  1.00  0.00     0.177 C 
HETATM   12  C   UNL     1     -44.261 -52.541  14.374  1.00  0.00     0.120 A 
ENDBRANCH   2   6
ENDBRANCH   1   2
BRANCH   1  13
HETATM   13  N   UNL     1     -41.919 -51.274  11.851  1.00  0.00    -0.341 N 
HETATM   14  C   UNL     1     -41.111 -50.226  11.489  1.00  0.00     0.316 C 
HETATM   15  O   UNL     1     -39.890 -50.272  11.498  1.00  0.00    -0.247 OA
HETATM   16  N   UNL     1     -41.841 -49.124  11.124  1.00  0.00    -0.335 N 
HETATM   17  H   UNL     1     -42.799 -49.086  11.436  1.00  0.00     0.164 HD
HETATM   18  H   UNL     1     -42.830 -51.322  11.421  1.00  0.00     0.164 HD
BRANCH  16  19
HETATM   19  C   UNL     1     -41.192 -47.868  10.787  1.00  0.00     0.109 C 
HETATM   20  C   UNL     1     -40.567 -47.182  12.015  1.00  0.00     0.029 C 
HETATM   21  C   UNL     1     -41.190 -45.880  12.532  1.00  0.00     0.006 C 
HETATM   22  C   UNL     1     -42.315 -45.226  11.730  1.00  0.00     0.027 C 
HETATM   23  C   UNL     1     -42.708 -45.897  10.460  1.00  0.00    -0.029 C 
HETATM   24  C   UNL     1     -42.207 -47.064  10.045  1.00  0.00    -0.006 C 
ENDBRANCH  16  19
ENDBRANCH   1  13
TORSDOF 5
ENDMDL
MODEL 8
REMARK VINA RESULT:      -5.1      2.834      4.100
REMARK  5 active torsions:
REMARK  status: ('A' for Active; 'I' for Inactive)
REMARK    1  A    between atoms: N_2  and  C_4 
REMARK    2  A    between atoms: C_4  and  C_5 
REMARK    3  A    between atoms: C_4  and  C_16 
REMARK    4  A    between atoms: C_5  and  N_6 
REMARK       I    between atoms: N_6  and  C_7 
REMARK       I    between atoms: C_7  and  N_9 
REMARK    5  A    between atoms: N_9  and  C_10 
ROOT
HETATM    1  C   UNL     1     -40.585 -49.599  14.061  1.00  0.00     0.165 C 
ENDROOT
BRANCH   1   2
HETATM    2  C   UNL     1     -39.799 -49.675  12.716  1.00  0.00     0.275 C 
BRANCH   2   3
HETATM    3  N   UNL     1     -38.309 -49.642  12.867  1.00  0.00     0.090 N 
HETATM    4  C   UNL     1     -37.884 -50.392  14.058  1.00  0.00     0.310 C 
HETATM    5  C   UNL     1     -37.638 -50.241  11.696  1.00  0.00     0.310 C 
ENDBRANCH   2   3
BRANCH   2   6
HETATM    6  C   UNL     1     -40.240 -48.570  11.787  1.00  0.00     0.011 A 
HETATM    7  C   UNL     1     -41.236 -48.608  10.782  1.00  0.00     0.118 A 
HETATM    8  N   UNL     1     -41.411 -47.430  10.180  1.00  0.00    -0.310 N 
HETATM    9  N   UNL     1     -40.532 -46.626  10.799  1.00  0.00    -0.308 N 
ATOM     10  HN  UNL     1     -42.058 -47.196   9.427  1.00  0.00     0.186 HD
HETATM   11  C   UNL     1     -40.480 -45.222  10.473  1.00  0.00     0.177 C 
HETATM   12  C   UNL     1     -39.790 -47.263  11.751  1.00  0.00     0.120 A 
ENDBRANCH   2   6
ENDBRANCH   1   2
BRANCH   1  13
HETATM   13  N   UNL     1     -41.857 -50.314  14.054  1.00  0.00    -0.341 N 
HETATM   14  C   UNL     1     -41.943 -51.561  14.620  1.00  0.00     0.316 C 
HETATM   15  O   UNL     1     -40.996 -52.149  15.121  1.00  0.00    -0.247 OA
HETATM   16  N   UNL     1     -43.216 -52.064  14.549  1.00  0.00    -0.335 N 
HETATM   17  H   UNL     1     -43.834 -51.652  13.868  1.00  0.00     0.164 HD
HETATM   18  H   UNL     1     -42.688 -49.743  14.072  1.00  0.00     0.164 HD
BRANCH  16  19
HETATM   19  C   UNL     1     -43.521 -53.409  15.009  1.00  0.00     0.109 C 
HETATM   20  C   UNL     1     -43.822 -54.372  13.847  1.00  0.00     0.029 C 
HETATM   21  C   UNL     1     -45.253 -54.895  13.670  1.00  0.00     0.006 C 
HETATM   22  C   UNL     1     -46.300 -54.563  14.732  1.00  0.00     0.027 C 
HETATM   23  C   UNL     1     -45.836 -53.770  15.904  1.00  0.00    -0.029 C 
HETATM   24  C   UNL     1     -44.606 -53.264  16.023  1.00  0.00    -0.006 C 
ENDBRANCH  16  19
ENDBRANCH   1  13
TORSDOF 5
ENDMDL
MODEL 9
REMARK VINA RESULT:      -5.0      3.089      7.374
REMARK  5 active torsions:
REMARK  status: ('A' for Active; 'I' for Inactive)
REMARK    1  A    between atoms: N_2  and  C_4 
REMARK    2  A    between atoms: C_4  and  C_5 
REMARK    3  A    between atoms: C_4  and  C_16 
REMARK    4  A    between atoms: C_5  and  N_6 
REMARK       I    between atoms: N_6  and  C_7 
REMARK       I    between atoms: C_7  and  N_9 
REMARK    5  A    between atoms: N_9  and  C_10 
ROOT
HETATM    1  C   UNL     1     -43.192 -50.168  14.287  1.00  0.00     0.165 C 
ENDROOT
BRANCH   1   2
HETATM    2  C   UNL     1     -43.600 -51.320  13.318  1.00  0.00     0.275 C 
BRANCH   2   3
HETATM    3  N   UNL     1     -44.756 -52.147  13.790  1.00  0.00     0.090 N 
HETATM    4  C   UNL     1     -45.755 -51.313  14.475  1.00  0.00     0.310 C 
HETATM    5  C   UNL     1     -45.430 -52.821  12.664  1.00  0.00     0.310 C 
ENDBRANCH   2   3
BRANCH   2   6
HETATM    6  C   UNL     1     -42.417 -52.213  13.037  1.00  0.00     0.011 A 
HETATM    7  C   UNL     1     -41.725 -52.404  11.816  1.00  0.00     0.118 A 
HETATM    8  N   UNL     1     -40.683 -53.229  11.933  1.00  0.00    -0.310 N 
HETATM    9  N   UNL     1     -40.695 -53.570  13.231  1.00  0.00    -0.308 N 
ATOM     10  HN  UNL     1     -40.033 -53.530  11.208  1.00  0.00     0.186 HD
HETATM   11  C   UNL     1     -39.650 -54.405  13.771  1.00  0.00     0.177 C 
HETATM   12  C   UNL     1     -41.725 -53.009  13.931  1.00  0.00     0.120 A 
ENDBRANCH   2   6
ENDBRANCH   1   2
BRANCH   1  13
HETATM   13  N   UNL     1     -42.857 -48.913  13.621  1.00  0.00    -0.341 N 
HETATM   14  C   UNL     1     -41.544 -48.599  13.377  1.00  0.00     0.316 C 
HETATM   15  O   UNL     1     -40.601 -49.301  13.711  1.00  0.00    -0.247 OA
HETATM   16  N   UNL     1     -41.422 -47.403  12.718  1.00  0.00    -0.335 N 
HETATM   17  H   UNL     1     -42.209 -46.775  12.762  1.00  0.00     0.164 HD
HETATM   18  H   UNL     1     -43.543 -48.556  12.975  1.00  0.00     0.164 HD
BRANCH  16  19
HETATM   19  C   UNL     1     -40.117 -46.829  12.434  1.00  0.00     0.109 C 
HETATM   20  C   UNL     1     -39.767 -45.668  13.382  1.00  0.00     0.029 C 
HETATM   21  C   UNL     1     -39.706 -44.244  12.817  1.00  0.00     0.006 C 
HETATM   22  C   UNL     1     -39.849 -44.037  11.310  1.00  0.00     0.027 C 
HETATM   23  C   UNL     1     -40.005 -45.262  10.478  1.00  0.00    -0.029 C 
HETATM   24  C   UNL     1     -40.120 -46.495  10.979  1.00  0.00    -0.006 C 
ENDBRANCH  16  19
ENDBRANCH   1  13
TORSDOF 5
ENDMDL
