MODEL 1
REMARK VINA RESULT:      -6.3      0.000      0.000
REMARK  6 active torsions:
REMARK  status: ('A' for Active; 'I' for Inactive)
REMARK    1  A    between atoms: C_2  and  C_4 
REMARK    2  A    between atoms: C_4  and  N_5 
REMARK    3  A    between atoms: C_7  and  C_11 
REMARK       I    between atoms: C_11  and  N_13 
REMARK    4  A    between atoms: N_13  and  C_14 
REMARK    5  A    between atoms: C_14  and  C_15 
REMARK    6  A    between atoms: C_15  and  C_16 
ROOT
HETATM    1  C   UNL     1     -41.183 -52.216  13.194  1.00  0.00     0.223 C 
HETATM    2  O   UNL     1     -41.285 -51.596  14.252  1.00  0.00    -0.273 OA
HETATM    3  N   UNL     1     -40.337 -51.798  12.186  1.00  0.00    -0.360 N 
HETATM    4  H   UNL     1     -40.287 -52.301  11.309  1.00  0.00     0.162 HD
ENDROOT
BRANCH   1   5
HETATM    5  C   UNL     1     -42.015 -53.450  12.889  1.00  0.00     0.104 A 
HETATM    6  C   UNL     1     -43.417 -53.063  12.424  1.00  0.00     0.140 A 
HETATM    7  N   UNL     1     -44.334 -53.810  13.248  1.00  0.00    -0.351 N 
HETATM    8  C   UNL     1     -43.698 -54.548  14.226  1.00  0.00     0.220 A 
HETATM    9  C   UNL     1     -42.213 -54.348  14.108  1.00  0.00     0.118 A 
HETATM   10  O   UNL     1     -44.234 -55.234  15.083  1.00  0.00    -0.273 OA
BRANCH   7  11
HETATM   11  C   UNL     1     -45.747 -53.460  13.334  1.00  0.00     0.129 C 
BRANCH  11  12
HETATM   12  C   UNL     1     -46.044 -51.964  13.162  1.00  0.00    -0.005 C 
HETATM   13  C   UNL     1     -46.933 -51.717  11.944  1.00  0.00     0.011 C 
HETATM   14  C   UNL     1     -46.719 -51.421  14.424  1.00  0.00     0.011 C 
ENDBRANCH  11  12
ENDBRANCH   7  11
ENDBRANCH   1   5
BRANCH   3  15
HETATM   15  C   UNL     1     -39.541 -50.596  12.388  1.00  0.00     0.128 C 
BRANCH  15  16
HETATM   16  C   UNL     1     -39.587 -49.611  11.226  1.00  0.00     0.076 C 
BRANCH  16  17
HETATM   17  C   UNL     1     -40.883 -48.839  11.254  1.00  0.00     0.010 A 
HETATM   18  C   UNL     1     -41.499 -48.527  12.464  1.00  0.00     0.025 A 
HETATM   19  C   UNL     1     -42.727 -47.867  12.442  1.00  0.00     0.003 A 
HETATM   20  C   UNL     1     -43.309 -47.544  11.221  1.00  0.00     0.017 A 
HETATM   21  C   UNL     1     -42.629 -47.891  10.066  1.00  0.00     0.088 A 
HETATM   22  N   UNL     1     -41.436 -48.528  10.057  1.00  0.00    -0.369 N 
ATOM     23  HN  UNL     1     -40.970 -48.766   9.182  1.00  0.00     0.165 HD
ENDBRANCH  16  17
ENDBRANCH  15  16
ENDBRANCH   3  15
TORSDOF 6
ENDMDL
MODEL 2
REMARK VINA RESULT:      -6.0      2.677      6.665
REMARK  6 active torsions:
REMARK  status: ('A' for Active; 'I' for Inactive)
REMARK    1  A    between atoms: C_2  and  C_4 
REMARK    2  A    between atoms: C_4  and  N_5 
REMARK    3  A    between atoms: C_7  and  C_11 
REMARK       I    between atoms: C_11  and  N_13 
REMARK    4  A    between atoms: N_13  and  C_14 
REMARK    5  A    between atoms: C_14  and  C_15 
REMARK    6  A    between atoms: C_15  and  C_16 
ROOT
HETATM    1  C   UNL     1     -40.224 -49.017  12.150  1.00  0.00     0.223 C 
HETATM    2  O   UNL     1     -39.266 -49.286  11.426  1.00  0.00    -0.273 OA
HETATM    3  N   UNL     1     -40.869 -49.986  12.891  1.00  0.00    -0.360 N 
HETATM    4  H   UNL     1     -41.675 -49.755  13.458  1.00  0.00     0.162 HD
ENDROOT
BRANCH   1   5
HETATM    5  C   UNL     1     -40.807 -47.617  12.244  1.00  0.00     0.104 A 
HETATM    6  C   UNL     1     -42.164 -47.542  11.546  1.00  0.00     0.140 A 
HETATM    7  N   UNL     1     -42.087 -46.425  10.637  1.00  0.00    -0.351 N 
HETATM    8  C   UNL     1     -40.836 -45.843  10.607  1.00  0.00     0.220 A 
HETATM    9  C   UNL     1     -39.932 -46.563  11.568  1.00  0.00     0.118 A 
HETATM   10  O   UNL     1     -40.484 -44.912   9.898  1.00  0.00    -0.273 OA
BRANCH   7  11
HETATM   11  C   UNL     1     -43.055 -46.244   9.562  1.00  0.00     0.129 C 
BRANCH  11  12
HETATM   12  C   UNL     1     -43.794 -47.524   9.149  1.00  0.00    -0.005 C 
HETATM   13  C   UNL     1     -45.305 -47.363   9.313  1.00  0.00     0.011 C 
HETATM   14  C   UNL     1     -43.458 -47.871   7.696  1.00  0.00     0.011 C 
ENDBRANCH  11  12
ENDBRANCH   7  11
ENDBRANCH   1   5
BRANCH   3  15
HETATM   15  C   UNL     1     -40.395 -51.360  12.816  1.00  0.00     0.128 C 
BRANCH  15  16
HETATM   16  C   UNL     1     -41.174 -52.240  11.844  1.00  0.00     0.076 C 
BRANCH  16  17
HETATM   17  C   UNL     1     -42.248 -53.000  12.582  1.00  0.00     0.010 A 
HETATM   18  C   UNL     1     -41.946 -53.718  13.736  1.00  0.00     0.025 A 
HETATM   19  C   UNL     1     -42.956 -54.456  14.352  1.00  0.00     0.003 A 
HETATM   20  C   UNL     1     -44.231 -54.467  13.797  1.00  0.00     0.017 A 
HETATM   21  C   UNL     1     -44.445 -53.725  12.648  1.00  0.00     0.088 A 
HETATM   22  N   UNL     1     -43.487 -52.997  12.032  1.00  0.00    -0.369 N 
ATOM     23  HN  UNL     1     -43.688 -52.466  11.185  1.00  0.00     0.165 HD
ENDBRANCH  16  17
ENDBRANCH  15  16
ENDBRANCH   3  15
TORSDOF 6
ENDMDL
MODEL 3
REMARK VINA RESULT:      -6.0      1.554      2.148
REMARK  6 active torsions:
REMARK  status: ('A' for Active; 'I' for Inactive)
REMARK    1  A    between atoms: C_2  and  C_4 
REMARK    2  A    between atoms: C_4  and  N_5 
REMARK    3  A    between atoms: C_7  and  C_11 
REMARK       I    between atoms: C_11  and  N_13 
REMARK    4  A    between atoms: N_13  and  C_14 
REMARK    5  A    between atoms: C_14  and  C_15 
REMARK    6  A    between atoms: C_15  and  C_16 
ROOT
HETATM    1  C   UNL     1     -40.924 -51.590  11.963  1.00  0.00     0.223 C 
HETATM    2  O   UNL     1     -39.720 -51.582  12.214  1.00  0.00    -0.273 OA
HETATM    3  N   UNL     1     -41.559 -50.496  11.410  1.00  0.00    -0.360 N 
HETATM    4  H   UNL     1     -42.556 -50.506  11.239  1.00  0.00     0.162 HD
ENDROOT
BRANCH   1   5
HETATM    5  C   UNL     1     -41.818 -52.775  12.292  1.00  0.00     0.104 A 
HETATM    6  C   UNL     1     -43.202 -52.308  12.737  1.00  0.00     0.140 A 
HETATM    7  N   UNL     1     -43.466 -52.971  13.990  1.00  0.00    -0.351 N 
HETATM    8  C   UNL     1     -42.398 -53.723  14.435  1.00  0.00     0.220 A 
HETATM    9  C   UNL     1     -41.276 -53.625  13.440  1.00  0.00     0.118 A 
HETATM   10  O   UNL     1     -42.336 -54.350  15.482  1.00  0.00    -0.273 OA
BRANCH   7  11
HETATM   11  C   UNL     1     -44.530 -52.527  14.883  1.00  0.00     0.129 C 
BRANCH  11  12
HETATM   12  C   UNL     1     -45.943 -52.646  14.298  1.00  0.00    -0.005 C 
HETATM   13  C   UNL     1     -46.629 -53.927  14.772  1.00  0.00     0.011 C 
HETATM   14  C   UNL     1     -46.775 -51.425  14.700  1.00  0.00     0.011 C 
ENDBRANCH  11  12
ENDBRANCH   7  11
ENDBRANCH   1   5
BRANCH   3  15
HETATM   15  C   UNL     1     -40.776 -49.306  11.110  1.00  0.00     0.128 C 
BRANCH  15  16
HETATM   16  C   UNL     1     -41.506 -47.994  11.369  1.00  0.00     0.076 C 
BRANCH  16  17
HETATM   17  C   UNL     1     -42.626 -47.820  10.373  1.00  0.00     0.010 A 
HETATM   18  C   UNL     1     -43.930 -47.586  10.803  1.00  0.00     0.025 A 
HETATM   19  C   UNL     1     -44.945 -47.494   9.852  1.00  0.00     0.003 A 
HETATM   20  C   UNL     1     -44.636 -47.645   8.505  1.00  0.00     0.017 A 
HETATM   21  C   UNL     1     -43.315 -47.875   8.164  1.00  0.00     0.088 A 
HETATM   22  N   UNL     1     -42.310 -47.966   9.064  1.00  0.00    -0.369 N 
ATOM     23  HN  UNL     1     -41.349 -48.139   8.768  1.00  0.00     0.165 HD
ENDBRANCH  16  17
ENDBRANCH  15  16
ENDBRANCH   3  15
TORSDOF 6
ENDMDL
MODEL 4
REMARK VINA RESULT:      -5.8      2.345      3.348
REMARK  6 active torsions:
REMARK  status: ('A' for Active; 'I' for Inactive)
REMARK    1  A    between atoms: C_2  and  C_4 
REMARK    2  A    between atoms: C_4  and  N_5 
REMARK    3  A    between atoms: C_7  and  C_11 
REMARK       I    between atoms: C_11  and  N_13 
REMARK    4  A    between atoms: N_13  and  C_14 
REMARK    5  A    between atoms: C_14  and  C_15 
REMARK    6  A    between atoms: C_15  and  C_16 
ROOT
HETATM    1  C   UNL     1     -42.011 -54.094  13.492  1.00  0.00     0.223 C 
HETATM    2  O   UNL     1     -40.790 -54.202  13.598  1.00  0.00    -0.273 OA
HETATM    3  N   UNL     1     -42.588 -53.231  12.583  1.00  0.00    -0.360 N 
HETATM    4  H   UNL     1     -43.594 -53.130  12.529  1.00  0.00     0.162 HD
ENDROOT
BRANCH   1   5
HETATM    5  C   UNL     1     -42.977 -54.854  14.387  1.00  0.00     0.104 A 
HETATM    6  C   UNL     1     -44.424 -54.579  13.984  1.00  0.00     0.140 A 
HETATM    7  N   UNL     1     -45.107 -54.179  15.189  1.00  0.00    -0.351 N 
HETATM    8  C   UNL     1     -44.263 -54.081  16.277  1.00  0.00     0.220 A 
HETATM    9  C   UNL     1     -42.868 -54.448  15.855  1.00  0.00     0.118 A 
HETATM   10  O   UNL     1     -44.568 -53.723  17.405  1.00  0.00    -0.273 OA
BRANCH   7  11
HETATM   11  C   UNL     1     -46.406 -53.517  15.151  1.00  0.00     0.129 C 
BRANCH  11  12
HETATM   12  C   UNL     1     -46.337 -51.986  15.076  1.00  0.00    -0.005 C 
HETATM   13  C   UNL     1     -46.581 -51.494  13.650  1.00  0.00     0.011 C 
HETATM   14  C   UNL     1     -47.369 -51.373  16.027  1.00  0.00     0.011 C 
ENDBRANCH  11  12
ENDBRANCH   7  11
ENDBRANCH   1   5
BRANCH   3  15
HETATM   15  C   UNL     1     -41.724 -52.435  11.723  1.00  0.00     0.128 C 
BRANCH  15  16
HETATM   16  C   UNL     1     -41.472 -51.019  12.226  1.00  0.00     0.076 C 
BRANCH  16  17
HETATM   17  C   UNL     1     -39.990 -50.783  12.384  1.00  0.00     0.010 A 
HETATM   18  C   UNL     1     -39.321 -49.885  11.557  1.00  0.00     0.025 A 
HETATM   19  C   UNL     1     -37.941 -49.743  11.696  1.00  0.00     0.003 A 
HETATM   20  C   UNL     1     -37.267 -50.503  12.645  1.00  0.00     0.017 A 
HETATM   21  C   UNL     1     -38.009 -51.372  13.426  1.00  0.00     0.088 A 
HETATM   22  N   UNL     1     -39.348 -51.528  13.316  1.00  0.00    -0.369 N 
ATOM     23  HN  UNL     1     -39.855 -52.182  13.912  1.00  0.00     0.165 HD
ENDBRANCH  16  17
ENDBRANCH  15  16
ENDBRANCH   3  15
TORSDOF 6
ENDMDL
MODEL 5
REMARK VINA RESULT:      -5.8      1.333      1.744
REMARK  6 active torsions:
REMARK  status: ('A' for Active; 'I' for Inactive)
REMARK    1  A    between atoms: C_2  and  C_4 
REMARK    2  A    between atoms: C_4  and  N_5 
REMARK    3  A    between atoms: C_7  and  C_11 
REMARK       I    between atoms: C_11  and  N_13 
REMARK    4  A    between atoms: N_13  and  C_14 
REMARK    5  A    between atoms: C_14  and  C_15 
REMARK    6  A    between atoms: C_15  and  C_16 
ROOT
HETATM    1  C   UNL     1     -41.046 -52.548  13.921  1.00  0.00     0.223 C 
HETATM    2  O   UNL     1     -41.530 -51.424  14.048  1.00  0.00    -0.273 OA
HETATM    3  N   UNL     1     -39.681 -52.757  13.941  1.00  0.00    -0.360 N 
HETATM    4  H   UNL     1     -39.296 -53.683  13.804  1.00  0.00     0.162 HD
ENDROOT
BRANCH   1   5
HETATM    5  C   UNL     1     -41.899 -53.781  13.676  1.00  0.00     0.104 A 
HETATM    6  C   UNL     1     -43.138 -53.433  12.854  1.00  0.00     0.140 A 
HETATM    7  N   UNL     1     -44.265 -53.961  13.583  1.00  0.00    -0.351 N 
HETATM    8  C   UNL     1     -43.908 -54.516  14.795  1.00  0.00     0.220 A 
HETATM    9  C   UNL     1     -42.419 -54.409  14.968  1.00  0.00     0.118 A 
HETATM   10  O   UNL     1     -44.664 -54.994  15.627  1.00  0.00    -0.273 OA
BRANCH   7  11
HETATM   11  C   UNL     1     -45.631 -53.540  13.294  1.00  0.00     0.129 C 
BRANCH  11  12
HETATM   12  C   UNL     1     -45.810 -52.023  13.140  1.00  0.00    -0.005 C 
HETATM   13  C   UNL     1     -46.821 -51.697  12.041  1.00  0.00     0.011 C 
HETATM   14  C   UNL     1     -46.267 -51.418  14.471  1.00  0.00     0.011 C 
ENDBRANCH  11  12
ENDBRANCH   7  11
ENDBRANCH   1   5
BRANCH   3  15
HETATM   15  C   UNL     1     -38.797 -51.616  14.126  1.00  0.00     0.128 C 
BRANCH  15  16
HETATM   16  C   UNL     1     -38.175 -51.091  12.837  1.00  0.00     0.076 C 
BRANCH  16  17
HETATM   17  C   UNL     1     -39.001 -49.953  12.291  1.00  0.00     0.010 A 
HETATM   18  C   UNL     1     -38.757 -48.641  12.689  1.00  0.00     0.025 A 
HETATM   19  C   UNL     1     -39.583 -47.627  12.207  1.00  0.00     0.003 A 
HETATM   20  C   UNL     1     -40.633 -47.948  11.353  1.00  0.00     0.017 A 
HETATM   21  C   UNL     1     -40.805 -49.277  11.007  1.00  0.00     0.088 A 
HETATM   22  N   UNL     1     -40.017 -50.280  11.456  1.00  0.00    -0.369 N 
ATOM     23  HN  UNL     1     -40.182 -51.247  11.177  1.00  0.00     0.165 HD
ENDBRANCH  16  17
ENDBRANCH  15  16
ENDBRANCH   3  15
TORSDOF 6
ENDMDL
MODEL 6
REMARK VINA RESULT:      -5.6      1.970      6.173
REMARK  6 active torsions:
REMARK  status: ('A' for Active; 'I' for Inactive)
REMARK    1  A    between atoms: C_2  and  C_4 
REMARK    2  A    between atoms: C_4  and  N_5 
REMARK    3  A    between atoms: C_7  and  C_11 
REMARK       I    between atoms: C_11  and  N_13 
REMARK    4  A    between atoms: N_13  and  C_14 
REMARK    5  A    between atoms: C_14  and  C_15 
REMARK    6  A    between atoms: C_15  and  C_16 
ROOT
HETATM    1  C   UNL     1     -42.429 -50.521  13.453  1.00  0.00     0.223 C 
HETATM    2  O   UNL     1     -42.192 -51.010  14.556  1.00  0.00    -0.273 OA
HETATM    3  N   UNL     1     -42.707 -51.309  12.354  1.00  0.00    -0.360 N 
HETATM    4  H   UNL     1     -42.869 -50.894  11.445  1.00  0.00     0.162 HD
ENDROOT
BRANCH   1   5
HETATM    5  C   UNL     1     -42.380 -49.024  13.196  1.00  0.00     0.104 A 
HETATM    6  C   UNL     1     -43.280 -48.641  12.024  1.00  0.00     0.140 A 
HETATM    7  N   UNL     1     -42.462 -47.864  11.126  1.00  0.00    -0.351 N 
HETATM    8  C   UNL     1     -41.146 -47.782  11.534  1.00  0.00     0.220 A 
HETATM    9  C   UNL     1     -40.982 -48.532  12.826  1.00  0.00     0.118 A 
HETATM   10  O   UNL     1     -40.234 -47.225  10.942  1.00  0.00    -0.273 OA
BRANCH   7  11
HETATM   11  C   UNL     1     -42.865 -47.608   9.748  1.00  0.00     0.129 C 
BRANCH  11  12
HETATM   12  C   UNL     1     -44.228 -46.917   9.602  1.00  0.00    -0.005 C 
HETATM   13  C   UNL     1     -44.079 -45.534   8.971  1.00  0.00     0.011 C 
HETATM   14  C   UNL     1     -45.160 -47.785   8.752  1.00  0.00     0.011 C 
ENDBRANCH  11  12
ENDBRANCH   7  11
ENDBRANCH   1   5
BRANCH   3  15
HETATM   15  C   UNL     1     -42.726 -52.756  12.512  1.00  0.00     0.128 C 
BRANCH  15  16
HETATM   16  C   UNL     1     -44.115 -53.378  12.425  1.00  0.00     0.076 C 
BRANCH  16  17
HETATM   17  C   UNL     1     -45.019 -52.774  13.472  1.00  0.00     0.010 A 
HETATM   18  C   UNL     1     -46.099 -51.976  13.104  1.00  0.00     0.025 A 
HETATM   19  C   UNL     1     -46.871 -51.387  14.104  1.00  0.00     0.003 A 
HETATM   20  C   UNL     1     -46.542 -51.601  15.438  1.00  0.00     0.017 A 
HETATM   21  C   UNL     1     -45.452 -52.408  15.716  1.00  0.00     0.088 A 
HETATM   22  N   UNL     1     -44.688 -52.995  14.767  1.00  0.00    -0.369 N 
ATOM     23  HN  UNL     1     -43.892 -53.581  15.017  1.00  0.00     0.165 HD
ENDBRANCH  16  17
ENDBRANCH  15  16
ENDBRANCH   3  15
TORSDOF 6
ENDMDL
MODEL 7
REMARK VINA RESULT:      -5.5      2.398      3.516
REMARK  6 active torsions:
REMARK  status: ('A' for Active; 'I' for Inactive)
REMARK    1  A    between atoms: C_2  and  C_4 
REMARK    2  A    between atoms: C_4  and  N_5 
REMARK    3  A    between atoms: C_7  and  C_11 
REMARK       I    between atoms: C_11  and  N_13 
REMARK    4  A    between atoms: N_13  and  C_14 
REMARK    5  A    between atoms: C_14  and  C_15 
REMARK    6  A    between atoms: C_15  and  C_16 
ROOT
HETATM    1  C   UNL     1     -42.554 -52.837  12.738  1.00  0.00     0.223 C 
HETATM    2  O   UNL     1     -41.912 -52.515  11.740  1.00  0.00    -0.273 OA
HETATM    3  N   UNL     1     -41.931 -53.234  13.905  1.00  0.00    -0.360 N 
HETATM    4  H   UNL     1     -42.473 -53.527  14.709  1.00  0.00     0.162 HD
ENDROOT
BRANCH   1   5
HETATM    5  C   UNL     1     -44.073 -52.881  12.753  1.00  0.00     0.104 A 
HETATM    6  C   UNL     1     -44.632 -52.062  13.914  1.00  0.00     0.140 A 
HETATM    7  N   UNL     1     -45.544 -52.931  14.616  1.00  0.00    -0.351 N 
HETATM    8  C   UNL     1     -45.567 -54.212  14.103  1.00  0.00     0.220 A 
HETATM    9  C   UNL     1     -44.624 -54.294  12.935  1.00  0.00     0.118 A 
HETATM   10  O   UNL     1     -46.214 -55.156  14.530  1.00  0.00    -0.273 OA
BRANCH   7  11
HETATM   11  C   UNL     1     -46.012 -52.625  15.962  1.00  0.00     0.129 C 
BRANCH  11  12
HETATM   12  C   UNL     1     -46.576 -51.208  16.133  1.00  0.00    -0.005 C 
HETATM   13  C   UNL     1     -47.954 -51.239  16.793  1.00  0.00     0.011 C 
HETATM   14  C   UNL     1     -45.611 -50.364  16.971  1.00  0.00     0.011 C 
ENDBRANCH  11  12
ENDBRANCH   7  11
ENDBRANCH   1   5
BRANCH   3  15
HETATM   15  C   UNL     1     -40.477 -53.262  13.952  1.00  0.00     0.128 C 
BRANCH  15  16
HETATM   16  C   UNL     1     -39.843 -51.996  14.517  1.00  0.00     0.076 C 
BRANCH  16  17
HETATM   17  C   UNL     1     -39.167 -51.220  13.414  1.00  0.00     0.010 A 
HETATM   18  C   UNL     1     -37.799 -51.354  13.186  1.00  0.00     0.025 A 
HETATM   19  C   UNL     1     -37.203 -50.572  12.198  1.00  0.00     0.003 A 
HETATM   20  C   UNL     1     -37.980 -49.675  11.473  1.00  0.00     0.017 A 
HETATM   21  C   UNL     1     -39.332 -49.606  11.763  1.00  0.00     0.088 A 
HETATM   22  N   UNL     1     -39.938 -50.353  12.713  1.00  0.00    -0.369 N 
ATOM     23  HN  UNL     1     -40.937 -50.269  12.896  1.00  0.00     0.165 HD
ENDBRANCH  16  17
ENDBRANCH  15  16
ENDBRANCH   3  15
TORSDOF 6
ENDMDL
MODEL 8
REMARK VINA RESULT:      -5.3      2.473      3.344
REMARK  6 active torsions:
REMARK  status: ('A' for Active; 'I' for Inactive)
REMARK    1  A    between atoms: C_2  and  C_4 
REMARK    2  A    between atoms: C_4  and  N_5 
REMARK    3  A    between atoms: C_7  and  C_11 
REMARK       I    between atoms: C_11  and  N_13 
REMARK    4  A    between atoms: N_13  and  C_14 
REMARK    5  A    between atoms: C_14  and  C_15 
REMARK    6  A    between atoms: C_15  and  C_16 
ROOT
HETATM    1  C   UNL     1     -42.036 -50.463  12.400  1.00  0.00     0.223 C 
HETATM    2  O   UNL     1     -42.380 -50.081  13.517  1.00  0.00    -0.273 OA
HETATM    3  N   UNL     1     -41.865 -49.582  11.351  1.00  0.00    -0.360 N 
HETATM    4  H   UNL     1     -41.612 -49.916  10.429  1.00  0.00     0.162 HD
ENDROOT
BRANCH   1   5
HETATM    5  C   UNL     1     -41.829 -51.932  12.069  1.00  0.00     0.104 A 
HETATM    6  C   UNL     1     -42.977 -52.782  12.610  1.00  0.00     0.140 A 
HETATM    7  N   UNL     1     -42.366 -53.843  13.372  1.00  0.00    -0.351 N 
HETATM    8  C   UNL     1     -40.994 -53.724  13.454  1.00  0.00     0.220 A 
HETATM    9  C   UNL     1     -40.557 -52.506  12.690  1.00  0.00     0.118 A 
HETATM   10  O   UNL     1     -40.235 -54.458  14.070  1.00  0.00    -0.273 OA
BRANCH   7  11
HETATM   11  C   UNL     1     -43.133 -54.652  14.312  1.00  0.00     0.129 C 
BRANCH  11  12
HETATM   12  C   UNL     1     -44.609 -54.250  14.440  1.00  0.00    -0.005 C 
HETATM   13  C   UNL     1     -45.524 -55.313  13.834  1.00  0.00     0.011 C 
HETATM   14  C   UNL     1     -44.960 -54.033  15.915  1.00  0.00     0.011 C 
ENDBRANCH  11  12
ENDBRANCH   7  11
ENDBRANCH   1   5
BRANCH   3  15
HETATM   15  C   UNL     1     -42.091 -48.163  11.580  1.00  0.00     0.128 C 
BRANCH  15  16
HETATM   16  C   UNL     1     -42.206 -47.333  10.307  1.00  0.00     0.076 C 
BRANCH  16  17
HETATM   17  C   UNL     1     -41.777 -45.912  10.576  1.00  0.00     0.010 A 
HETATM   18  C   UNL     1     -40.432 -45.554  10.530  1.00  0.00     0.025 A 
HETATM   19  C   UNL     1     -40.073 -44.244  10.845  1.00  0.00     0.003 A 
HETATM   20  C   UNL     1     -41.059 -43.333  11.206  1.00  0.00     0.017 A 
HETATM   21  C   UNL     1     -42.372 -43.771  11.226  1.00  0.00     0.088 A 
HETATM   22  N   UNL     1     -42.750 -45.034  10.922  1.00  0.00    -0.369 N 
ATOM     23  HN  UNL     1     -43.729 -45.315  10.952  1.00  0.00     0.165 HD
ENDBRANCH  16  17
ENDBRANCH  15  16
ENDBRANCH   3  15
TORSDOF 6
ENDMDL
MODEL 9
REMARK VINA RESULT:      -5.3      2.162      6.023
REMARK  6 active torsions:
REMARK  status: ('A' for Active; 'I' for Inactive)
REMARK    1  A    between atoms: C_2  and  C_4 
REMARK    2  A    between atoms: C_4  and  N_5 
REMARK    3  A    between atoms: C_7  and  C_11 
REMARK       I    between atoms: C_11  and  N_13 
REMARK    4  A    between atoms: N_13  and  C_14 
REMARK    5  A    between atoms: C_14  and  C_15 
REMARK    6  A    between atoms: C_15  and  C_16 
ROOT
HETATM    1  C   UNL     1     -41.039 -52.527  14.933  1.00  0.00     0.223 C 
HETATM    2  O   UNL     1     -41.870 -52.473  15.838  1.00  0.00    -0.273 OA
HETATM    3  N   UNL     1     -41.279 -53.226  13.766  1.00  0.00    -0.360 N 
HETATM    4  H   UNL     1     -40.573 -53.289  13.044  1.00  0.00     0.162 HD
ENDROOT
BRANCH   1   5
HETATM    5  C   UNL     1     -39.666 -51.885  15.046  1.00  0.00     0.104 A 
HETATM    6  C   UNL     1     -39.712 -50.420  14.615  1.00  0.00     0.140 A 
HETATM    7  N   UNL     1     -38.664 -50.255  13.639  1.00  0.00    -0.351 N 
HETATM    8  C   UNL     1     -38.024 -51.439  13.334  1.00  0.00     0.220 A 
HETATM    9  C   UNL     1     -38.624 -52.550  14.149  1.00  0.00     0.118 A 
HETATM   10  O   UNL     1     -37.132 -51.594  12.513  1.00  0.00    -0.273 OA
BRANCH   7  11
HETATM   11  C   UNL     1     -38.612 -49.095  12.758  1.00  0.00     0.129 C 
BRANCH  11  12
HETATM   12  C   UNL     1     -39.969 -48.679  12.173  1.00  0.00    -0.005 C 
HETATM   13  C   UNL     1     -39.897 -47.282  11.557  1.00  0.00     0.011 C 
HETATM   14  C   UNL     1     -40.413 -49.697  11.118  1.00  0.00     0.011 C 
ENDBRANCH  11  12
ENDBRANCH   7  11
ENDBRANCH   1   5
BRANCH   3  15
HETATM   15  C   UNL     1     -42.555 -53.907  13.605  1.00  0.00     0.128 C 
BRANCH  15  16
HETATM   16  C   UNL     1     -43.527 -53.204  12.664  1.00  0.00     0.076 C 
BRANCH  16  17
HETATM   17  C   UNL     1     -44.691 -52.647  13.445  1.00  0.00     0.010 A 
HETATM   18  C   UNL     1     -45.753 -52.025  12.792  1.00  0.00     0.025 A 
HETATM   19  C   UNL     1     -46.779 -51.470  13.556  1.00  0.00     0.003 A 
HETATM   20  C   UNL     1     -46.714 -51.539  14.943  1.00  0.00     0.017 A 
HETATM   21  C   UNL     1     -45.624 -52.175  15.510  1.00  0.00     0.088 A 
HETATM   22  N   UNL     1     -44.617 -52.726  14.796  1.00  0.00    -0.369 N 
ATOM     23  HN  UNL     1     -43.830 -53.184  15.256  1.00  0.00     0.165 HD
ENDBRANCH  16  17
ENDBRANCH  15  16
ENDBRANCH   3  15
TORSDOF 6
ENDMDL
