MODEL 1
REMARK VINA RESULT:      -6.0      0.000      0.000
REMARK  7 active torsions:
REMARK  status: ('A' for Active; 'I' for Inactive)
REMARK    1  A    between atoms: C_2  and  C_3 
REMARK       I    between atoms: C_2  and  N_12 
REMARK    2  A    between atoms: C_3  and  N_4 
REMARK    3  A    between atoms: N_12  and  C_13 
REMARK    4  A    between atoms: C_13  and  C_14 
REMARK    5  A    between atoms: C_14  and  C_15 
REMARK    6  A    between atoms: C_15  and  O_16 
REMARK    7  A    between atoms: O_16  and  C_17 
ROOT
HETATM    1  O   UNL     1     -39.670 -50.295  12.028  1.00  0.00    -0.272 OA
HETATM    2  C   UNL     1     -40.831 -50.069  12.357  1.00  0.00     0.235 C 
HETATM    3  N   UNL     1     -41.822 -51.031  12.359  1.00  0.00    -0.360 N 
HETATM    4  H   UNL     1     -42.675 -50.829  12.867  1.00  0.00     0.162 HD
ENDROOT
BRANCH   2   5
HETATM    5  C   UNL     1     -41.318 -48.675  12.763  1.00  0.00     0.235 C 
BRANCH   5   6
HETATM    6  N   UNL     1     -41.855 -47.922  11.634  1.00  0.00    -0.301 N 
HETATM    7  C   UNL     1     -43.185 -48.053  11.289  1.00  0.00     0.102 A 
HETATM    8  C   UNL     1     -43.724 -47.347  10.292  1.00  0.00     0.092 A 
HETATM    9  C   UNL     1     -42.874 -46.409   9.539  1.00  0.00     0.250 A 
HETATM   10  O   UNL     1     -43.332 -45.718   8.639  1.00  0.00    -0.268 OA
HETATM   11  N   UNL     1     -41.563 -46.366   9.921  1.00  0.00    -0.275 N 
HETATM   12  C   UNL     1     -40.994 -47.086  10.938  1.00  0.00     0.329 A 
HETATM   13  H   UNL     1     -40.961 -45.734   9.415  1.00  0.00     0.173 HD
HETATM   14  O   UNL     1     -39.798 -46.969  11.206  1.00  0.00    -0.246 OA
ENDBRANCH   5   6
ENDBRANCH   2   5
BRANCH   3  15
HETATM   15  C   UNL     1     -41.561 -52.416  12.006  1.00  0.00     0.125 C 
BRANCH  15  16
HETATM   16  C   UNL     1     -41.605 -53.358  13.206  1.00  0.00     0.046 C 
BRANCH  16  17
HETATM   17  C   UNL     1     -42.979 -54.000  13.348  1.00  0.00     0.169 C 
BRANCH  17  18
HETATM   18  O   UNL     1     -43.992 -53.009  13.218  1.00  0.00    -0.386 OA
BRANCH  18  19
HETATM   19  C   UNL     1     -45.306 -53.566  13.059  1.00  0.00     0.121 C 
HETATM   20  C   UNL     1     -46.231 -52.441  12.573  1.00  0.00     0.032 C 
HETATM   21  C   UNL     1     -46.418 -51.355  13.634  1.00  0.00     0.002 C 
HETATM   22  C   UNL     1     -46.875 -51.934  14.972  1.00  0.00     0.000 C 
HETATM   23  C   UNL     1     -45.963 -53.061  15.445  1.00  0.00     0.002 C 
HETATM   24  C   UNL     1     -45.848 -54.145  14.374  1.00  0.00     0.032 C 
ENDBRANCH  18  19
ENDBRANCH  17  18
ENDBRANCH  16  17
ENDBRANCH  15  16
ENDBRANCH   3  15
TORSDOF 7
ENDMDL
MODEL 2
REMARK VINA RESULT:      -5.8      1.428      1.845
REMARK  7 active torsions:
REMARK  status: ('A' for Active; 'I' for Inactive)
REMARK    1  A    between atoms: C_2  and  C_3 
REMARK       I    between atoms: C_2  and  N_12 
REMARK    2  A    between atoms: C_3  and  N_4 
REMARK    3  A    between atoms: N_12  and  C_13 
REMARK    4  A    between atoms: C_13  and  C_14 
REMARK    5  A    between atoms: C_14  and  C_15 
REMARK    6  A    between atoms: C_15  and  O_16 
REMARK    7  A    between atoms: O_16  and  C_17 
ROOT
HETATM    1  O   UNL     1     -41.234 -49.455  13.702  1.00  0.00    -0.272 OA
HETATM    2  C   UNL     1     -41.993 -49.448  12.736  1.00  0.00     0.235 C 
HETATM    3  N   UNL     1     -42.083 -50.488  11.834  1.00  0.00    -0.360 N 
HETATM    4  H   UNL     1     -42.890 -50.512  11.221  1.00  0.00     0.162 HD
ENDROOT
BRANCH   2   5
HETATM    5  C   UNL     1     -42.896 -48.255  12.404  1.00  0.00     0.235 C 
BRANCH   5   6
HETATM    6  N   UNL     1     -42.160 -47.153  11.794  1.00  0.00    -0.301 N 
HETATM    7  C   UNL     1     -41.659 -46.138  12.583  1.00  0.00     0.102 A 
HETATM    8  C   UNL     1     -40.942 -45.136  12.067  1.00  0.00     0.092 A 
HETATM    9  C   UNL     1     -40.685 -45.114  10.617  1.00  0.00     0.250 A 
HETATM   10  O   UNL     1     -40.006 -44.233  10.105  1.00  0.00    -0.268 OA
HETATM   11  N   UNL     1     -41.247 -46.135   9.904  1.00  0.00    -0.275 N 
HETATM   12  C   UNL     1     -41.988 -47.167  10.417  1.00  0.00     0.329 A 
HETATM   13  H   UNL     1     -41.089 -46.136   8.907  1.00  0.00     0.173 HD
HETATM   14  O   UNL     1     -42.446 -48.043   9.685  1.00  0.00    -0.246 OA
ENDBRANCH   5   6
ENDBRANCH   2   5
BRANCH   3  15
HETATM   15  C   UNL     1     -41.310 -51.710  11.974  1.00  0.00     0.125 C 
BRANCH  15  16
HETATM   16  C   UNL     1     -41.954 -52.721  12.918  1.00  0.00     0.046 C 
BRANCH  16  17
HETATM   17  C   UNL     1     -43.399 -52.996  12.523  1.00  0.00     0.169 C 
BRANCH  17  18
HETATM   18  O   UNL     1     -44.172 -53.279  13.685  1.00  0.00    -0.386 OA
BRANCH  18  19
HETATM   19  C   UNL     1     -45.524 -53.657  13.381  1.00  0.00     0.121 C 
HETATM   20  C   UNL     1     -46.270 -52.392  12.937  1.00  0.00     0.032 C 
HETATM   21  C   UNL     1     -46.418 -51.383  14.077  1.00  0.00     0.002 C 
HETATM   22  C   UNL     1     -47.047 -52.011  15.319  1.00  0.00     0.000 C 
HETATM   23  C   UNL     1     -46.312 -53.276  15.750  1.00  0.00     0.002 C 
HETATM   24  C   UNL     1     -46.235 -54.273  14.595  1.00  0.00     0.032 C 
ENDBRANCH  18  19
ENDBRANCH  17  18
ENDBRANCH  16  17
ENDBRANCH  15  16
ENDBRANCH   3  15
TORSDOF 7
ENDMDL
MODEL 3
REMARK VINA RESULT:      -5.7      2.991      5.029
REMARK  7 active torsions:
REMARK  status: ('A' for Active; 'I' for Inactive)
REMARK    1  A    between atoms: C_2  and  C_3 
REMARK       I    between atoms: C_2  and  N_12 
REMARK    2  A    between atoms: C_3  and  N_4 
REMARK    3  A    between atoms: N_12  and  C_13 
REMARK    4  A    between atoms: C_13  and  C_14 
REMARK    5  A    between atoms: C_14  and  C_15 
REMARK    6  A    between atoms: C_15  and  O_16 
REMARK    7  A    between atoms: O_16  and  C_17 
ROOT
HETATM    1  O   UNL     1     -40.619 -49.869  10.946  1.00  0.00    -0.272 OA
HETATM    2  C   UNL     1     -41.627 -49.901  11.646  1.00  0.00     0.235 C 
HETATM    3  N   UNL     1     -42.187 -51.071  12.119  1.00  0.00    -0.360 N 
HETATM    4  H   UNL     1     -42.857 -51.001  12.876  1.00  0.00     0.162 HD
ENDROOT
BRANCH   2   5
HETATM    5  C   UNL     1     -42.400 -48.638  12.038  1.00  0.00     0.235 C 
BRANCH   5   6
HETATM    6  N   UNL     1     -41.776 -47.422  11.528  1.00  0.00    -0.301 N 
HETATM    7  C   UNL     1     -40.883 -46.723  12.315  1.00  0.00     0.102 A 
HETATM    8  C   UNL     1     -40.258 -45.632  11.866  1.00  0.00     0.092 A 
HETATM    9  C   UNL     1     -40.533 -45.161  10.498  1.00  0.00     0.250 A 
HETATM   10  O   UNL     1     -39.959 -44.185  10.034  1.00  0.00    -0.268 OA
HETATM   11  N   UNL     1     -41.455 -45.888   9.800  1.00  0.00    -0.275 N 
HETATM   12  C   UNL     1     -42.109 -47.007  10.246  1.00  0.00     0.329 A 
HETATM   13  H   UNL     1     -41.664 -45.579   8.862  1.00  0.00     0.173 HD
HETATM   14  O   UNL     1     -42.921 -47.593   9.532  1.00  0.00    -0.246 OA
ENDBRANCH   5   6
ENDBRANCH   2   5
BRANCH   3  15
HETATM   15  C   UNL     1     -41.601 -52.374  11.858  1.00  0.00     0.125 C 
BRANCH  15  16
HETATM   16  C   UNL     1     -41.468 -53.234  13.112  1.00  0.00     0.046 C 
BRANCH  16  17
HETATM   17  C   UNL     1     -40.189 -52.901  13.871  1.00  0.00     0.169 C 
BRANCH  17  18
HETATM   18  O   UNL     1     -39.343 -52.093  13.060  1.00  0.00    -0.386 OA
BRANCH  18  19
HETATM   19  C   UNL     1     -38.119 -51.727  13.717  1.00  0.00     0.121 C 
HETATM   20  C   UNL     1     -38.463 -50.686  14.790  1.00  0.00     0.032 C 
HETATM   21  C   UNL     1     -38.958 -49.374  14.179  1.00  0.00     0.002 C 
HETATM   22  C   UNL     1     -37.984 -48.824  13.139  1.00  0.00     0.000 C 
HETATM   23  C   UNL     1     -37.633 -49.865  12.082  1.00  0.00     0.002 C 
HETATM   24  C   UNL     1     -37.096 -51.136  12.737  1.00  0.00     0.032 C 
ENDBRANCH  18  19
ENDBRANCH  17  18
ENDBRANCH  16  17
ENDBRANCH  15  16
ENDBRANCH   3  15
TORSDOF 7
ENDMDL
MODEL 4
REMARK VINA RESULT:      -5.6      1.469      1.883
REMARK  7 active torsions:
REMARK  status: ('A' for Active; 'I' for Inactive)
REMARK    1  A    between atoms: C_2  and  C_3 
REMARK       I    between atoms: C_2  and  N_12 
REMARK    2  A    between atoms: C_3  and  N_4 
REMARK    3  A    between atoms: N_12  and  C_13 
REMARK    4  A    between atoms: C_13  and  C_14 
REMARK    5  A    between atoms: C_14  and  C_15 
REMARK    6  A    between atoms: C_15  and  O_16 
REMARK    7  A    between atoms: O_16  and  C_17 
ROOT
HETATM    1  O   UNL     1     -39.801 -52.395  12.545  1.00  0.00    -0.272 OA
HETATM    2  C   UNL     1     -40.297 -51.860  13.533  1.00  0.00     0.235 C 
HETATM    3  N   UNL     1     -40.970 -52.557  14.517  1.00  0.00    -0.360 N 
HETATM    4  H   UNL     1     -41.131 -52.088  15.401  1.00  0.00     0.162 HD
ENDROOT
BRANCH   2   5
HETATM    5  C   UNL     1     -40.257 -50.346  13.760  1.00  0.00     0.235 C 
BRANCH   5   6
HETATM    6  N   UNL     1     -40.883 -49.603  12.670  1.00  0.00    -0.301 N 
HETATM    7  C   UNL     1     -42.252 -49.429  12.653  1.00  0.00     0.102 A 
HETATM    8  C   UNL     1     -42.856 -48.717  11.698  1.00  0.00     0.092 A 
HETATM    9  C   UNL     1     -42.039 -48.108  10.635  1.00  0.00     0.250 A 
HETATM   10  O   UNL     1     -42.547 -47.421   9.758  1.00  0.00    -0.268 OA
HETATM   11  N   UNL     1     -40.699 -48.359  10.706  1.00  0.00    -0.275 N 
HETATM   12  C   UNL     1     -40.063 -49.090  11.675  1.00  0.00     0.329 A 
HETATM   13  H   UNL     1     -40.120 -47.956   9.983  1.00  0.00     0.173 HD
HETATM   14  O   UNL     1     -38.844 -49.253  11.650  1.00  0.00    -0.246 OA
ENDBRANCH   5   6
ENDBRANCH   2   5
BRANCH   3  15
HETATM   15  C   UNL     1     -41.116 -54.001  14.486  1.00  0.00     0.125 C 
BRANCH  15  16
HETATM   16  C   UNL     1     -42.572 -54.457  14.473  1.00  0.00     0.046 C 
BRANCH  16  17
HETATM   17  C   UNL     1     -43.273 -54.016  13.194  1.00  0.00     0.169 C 
BRANCH  17  18
HETATM   18  O   UNL     1     -44.176 -52.953  13.480  1.00  0.00    -0.386 OA
BRANCH  18  19
HETATM   19  C   UNL     1     -45.534 -53.259  13.126  1.00  0.00     0.121 C 
HETATM   20  C   UNL     1     -46.308 -51.935  13.074  1.00  0.00     0.032 C 
HETATM   21  C   UNL     1     -46.426 -51.285  14.454  1.00  0.00     0.002 C 
HETATM   22  C   UNL     1     -47.003 -52.246  15.492  1.00  0.00     0.000 C 
HETATM   23  C   UNL     1     -46.240 -53.565  15.531  1.00  0.00     0.002 C 
HETATM   24  C   UNL     1     -46.194 -54.201  14.143  1.00  0.00     0.032 C 
ENDBRANCH  18  19
ENDBRANCH  17  18
ENDBRANCH  16  17
ENDBRANCH  15  16
ENDBRANCH   3  15
TORSDOF 7
ENDMDL
MODEL 5
REMARK VINA RESULT:      -5.6      2.382      7.230
REMARK  7 active torsions:
REMARK  status: ('A' for Active; 'I' for Inactive)
REMARK    1  A    between atoms: C_2  and  C_3 
REMARK       I    between atoms: C_2  and  N_12 
REMARK    2  A    between atoms: C_3  and  N_4 
REMARK    3  A    between atoms: N_12  and  C_13 
REMARK    4  A    between atoms: C_13  and  C_14 
REMARK    5  A    between atoms: C_14  and  C_15 
REMARK    6  A    between atoms: C_15  and  O_16 
REMARK    7  A    between atoms: O_16  and  C_17 
ROOT
HETATM    1  O   UNL     1     -42.325 -53.716  13.736  1.00  0.00    -0.272 OA
HETATM    2  C   UNL     1     -42.980 -53.323  12.775  1.00  0.00     0.235 C 
HETATM    3  N   UNL     1     -42.484 -52.461  11.817  1.00  0.00    -0.360 N 
HETATM    4  H   UNL     1     -42.993 -52.382  10.945  1.00  0.00     0.162 HD
ENDROOT
BRANCH   2   5
HETATM    5  C   UNL     1     -44.445 -53.718  12.557  1.00  0.00     0.235 C 
BRANCH   5   6
HETATM    6  N   UNL     1     -45.326 -53.177  13.587  1.00  0.00    -0.301 N 
HETATM    7  C   UNL     1     -45.810 -51.890  13.473  1.00  0.00     0.102 A 
HETATM    8  C   UNL     1     -46.654 -51.376  14.371  1.00  0.00     0.092 A 
HETATM    9  C   UNL     1     -47.074 -52.205  15.514  1.00  0.00     0.250 A 
HETATM   10  O   UNL     1     -47.871 -51.786  16.344  1.00  0.00    -0.268 OA
HETATM   11  N   UNL     1     -46.522 -53.452  15.571  1.00  0.00    -0.275 N 
HETATM   12  C   UNL     1     -45.651 -53.993  14.661  1.00  0.00     0.329 A 
HETATM   13  H   UNL     1     -46.791 -54.035  16.350  1.00  0.00     0.173 HD
HETATM   14  O   UNL     1     -45.214 -55.134  14.804  1.00  0.00    -0.246 OA
ENDBRANCH   5   6
ENDBRANCH   2   5
BRANCH   3  15
HETATM   15  C   UNL     1     -41.117 -51.973  11.845  1.00  0.00     0.125 C 
BRANCH  15  16
HETATM   16  C   UNL     1     -40.985 -50.594  12.486  1.00  0.00     0.046 C 
BRANCH  16  17
HETATM   17  C   UNL     1     -42.325 -49.869  12.505  1.00  0.00     0.169 C 
BRANCH  17  18
HETATM   18  O   UNL     1     -42.130 -48.487  12.228  1.00  0.00    -0.386 OA
BRANCH  18  19
HETATM   19  C   UNL     1     -41.458 -48.253  10.981  1.00  0.00     0.121 C 
HETATM   20  C   UNL     1     -40.438 -47.129  11.207  1.00  0.00     0.032 C 
HETATM   21  C   UNL     1     -41.117 -45.793  11.513  1.00  0.00     0.002 C 
HETATM   22  C   UNL     1     -42.154 -45.421  10.455  1.00  0.00     0.000 C 
HETATM   23  C   UNL     1     -43.157 -46.546  10.221  1.00  0.00     0.002 C 
HETATM   24  C   UNL     1     -42.435 -47.845   9.869  1.00  0.00     0.032 C 
ENDBRANCH  18  19
ENDBRANCH  17  18
ENDBRANCH  16  17
ENDBRANCH  15  16
ENDBRANCH   3  15
TORSDOF 7
ENDMDL
MODEL 6
REMARK VINA RESULT:      -5.6      2.058      2.893
REMARK  7 active torsions:
REMARK  status: ('A' for Active; 'I' for Inactive)
REMARK    1  A    between atoms: C_2  and  C_3 
REMARK       I    between atoms: C_2  and  N_12 
REMARK    2  A    between atoms: C_3  and  N_4 
REMARK    3  A    between atoms: N_12  and  C_13 
REMARK    4  A    between atoms: C_13  and  C_14 
REMARK    5  A    between atoms: C_14  and  C_15 
REMARK    6  A    between atoms: C_15  and  O_16 
REMARK    7  A    between atoms: O_16  and  C_17 
ROOT
HETATM    1  O   UNL     1     -43.400 -45.738  13.727  1.00  0.00    -0.272 OA
HETATM    2  C   UNL     1     -42.572 -46.542  13.307  1.00  0.00     0.235 C 
HETATM    3  N   UNL     1     -42.346 -47.773  13.890  1.00  0.00    -0.360 N 
HETATM    4  H   UNL     1     -41.835 -48.463  13.351  1.00  0.00     0.162 HD
ENDROOT
BRANCH   2   5
HETATM    5  C   UNL     1     -41.667 -46.245  12.108  1.00  0.00     0.235 C 
BRANCH   5   6
HETATM    6  N   UNL     1     -42.234 -46.723  10.850  1.00  0.00    -0.301 N 
HETATM    7  C   UNL     1     -43.067 -45.905  10.115  1.00  0.00     0.102 A 
HETATM    8  C   UNL     1     -43.569 -46.289   8.939  1.00  0.00     0.092 A 
HETATM    9  C   UNL     1     -43.225 -47.623   8.417  1.00  0.00     0.250 A 
HETATM   10  O   UNL     1     -43.636 -48.005   7.328  1.00  0.00    -0.268 OA
HETATM   11  N   UNL     1     -42.425 -48.382   9.222  1.00  0.00    -0.275 N 
HETATM   12  C   UNL     1     -41.906 -48.005  10.433  1.00  0.00     0.329 A 
HETATM   13  H   UNL     1     -42.182 -49.303   8.887  1.00  0.00     0.173 HD
HETATM   14  O   UNL     1     -41.188 -48.767  11.080  1.00  0.00    -0.246 OA
ENDBRANCH   5   6
ENDBRANCH   2   5
BRANCH   3  15
HETATM   15  C   UNL     1     -43.103 -48.242  15.037  1.00  0.00     0.125 C 
BRANCH  15  16
HETATM   16  C   UNL     1     -43.264 -49.759  15.069  1.00  0.00     0.046 C 
BRANCH  16  17
HETATM   17  C   UNL     1     -43.708 -50.292  13.713  1.00  0.00     0.169 C 
BRANCH  17  18
HETATM   18  O   UNL     1     -43.925 -51.697  13.793  1.00  0.00    -0.386 OA
BRANCH  18  19
HETATM   19  C   UNL     1     -44.965 -52.155  12.916  1.00  0.00     0.121 C 
HETATM   20  C   UNL     1     -46.265 -51.453  13.331  1.00  0.00     0.032 C 
HETATM   21  C   UNL     1     -46.736 -51.892  14.719  1.00  0.00     0.002 C 
HETATM   22  C   UNL     1     -46.845 -53.411  14.832  1.00  0.00     0.000 C 
HETATM   23  C   UNL     1     -45.557 -54.107  14.405  1.00  0.00     0.002 C 
HETATM   24  C   UNL     1     -45.155 -53.677  12.995  1.00  0.00     0.032 C 
ENDBRANCH  18  19
ENDBRANCH  17  18
ENDBRANCH  16  17
ENDBRANCH  15  16
ENDBRANCH   3  15
TORSDOF 7
ENDMDL
MODEL 7
REMARK VINA RESULT:      -5.6      3.858      7.211
REMARK  7 active torsions:
REMARK  status: ('A' for Active; 'I' for Inactive)
REMARK    1  A    between atoms: C_2  and  C_3 
REMARK       I    between atoms: C_2  and  N_12 
REMARK    2  A    between atoms: C_3  and  N_4 
REMARK    3  A    between atoms: N_12  and  C_13 
REMARK    4  A    between atoms: C_13  and  C_14 
REMARK    5  A    between atoms: C_14  and  C_15 
REMARK    6  A    between atoms: C_15  and  O_16 
REMARK    7  A    between atoms: O_16  and  C_17 
ROOT
HETATM    1  O   UNL     1     -42.702 -51.943  12.457  1.00  0.00    -0.272 OA
HETATM    2  C   UNL     1     -43.174 -53.071  12.569  1.00  0.00     0.235 C 
HETATM    3  N   UNL     1     -42.409 -54.192  12.825  1.00  0.00    -0.360 N 
HETATM    4  H   UNL     1     -42.889 -55.027  13.141  1.00  0.00     0.162 HD
ENDROOT
BRANCH   2   5
HETATM    5  C   UNL     1     -44.667 -53.363  12.392  1.00  0.00     0.235 C 
BRANCH   5   6
HETATM    6  N   UNL     1     -45.455 -52.957  13.552  1.00  0.00    -0.301 N 
HETATM    7  C   UNL     1     -46.062 -51.718  13.572  1.00  0.00     0.102 A 
HETATM    8  C   UNL     1     -46.827 -51.329  14.595  1.00  0.00     0.092 A 
HETATM    9  C   UNL     1     -47.024 -52.246  15.731  1.00  0.00     0.250 A 
HETATM   10  O   UNL     1     -47.742 -51.945  16.675  1.00  0.00    -0.268 OA
HETATM   11  N   UNL     1     -46.359 -53.437  15.647  1.00  0.00    -0.275 N 
HETATM   12  C   UNL     1     -45.567 -53.849  14.608  1.00  0.00     0.329 A 
HETATM   13  H   UNL     1     -46.474 -54.078  16.418  1.00  0.00     0.173 HD
HETATM   14  O   UNL     1     -45.015 -54.949  14.630  1.00  0.00    -0.246 OA
ENDBRANCH   5   6
ENDBRANCH   2   5
BRANCH   3  15
HETATM   15  C   UNL     1     -40.973 -54.124  13.027  1.00  0.00     0.125 C 
BRANCH  15  16
HETATM   16  C   UNL     1     -40.575 -54.098  14.500  1.00  0.00     0.046 C 
BRANCH  16  17
HETATM   17  C   UNL     1     -40.160 -52.697  14.931  1.00  0.00     0.169 C 
BRANCH  17  18
HETATM   18  O   UNL     1     -39.085 -52.240  14.117  1.00  0.00    -0.386 OA
BRANCH  18  19
HETATM   19  C   UNL     1     -38.781 -50.850  14.318  1.00  0.00     0.121 C 
HETATM   20  C   UNL     1     -39.826 -50.031  13.550  1.00  0.00     0.032 C 
HETATM   21  C   UNL     1     -39.703 -50.219  12.037  1.00  0.00     0.002 C 
HETATM   22  C   UNL     1     -38.284 -49.947  11.540  1.00  0.00     0.000 C 
HETATM   23  C   UNL     1     -37.246 -50.751  12.315  1.00  0.00     0.002 C 
HETATM   24  C   UNL     1     -37.375 -50.492  13.815  1.00  0.00     0.032 C 
ENDBRANCH  18  19
ENDBRANCH  17  18
ENDBRANCH  16  17
ENDBRANCH  15  16
ENDBRANCH   3  15
TORSDOF 7
ENDMDL
MODEL 8
REMARK VINA RESULT:      -5.6      2.884      6.402
REMARK  7 active torsions:
REMARK  status: ('A' for Active; 'I' for Inactive)
REMARK    1  A    between atoms: C_2  and  C_3 
REMARK       I    between atoms: C_2  and  N_12 
REMARK    2  A    between atoms: C_3  and  N_4 
REMARK    3  A    between atoms: N_12  and  C_13 
REMARK    4  A    between atoms: C_13  and  C_14 
REMARK    5  A    between atoms: C_14  and  C_15 
REMARK    6  A    between atoms: C_15  and  O_16 
REMARK    7  A    between atoms: O_16  and  C_17 
ROOT
HETATM    1  O   UNL     1     -40.036 -51.936  15.520  1.00  0.00    -0.272 OA
HETATM    2  C   UNL     1     -39.619 -52.256  14.411  1.00  0.00     0.235 C 
HETATM    3  N   UNL     1     -38.784 -51.459  13.653  1.00  0.00    -0.360 N 
HETATM    4  H   UNL     1     -38.298 -51.890  12.876  1.00  0.00     0.162 HD
ENDROOT
BRANCH   2   5
HETATM    5  C   UNL     1     -40.018 -53.567  13.725  1.00  0.00     0.235 C 
BRANCH   5   6
HETATM    6  N   UNL     1     -41.433 -53.600  13.368  1.00  0.00    -0.301 N 
HETATM    7  C   UNL     1     -42.328 -54.289  14.161  1.00  0.00     0.102 A 
HETATM    8  C   UNL     1     -43.636 -54.305  13.892  1.00  0.00     0.092 A 
HETATM    9  C   UNL     1     -44.133 -53.571  12.716  1.00  0.00     0.250 A 
HETATM   10  O   UNL     1     -45.327 -53.531  12.450  1.00  0.00    -0.268 OA
HETATM   11  N   UNL     1     -43.178 -52.946  11.965  1.00  0.00    -0.275 N 
HETATM   12  C   UNL     1     -41.833 -52.924  12.224  1.00  0.00     0.329 A 
HETATM   13  H   UNL     1     -43.496 -52.442  11.150  1.00  0.00     0.173 HD
HETATM   14  O   UNL     1     -41.055 -52.325  11.483  1.00  0.00    -0.246 OA
ENDBRANCH   5   6
ENDBRANCH   2   5
BRANCH   3  15
HETATM   15  C   UNL     1     -38.291 -50.178  14.128  1.00  0.00     0.125 C 
BRANCH  15  16
HETATM   16  C   UNL     1     -38.076 -49.166  13.006  1.00  0.00     0.046 C 
BRANCH  16  17
HETATM   17  C   UNL     1     -38.813 -49.586  11.741  1.00  0.00     0.169 C 
BRANCH  17  18
HETATM   18  O   UNL     1     -40.208 -49.344  11.892  1.00  0.00    -0.386 OA
BRANCH  18  19
HETATM   19  C   UNL     1     -40.515 -47.966  12.153  1.00  0.00     0.121 C 
HETATM   20  C   UNL     1     -41.681 -47.931  13.150  1.00  0.00     0.032 C 
HETATM   21  C   UNL     1     -42.971 -48.485  12.542  1.00  0.00     0.002 C 
HETATM   22  C   UNL     1     -43.323 -47.798  11.224  1.00  0.00     0.000 C 
HETATM   23  C   UNL     1     -42.157 -47.821  10.241  1.00  0.00     0.002 C 
HETATM   24  C   UNL     1     -40.908 -47.212  10.875  1.00  0.00     0.032 C 
ENDBRANCH  18  19
ENDBRANCH  17  18
ENDBRANCH  16  17
ENDBRANCH  15  16
ENDBRANCH   3  15
TORSDOF 7
ENDMDL
MODEL 9
REMARK VINA RESULT:      -5.6      1.474      1.662
REMARK  7 active torsions:
REMARK  status: ('A' for Active; 'I' for Inactive)
REMARK    1  A    between atoms: C_2  and  C_3 
REMARK       I    between atoms: C_2  and  N_12 
REMARK    2  A    between atoms: C_3  and  N_4 
REMARK    3  A    between atoms: N_12  and  C_13 
REMARK    4  A    between atoms: C_13  and  C_14 
REMARK    5  A    between atoms: C_14  and  C_15 
REMARK    6  A    between atoms: C_15  and  O_16 
REMARK    7  A    between atoms: O_16  and  C_17 
ROOT
HETATM    1  O   UNL     1     -42.480 -49.309  15.296  1.00  0.00    -0.272 OA
HETATM    2  C   UNL     1     -41.746 -49.654  14.373  1.00  0.00     0.235 C 
HETATM    3  N   UNL     1     -41.530 -50.973  14.026  1.00  0.00    -0.360 N 
HETATM    4  H   UNL     1     -41.117 -51.160  13.119  1.00  0.00     0.162 HD
ENDROOT
BRANCH   2   5
HETATM    5  C   UNL     1     -40.953 -48.650  13.530  1.00  0.00     0.235 C 
BRANCH   5   6
HETATM    6  N   UNL     1     -41.595 -48.368  12.250  1.00  0.00    -0.301 N 
HETATM    7  C   UNL     1     -42.738 -47.594  12.208  1.00  0.00     0.102 A 
HETATM    8  C   UNL     1     -43.328 -47.277  11.053  1.00  0.00     0.092 A 
HETATM    9  C   UNL     1     -42.745 -47.770   9.794  1.00  0.00     0.250 A 
HETATM   10  O   UNL     1     -43.234 -47.478   8.710  1.00  0.00    -0.268 OA
HETATM   11  N   UNL     1     -41.638 -48.558   9.926  1.00  0.00    -0.275 N 
HETATM   12  C   UNL     1     -41.022 -48.897  11.102  1.00  0.00     0.329 A 
HETATM   13  H   UNL     1     -41.226 -48.912   9.075  1.00  0.00     0.173 HD
HETATM   14  O   UNL     1     -40.021 -49.612  11.111  1.00  0.00    -0.246 OA
ENDBRANCH   5   6
ENDBRANCH   2   5
BRANCH   3  15
HETATM   15  C   UNL     1     -42.192 -52.073  14.703  1.00  0.00     0.125 C 
BRANCH  15  16
HETATM   16  C   UNL     1     -41.933 -53.425  14.044  1.00  0.00     0.046 C 
BRANCH  16  17
HETATM   17  C   UNL     1     -43.153 -53.896  13.262  1.00  0.00     0.169 C 
BRANCH  17  18
HETATM   18  O   UNL     1     -44.146 -52.876  13.256  1.00  0.00    -0.386 OA
BRANCH  18  19
HETATM   19  C   UNL     1     -45.467 -53.380  13.003  1.00  0.00     0.121 C 
HETATM   20  C   UNL     1     -46.400 -52.173  12.843  1.00  0.00     0.032 C 
HETATM   21  C   UNL     1     -46.551 -51.387  14.147  1.00  0.00     0.002 C 
HETATM   22  C   UNL     1     -46.969 -52.284  15.310  1.00  0.00     0.000 C 
HETATM   23  C   UNL     1     -46.048 -53.490  15.458  1.00  0.00     0.002 C 
HETATM   24  C   UNL     1     -45.970 -54.271  14.147  1.00  0.00     0.032 C 
ENDBRANCH  18  19
ENDBRANCH  17  18
ENDBRANCH  16  17
ENDBRANCH  15  16
ENDBRANCH   3  15
TORSDOF 7
ENDMDL
