MODEL 1
REMARK VINA RESULT:      -6.6      0.000      0.000
REMARK  8 active torsions:
REMARK  status: ('A' for Active; 'I' for Inactive)
REMARK    1  A    between atoms: C_2  and  O_3 
REMARK    2  A    between atoms: C_2  and  C_4 
REMARK    3  A    between atoms: C_4  and  N_5 
REMARK    4  A    between atoms: N_8  and  C_9 
REMARK    5  A    between atoms: C_9  and  C_10 
REMARK    6  A    between atoms: C_10  and  O_11 
REMARK    7  A    between atoms: C_10  and  C_12 
REMARK    8  A    between atoms: C_12  and  N_13 
ROOT
HETATM    1  C   UNL     1     -39.718 -50.631  12.176  1.00  0.00     0.164 C 
ENDROOT
BRANCH   1   2
HETATM    2  C   UNL     1     -39.631 -49.095  12.395  1.00  0.00     0.305 C 
BRANCH   2   3
HETATM    3  N   UNL     1     -40.920 -48.424  12.684  1.00  0.00     0.094 N 
HETATM    4  C   UNL     1     -41.987 -48.710  11.700  1.00  0.00     0.302 C 
HETATM    5  C   UNL     1     -41.716 -48.092  10.306  1.00  0.00     0.302 C 
HETATM    6  N   UNL     1     -41.582 -46.616  10.329  1.00  0.00     0.094 N 
HETATM    7  C   UNL     1     -40.615 -46.236  11.384  1.00  0.00     0.302 C 
HETATM    8  C   UNL     1     -40.769 -46.952  12.753  1.00  0.00     0.302 C 
BRANCH   6   9
HETATM    9  C   UNL     1     -42.915 -46.007  10.485  1.00  0.00     0.303 C 
BRANCH   9  10
HETATM   10  C   UNL     1     -43.725 -45.697   9.209  1.00  0.00     0.142 C 
HETATM   11  C   UNL     1     -44.888 -46.649   8.976  1.00  0.00     0.041 C 
BRANCH  10  12
HETATM   12  O   UNL     1     -44.236 -44.360   9.289  1.00  0.00    -0.394 OA
HETATM   13  H   UNL     1     -45.184 -44.384   9.069  1.00  0.00     0.210 HD
ENDBRANCH  10  12
ENDBRANCH   9  10
ENDBRANCH   6   9
ENDBRANCH   2   3
ENDBRANCH   1   2
BRANCH   1  14
HETATM   14  O   UNL     1     -38.420 -51.191  11.922  1.00  0.00    -0.392 OA
HETATM   15  H   UNL     1     -38.322 -52.006  12.440  1.00  0.00     0.210 HD
ENDBRANCH   1  14
BRANCH   1  16
HETATM   16  C   UNL     1     -40.285 -51.343  13.416  1.00  0.00     0.163 C 
BRANCH  16  17
HETATM   17  N   UNL     1     -41.584 -51.918  13.120  1.00  0.00    -0.339 N 
HETATM   18  C   UNL     1     -41.875 -52.700  12.034  1.00  0.00     0.184 A 
HETATM   19  N   UNL     1     -43.163 -52.932  11.931  1.00  0.00    -0.350 N 
HETATM   20  C   UNL     1     -43.728 -52.272  12.995  1.00  0.00     0.060 A 
ATOM     21  HN  UNL     1     -43.640 -53.482  11.217  1.00  0.00     0.166 HD
HETATM   22  C   UNL     1     -45.076 -52.147  13.352  1.00  0.00     0.039 A 
HETATM   23  C   UNL     1     -42.759 -51.659  13.783  1.00  0.00     0.062 A 
HETATM   24  C   UNL     1     -45.427 -51.439  14.521  1.00  0.00    -0.054 A 
HETATM   25  C   UNL     1     -46.883 -51.355  14.888  1.00  0.00     0.049 C 
HETATM   26  C   UNL     1     -44.420 -50.850  15.318  1.00  0.00    -0.054 A 
HETATM   27  C   UNL     1     -44.716 -50.105  16.593  1.00  0.00     0.049 C 
HETATM   28  C   UNL     1     -43.068 -50.943  14.937  1.00  0.00     0.039 A 
ENDBRANCH  16  17
ENDBRANCH   1  16
TORSDOF 8
ENDMDL
MODEL 2
REMARK VINA RESULT:      -6.4      1.834      2.378
REMARK  8 active torsions:
REMARK  status: ('A' for Active; 'I' for Inactive)
REMARK    1  A    between atoms: C_2  and  O_3 
REMARK    2  A    between atoms: C_2  and  C_4 
REMARK    3  A    between atoms: C_4  and  N_5 
REMARK    4  A    between atoms: N_8  and  C_9 
REMARK    5  A    between atoms: C_9  and  C_10 
REMARK    6  A    between atoms: C_10  and  O_11 
REMARK    7  A    between atoms: C_10  and  C_12 
REMARK    8  A    between atoms: C_12  and  N_13 
ROOT
HETATM    1  C   UNL     1     -41.301 -52.379  12.228  1.00  0.00     0.164 C 
ENDROOT
BRANCH   1   2
HETATM    2  C   UNL     1     -40.360 -51.226  12.675  1.00  0.00     0.305 C 
BRANCH   2   3
HETATM    3  N   UNL     1     -41.044 -50.001  13.153  1.00  0.00     0.094 N 
HETATM    4  C   UNL     1     -41.999 -49.422  12.183  1.00  0.00     0.302 C 
HETATM    5  C   UNL     1     -41.313 -48.825  10.930  1.00  0.00     0.302 C 
HETATM    6  N   UNL     1     -40.355 -47.738  11.242  1.00  0.00     0.094 N 
HETATM    7  C   UNL     1     -39.432 -48.198  12.304  1.00  0.00     0.302 C 
HETATM    8  C   UNL     1     -40.079 -48.936  13.508  1.00  0.00     0.302 C 
BRANCH   6   9
HETATM    9  C   UNL     1     -41.100 -46.512  11.579  1.00  0.00     0.303 C 
BRANCH   9  10
HETATM   10  C   UNL     1     -41.032 -45.327  10.593  1.00  0.00     0.142 C 
HETATM   11  C   UNL     1     -39.614 -44.931  10.210  1.00  0.00     0.041 C 
BRANCH  10  12
HETATM   12  O   UNL     1     -41.750 -45.667   9.399  1.00  0.00    -0.394 OA
HETATM   13  H   UNL     1     -41.211 -46.297   8.890  1.00  0.00     0.210 HD
ENDBRANCH  10  12
ENDBRANCH   9  10
ENDBRANCH   6   9
ENDBRANCH   2   3
ENDBRANCH   1   2
BRANCH   1  14
HETATM   14  O   UNL     1     -40.568 -53.408  11.544  1.00  0.00    -0.392 OA
HETATM   15  H   UNL     1     -41.172 -53.882  10.950  1.00  0.00     0.210 HD
ENDBRANCH   1  14
BRANCH   1  16
HETATM   16  C   UNL     1     -41.993 -53.038  13.432  1.00  0.00     0.163 C 
BRANCH  16  17
HETATM   17  N   UNL     1     -43.434 -52.892  13.331  1.00  0.00    -0.339 N 
HETATM   18  C   UNL     1     -44.160 -52.994  12.174  1.00  0.00     0.184 A 
HETATM   19  N   UNL     1     -45.414 -52.646  12.353  1.00  0.00    -0.350 N 
HETATM   20  C   UNL     1     -45.500 -52.306  13.681  1.00  0.00     0.060 A 
ATOM     21  HN  UNL     1     -46.159 -52.631  11.658  1.00  0.00     0.166 HD
HETATM   22  C   UNL     1     -46.595 -51.823  14.408  1.00  0.00     0.039 A 
HETATM   23  C   UNL     1     -44.283 -52.489  14.332  1.00  0.00     0.062 A 
HETATM   24  C   UNL     1     -46.461 -51.568  15.789  1.00  0.00    -0.054 A 
HETATM   25  C   UNL     1     -47.669 -51.082  16.540  1.00  0.00     0.049 C 
HETATM   26  C   UNL     1     -45.222 -51.789  16.429  1.00  0.00    -0.054 A 
HETATM   27  C   UNL     1     -45.010 -51.568  17.904  1.00  0.00     0.049 C 
HETATM   28  C   UNL     1     -44.110 -52.238  15.690  1.00  0.00     0.039 A 
ENDBRANCH  16  17
ENDBRANCH   1  16
TORSDOF 8
ENDMDL
MODEL 3
REMARK VINA RESULT:      -6.1      2.537      3.051
REMARK  8 active torsions:
REMARK  status: ('A' for Active; 'I' for Inactive)
REMARK    1  A    between atoms: C_2  and  O_3 
REMARK    2  A    between atoms: C_2  and  C_4 
REMARK    3  A    between atoms: C_4  and  N_5 
REMARK    4  A    between atoms: N_8  and  C_9 
REMARK    5  A    between atoms: C_9  and  C_10 
REMARK    6  A    between atoms: C_10  and  O_11 
REMARK    7  A    between atoms: C_10  and  C_12 
REMARK    8  A    between atoms: C_12  and  N_13 
ROOT
HETATM    1  C   UNL     1     -38.442 -51.181  12.997  1.00  0.00     0.164 C 
ENDROOT
BRANCH   1   2
HETATM    2  C   UNL     1     -38.424 -49.892  13.865  1.00  0.00     0.305 C 
BRANCH   2   3
HETATM    3  N   UNL     1     -38.177 -48.633  13.123  1.00  0.00     0.094 N 
HETATM    4  C   UNL     1     -38.579 -47.410  13.851  1.00  0.00     0.302 C 
HETATM    5  C   UNL     1     -40.112 -47.276  14.023  1.00  0.00     0.302 C 
HETATM    6  N   UNL     1     -40.850 -47.234  12.739  1.00  0.00     0.094 N 
HETATM    7  C   UNL     1     -40.409 -48.365  11.892  1.00  0.00     0.302 C 
HETATM    8  C   UNL     1     -38.879 -48.618  11.819  1.00  0.00     0.302 C 
BRANCH   6   9
HETATM    9  C   UNL     1     -40.671 -45.909  12.116  1.00  0.00     0.303 C 
BRANCH   9  10
HETATM   10  C   UNL     1     -41.482 -45.592  10.842  1.00  0.00     0.142 C 
HETATM   11  C   UNL     1     -42.452 -44.431  11.009  1.00  0.00     0.041 C 
BRANCH  10  12
HETATM   12  O   UNL     1     -40.578 -45.283   9.773  1.00  0.00    -0.394 OA
HETATM   13  H   UNL     1     -40.433 -46.095   9.256  1.00  0.00     0.210 HD
ENDBRANCH  10  12
ENDBRANCH   9  10
ENDBRANCH   6   9
ENDBRANCH   2   3
ENDBRANCH   1   2
BRANCH   1  14
HETATM   14  O   UNL     1     -37.110 -51.660  12.755  1.00  0.00    -0.392 OA
HETATM   15  H   UNL     1     -36.496 -50.908  12.779  1.00  0.00     0.210 HD
ENDBRANCH   1  14
BRANCH   1  16
HETATM   16  C   UNL     1     -39.213 -52.314  13.693  1.00  0.00     0.163 C 
BRANCH  16  17
HETATM   17  N   UNL     1     -40.470 -52.565  13.011  1.00  0.00    -0.339 N 
HETATM   18  C   UNL     1     -40.892 -51.934  11.871  1.00  0.00     0.184 A 
HETATM   19  N   UNL     1     -42.137 -52.234  11.580  1.00  0.00    -0.350 N 
HETATM   20  C   UNL     1     -42.535 -53.095  12.573  1.00  0.00     0.060 A 
ATOM     21  HN  UNL     1     -42.687 -51.901  10.789  1.00  0.00     0.166 HD
HETATM   22  C   UNL     1     -43.781 -53.698  12.784  1.00  0.00     0.039 A 
HETATM   23  C   UNL     1     -41.499 -53.355  13.465  1.00  0.00     0.062 A 
HETATM   24  C   UNL     1     -43.955 -54.585  13.867  1.00  0.00    -0.054 A 
HETATM   25  C   UNL     1     -45.300 -55.237  14.039  1.00  0.00     0.049 C 
HETATM   26  C   UNL     1     -42.878 -54.851  14.740  1.00  0.00    -0.054 A 
HETATM   27  C   UNL     1     -42.981 -55.808  15.899  1.00  0.00     0.049 C 
HETATM   28  C   UNL     1     -41.636 -54.215  14.551  1.00  0.00     0.039 A 
ENDBRANCH  16  17
ENDBRANCH   1  16
TORSDOF 8
ENDMDL
MODEL 4
REMARK VINA RESULT:      -6.1      1.878      2.781
REMARK  8 active torsions:
REMARK  status: ('A' for Active; 'I' for Inactive)
REMARK    1  A    between atoms: C_2  and  O_3 
REMARK    2  A    between atoms: C_2  and  C_4 
REMARK    3  A    between atoms: C_4  and  N_5 
REMARK    4  A    between atoms: N_8  and  C_9 
REMARK    5  A    between atoms: C_9  and  C_10 
REMARK    6  A    between atoms: C_10  and  O_11 
REMARK    7  A    between atoms: C_10  and  C_12 
REMARK    8  A    between atoms: C_12  and  N_13 
ROOT
HETATM    1  C   UNL     1     -41.236 -52.412  12.231  1.00  0.00     0.164 C 
ENDROOT
BRANCH   1   2
HETATM    2  C   UNL     1     -40.195 -51.341  12.661  1.00  0.00     0.305 C 
BRANCH   2   3
HETATM    3  N   UNL     1     -40.767 -50.094  13.224  1.00  0.00     0.094 N 
HETATM    4  C   UNL     1     -41.873 -49.520  12.427  1.00  0.00     0.302 C 
HETATM    5  C   UNL     1     -41.417 -48.962  11.057  1.00  0.00     0.302 C 
HETATM    6  N   UNL     1     -40.404 -47.885  11.164  1.00  0.00     0.094 N 
HETATM    7  C   UNL     1     -39.311 -48.337  12.055  1.00  0.00     0.302 C 
HETATM    8  C   UNL     1     -39.740 -49.038  13.373  1.00  0.00     0.302 C 
BRANCH   6   9
HETATM    9  C   UNL     1     -41.061 -46.640  11.600  1.00  0.00     0.303 C 
BRANCH   9  10
HETATM   10  C   UNL     1     -41.026 -45.428  10.645  1.00  0.00     0.142 C 
HETATM   11  C   UNL     1     -39.620 -45.002  10.250  1.00  0.00     0.041 C 
BRANCH  10  12
HETATM   12  O   UNL     1     -41.759 -45.747   9.455  1.00  0.00    -0.394 OA
HETATM   13  H   UNL     1     -42.635 -45.327   9.517  1.00  0.00     0.210 HD
ENDBRANCH  10  12
ENDBRANCH   9  10
ENDBRANCH   6   9
ENDBRANCH   2   3
ENDBRANCH   1   2
BRANCH   1  14
HETATM   14  O   UNL     1     -40.830 -53.069  11.020  1.00  0.00    -0.392 OA
HETATM   15  H   UNL     1     -39.998 -52.675  10.712  1.00  0.00     0.210 HD
ENDBRANCH   1  14
BRANCH   1  16
HETATM   16  C   UNL     1     -41.397 -53.499  13.306  1.00  0.00     0.163 C 
BRANCH  16  17
HETATM   17  N   UNL     1     -42.097 -52.969  14.462  1.00  0.00    -0.339 N 
HETATM   18  C   UNL     1     -41.617 -52.961  15.744  1.00  0.00     0.184 A 
HETATM   19  N   UNL     1     -42.532 -52.581  16.606  1.00  0.00    -0.350 N 
HETATM   20  C   UNL     1     -43.650 -52.333  15.848  1.00  0.00     0.060 A 
ATOM     21  HN  UNL     1     -42.434 -52.491  17.617  1.00  0.00     0.166 HD
HETATM   22  C   UNL     1     -44.931 -51.939  16.252  1.00  0.00     0.039 A 
HETATM   23  C   UNL     1     -43.398 -52.528  14.493  1.00  0.00     0.062 A 
HETATM   24  C   UNL     1     -45.930 -51.708  15.283  1.00  0.00    -0.054 A 
HETATM   25  C   UNL     1     -47.284 -51.254  15.756  1.00  0.00     0.049 C 
HETATM   26  C   UNL     1     -45.639 -51.887  13.913  1.00  0.00    -0.054 A 
HETATM   27  C   UNL     1     -46.645 -51.631  12.821  1.00  0.00     0.049 C 
HETATM   28  C   UNL     1     -44.361 -52.321  13.510  1.00  0.00     0.039 A 
ENDBRANCH  16  17
ENDBRANCH   1  16
TORSDOF 8
ENDMDL
MODEL 5
REMARK VINA RESULT:      -5.9      1.702      1.879
REMARK  8 active torsions:
REMARK  status: ('A' for Active; 'I' for Inactive)
REMARK    1  A    between atoms: C_2  and  O_3 
REMARK    2  A    between atoms: C_2  and  C_4 
REMARK    3  A    between atoms: C_4  and  N_5 
REMARK    4  A    between atoms: N_8  and  C_9 
REMARK    5  A    between atoms: C_9  and  C_10 
REMARK    6  A    between atoms: C_10  and  O_11 
REMARK    7  A    between atoms: C_10  and  C_12 
REMARK    8  A    between atoms: C_12  and  N_13 
ROOT
HETATM    1  C   UNL     1     -39.564 -50.446  12.082  1.00  0.00     0.164 C 
ENDROOT
BRANCH   1   2
HETATM    2  C   UNL     1     -39.320 -48.913  12.152  1.00  0.00     0.305 C 
BRANCH   2   3
HETATM    3  N   UNL     1     -40.487 -48.106  12.577  1.00  0.00     0.094 N 
HETATM    4  C   UNL     1     -41.112 -47.323  11.488  1.00  0.00     0.302 C 
HETATM    5  C   UNL     1     -40.216 -46.171  10.969  1.00  0.00     0.302 C 
HETATM    6  N   UNL     1     -39.858 -45.183  12.014  1.00  0.00     0.094 N 
HETATM    7  C   UNL     1     -39.336 -45.901  13.199  1.00  0.00     0.302 C 
HETATM    8  C   UNL     1     -40.134 -47.154  13.654  1.00  0.00     0.302 C 
BRANCH   6   9
HETATM    9  C   UNL     1     -41.024 -44.325  12.295  1.00  0.00     0.303 C 
BRANCH   9  10
HETATM   10  C   UNL     1     -41.664 -43.563  11.115  1.00  0.00     0.142 C 
HETATM   11  C   UNL     1     -42.957 -42.849  11.479  1.00  0.00     0.041 C 
BRANCH  10  12
HETATM   12  O   UNL     1     -40.730 -42.595  10.619  1.00  0.00    -0.394 OA
HETATM   13  H   UNL     1     -39.841 -42.990  10.647  1.00  0.00     0.210 HD
ENDBRANCH  10  12
ENDBRANCH   9  10
ENDBRANCH   6   9
ENDBRANCH   2   3
ENDBRANCH   1   2
BRANCH   1  14
HETATM   14  O   UNL     1     -38.327 -51.160  11.935  1.00  0.00    -0.392 OA
HETATM   15  H   UNL     1     -38.045 -51.485  12.806  1.00  0.00     0.210 HD
ENDBRANCH   1  14
BRANCH   1  16
HETATM   16  C   UNL     1     -40.238 -50.965  13.363  1.00  0.00     0.163 C 
BRANCH  16  17
HETATM   17  N   UNL     1     -41.498 -51.612  13.046  1.00  0.00    -0.339 N 
HETATM   18  C   UNL     1     -41.734 -52.390  11.944  1.00  0.00     0.184 A 
HETATM   19  N   UNL     1     -43.004 -52.698  11.826  1.00  0.00    -0.350 N 
HETATM   20  C   UNL     1     -43.615 -52.094  12.898  1.00  0.00     0.060 A 
ATOM     21  HN  UNL     1     -43.442 -53.262  11.098  1.00  0.00     0.166 HD
HETATM   22  C   UNL     1     -44.971 -52.058  13.246  1.00  0.00     0.039 A 
HETATM   23  C   UNL     1     -42.691 -51.438  13.705  1.00  0.00     0.062 A 
HETATM   24  C   UNL     1     -45.372 -51.396  14.425  1.00  0.00    -0.054 A 
HETATM   25  C   UNL     1     -46.833 -51.408  14.782  1.00  0.00     0.049 C 
HETATM   26  C   UNL     1     -44.409 -50.762  15.241  1.00  0.00    -0.054 A 
HETATM   27  C   UNL     1     -44.759 -50.061  16.528  1.00  0.00     0.049 C 
HETATM   28  C   UNL     1     -43.051 -50.765  14.869  1.00  0.00     0.039 A 
ENDBRANCH  16  17
ENDBRANCH   1  16
TORSDOF 8
ENDMDL
MODEL 6
REMARK VINA RESULT:      -5.9      2.579      3.137
REMARK  8 active torsions:
REMARK  status: ('A' for Active; 'I' for Inactive)
REMARK    1  A    between atoms: C_2  and  O_3 
REMARK    2  A    between atoms: C_2  and  C_4 
REMARK    3  A    between atoms: C_4  and  N_5 
REMARK    4  A    between atoms: N_8  and  C_9 
REMARK    5  A    between atoms: C_9  and  C_10 
REMARK    6  A    between atoms: C_10  and  O_11 
REMARK    7  A    between atoms: C_10  and  C_12 
REMARK    8  A    between atoms: C_12  and  N_13 
ROOT
HETATM    1  C   UNL     1     -38.943 -49.752  11.573  1.00  0.00     0.164 C 
ENDROOT
BRANCH   1   2
HETATM    2  C   UNL     1     -39.164 -48.402  12.309  1.00  0.00     0.305 C 
BRANCH   2   3
HETATM    3  N   UNL     1     -40.580 -48.032  12.541  1.00  0.00     0.094 N 
HETATM    4  C   UNL     1     -41.305 -47.611  11.321  1.00  0.00     0.302 C 
HETATM    5  C   UNL     1     -40.808 -46.261  10.749  1.00  0.00     0.302 C 
HETATM    6  N   UNL     1     -40.940 -45.131  11.699  1.00  0.00     0.094 N 
HETATM    7  C   UNL     1     -40.344 -45.520  12.998  1.00  0.00     0.302 C 
HETATM    8  C   UNL     1     -40.707 -46.935  13.527  1.00  0.00     0.302 C 
BRANCH   6   9
HETATM    9  C   UNL     1     -42.355 -44.726  11.782  1.00  0.00     0.303 C 
BRANCH   9  10
HETATM   10  C   UNL     1     -42.719 -43.279  11.385  1.00  0.00     0.142 C 
HETATM   11  C   UNL     1     -41.510 -42.404  11.090  1.00  0.00     0.041 C 
BRANCH  10  12
HETATM   12  O   UNL     1     -43.559 -43.307  10.224  1.00  0.00    -0.394 OA
HETATM   13  H   UNL     1     -44.429 -43.656  10.488  1.00  0.00     0.210 HD
ENDBRANCH  10  12
ENDBRANCH   9  10
ENDBRANCH   6   9
ENDBRANCH   2   3
ENDBRANCH   1   2
BRANCH   1  14
HETATM   14  O   UNL     1     -37.695 -49.754  10.861  1.00  0.00    -0.392 OA
HETATM   15  H   UNL     1     -37.698 -49.026  10.219  1.00  0.00     0.210 HD
ENDBRANCH   1  14
BRANCH   1  16
HETATM   16  C   UNL     1     -38.905 -50.929  12.560  1.00  0.00     0.163 C 
BRANCH  16  17
HETATM   17  N   UNL     1     -40.120 -51.717  12.456  1.00  0.00    -0.339 N 
HETATM   18  C   UNL     1     -41.128 -51.503  11.554  1.00  0.00     0.184 A 
HETATM   19  N   UNL     1     -42.175 -52.255  11.804  1.00  0.00    -0.350 N 
HETATM   20  C   UNL     1     -41.828 -52.987  12.913  1.00  0.00     0.060 A 
ATOM     21  HN  UNL     1     -43.053 -52.288  11.287  1.00  0.00     0.166 HD
HETATM   22  C   UNL     1     -42.580 -53.920  13.637  1.00  0.00     0.039 A 
HETATM   23  C   UNL     1     -40.529 -52.702  13.323  1.00  0.00     0.062 A 
HETATM   24  C   UNL     1     -42.001 -54.582  14.739  1.00  0.00    -0.054 A 
HETATM   25  C   UNL     1     -42.832 -55.601  15.469  1.00  0.00     0.049 C 
HETATM   26  C   UNL     1     -40.671 -54.294  15.115  1.00  0.00    -0.054 A 
HETATM   27  C   UNL     1     -39.976 -54.981  16.262  1.00  0.00     0.049 C 
HETATM   28  C   UNL     1     -39.927 -53.327  14.411  1.00  0.00     0.039 A 
ENDBRANCH  16  17
ENDBRANCH   1  16
TORSDOF 8
ENDMDL
MODEL 7
REMARK VINA RESULT:      -5.8      4.095      5.511
REMARK  8 active torsions:
REMARK  status: ('A' for Active; 'I' for Inactive)
REMARK    1  A    between atoms: C_2  and  O_3 
REMARK    2  A    between atoms: C_2  and  C_4 
REMARK    3  A    between atoms: C_4  and  N_5 
REMARK    4  A    between atoms: N_8  and  C_9 
REMARK    5  A    between atoms: C_9  and  C_10 
REMARK    6  A    between atoms: C_10  and  O_11 
REMARK    7  A    between atoms: C_10  and  C_12 
REMARK    8  A    between atoms: C_12  and  N_13 
ROOT
HETATM    1  C   UNL     1     -41.308 -52.503  12.284  1.00  0.00     0.164 C 
ENDROOT
BRANCH   1   2
HETATM    2  C   UNL     1     -40.413 -51.359  12.835  1.00  0.00     0.305 C 
BRANCH   2   3
HETATM    3  N   UNL     1     -39.324 -51.790  13.743  1.00  0.00     0.094 N 
HETATM    4  C   UNL     1     -39.560 -51.469  15.169  1.00  0.00     0.302 C 
HETATM    5  C   UNL     1     -39.519 -49.951  15.470  1.00  0.00     0.302 C 
HETATM    6  N   UNL     1     -38.224 -49.315  15.128  1.00  0.00     0.094 N 
HETATM    7  C   UNL     1     -37.851 -49.692  13.745  1.00  0.00     0.302 C 
HETATM    8  C   UNL     1     -38.025 -51.188  13.367  1.00  0.00     0.302 C 
BRANCH   6   9
HETATM    9  C   UNL     1     -37.219 -49.677  16.143  1.00  0.00     0.303 C 
BRANCH   9  10
HETATM   10  C   UNL     1     -35.902 -48.873  16.179  1.00  0.00     0.142 C 
HETATM   11  C   UNL     1     -35.800 -47.921  17.361  1.00  0.00     0.041 C 
BRANCH  10  12
HETATM   12  O   UNL     1     -34.796 -49.784  16.227  1.00  0.00    -0.394 OA
HETATM   13  H   UNL     1     -34.327 -49.736  15.376  1.00  0.00     0.210 HD
ENDBRANCH  10  12
ENDBRANCH   9  10
ENDBRANCH   6   9
ENDBRANCH   2   3
ENDBRANCH   1   2
BRANCH   1  14
HETATM   14  O   UNL     1     -40.523 -53.481  11.584  1.00  0.00    -0.392 OA
HETATM   15  H   UNL     1     -40.436 -54.271  12.140  1.00  0.00     0.210 HD
ENDBRANCH   1  14
BRANCH   1  16
HETATM   16  C   UNL     1     -42.042 -53.237  13.418  1.00  0.00     0.163 C 
BRANCH  16  17
HETATM   17  N   UNL     1     -43.475 -53.026  13.314  1.00  0.00    -0.339 N 
HETATM   18  C   UNL     1     -44.199 -53.070  12.153  1.00  0.00     0.184 A 
HETATM   19  N   UNL     1     -45.437 -52.671  12.334  1.00  0.00    -0.350 N 
HETATM   20  C   UNL     1     -45.515 -52.356  13.669  1.00  0.00     0.060 A 
ATOM     21  HN  UNL     1     -46.178 -52.608  11.637  1.00  0.00     0.166 HD
HETATM   22  C   UNL     1     -46.590 -51.841  14.402  1.00  0.00     0.039 A 
HETATM   23  C   UNL     1     -44.310 -52.606  14.320  1.00  0.00     0.062 A 
HETATM   24  C   UNL     1     -46.452 -51.622  15.788  1.00  0.00    -0.054 A 
HETATM   25  C   UNL     1     -47.641 -51.099  16.545  1.00  0.00     0.049 C 
HETATM   26  C   UNL     1     -45.227 -51.911  16.428  1.00  0.00    -0.054 A 
HETATM   27  C   UNL     1     -45.013 -51.731  17.909  1.00  0.00     0.049 C 
HETATM   28  C   UNL     1     -44.133 -52.393  15.684  1.00  0.00     0.039 A 
ENDBRANCH  16  17
ENDBRANCH   1  16
TORSDOF 8
ENDMDL
MODEL 8
REMARK VINA RESULT:      -5.7      3.915      7.613
REMARK  8 active torsions:
REMARK  status: ('A' for Active; 'I' for Inactive)
REMARK    1  A    between atoms: C_2  and  O_3 
REMARK    2  A    between atoms: C_2  and  C_4 
REMARK    3  A    between atoms: C_4  and  N_5 
REMARK    4  A    between atoms: N_8  and  C_9 
REMARK    5  A    between atoms: C_9  and  C_10 
REMARK    6  A    between atoms: C_10  and  O_11 
REMARK    7  A    between atoms: C_10  and  C_12 
REMARK    8  A    between atoms: C_12  and  N_13 
ROOT
HETATM    1  C   UNL     1     -39.764 -51.548  12.875  1.00  0.00     0.164 C 
ENDROOT
BRANCH   1   2
HETATM    2  C   UNL     1     -39.335 -52.453  14.063  1.00  0.00     0.305 C 
BRANCH   2   3
HETATM    3  N   UNL     1     -40.186 -53.645  14.289  1.00  0.00     0.094 N 
HETATM    4  C   UNL     1     -40.955 -53.611  15.553  1.00  0.00     0.302 C 
HETATM    5  C   UNL     1     -40.065 -53.724  16.815  1.00  0.00     0.302 C 
HETATM    6  N   UNL     1     -39.269 -54.973  16.868  1.00  0.00     0.094 N 
HETATM    7  C   UNL     1     -38.559 -55.148  15.580  1.00  0.00     0.302 C 
HETATM    8  C   UNL     1     -39.391 -54.894  14.293  1.00  0.00     0.302 C 
BRANCH   6   9
HETATM    9  C   UNL     1     -40.151 -56.098  17.228  1.00  0.00     0.303 C 
BRANCH   9  10
HETATM   10  C   UNL     1     -39.512 -57.335  17.894  1.00  0.00     0.142 C 
HETATM   11  C   UNL     1     -40.010 -57.594  19.308  1.00  0.00     0.041 C 
BRANCH  10  12
HETATM   12  O   UNL     1     -39.784 -58.493  17.094  1.00  0.00    -0.394 OA
HETATM   13  H   UNL     1     -39.103 -58.550  16.401  1.00  0.00     0.210 HD
ENDBRANCH  10  12
ENDBRANCH   9  10
ENDBRANCH   6   9
ENDBRANCH   2   3
ENDBRANCH   1   2
BRANCH   1  14
HETATM   14  O   UNL     1     -38.677 -51.351  11.957  1.00  0.00    -0.392 OA
HETATM   15  H   UNL     1     -39.014 -50.906  11.162  1.00  0.00     0.210 HD
ENDBRANCH   1  14
BRANCH   1  16
HETATM   16  C   UNL     1     -40.921 -52.177  12.081  1.00  0.00     0.163 C 
BRANCH  16  17
HETATM   17  N   UNL     1     -42.174 -51.521  12.405  1.00  0.00    -0.339 N 
HETATM   18  C   UNL     1     -42.376 -50.166  12.427  1.00  0.00     0.184 A 
HETATM   19  N   UNL     1     -43.552 -49.856  12.921  1.00  0.00    -0.350 N 
HETATM   20  C   UNL     1     -44.134 -51.060  13.232  1.00  0.00     0.060 A 
ATOM     21  HN  UNL     1     -43.946 -48.924  13.047  1.00  0.00     0.166 HD
HETATM   22  C   UNL     1     -45.374 -51.324  13.826  1.00  0.00     0.039 A 
HETATM   23  C   UNL     1     -43.311 -52.127  12.883  1.00  0.00     0.062 A 
HETATM   24  C   UNL     1     -45.786 -52.659  14.023  1.00  0.00    -0.054 A 
HETATM   25  C   UNL     1     -47.139 -52.900  14.634  1.00  0.00     0.049 C 
HETATM   26  C   UNL     1     -44.942 -53.722  13.634  1.00  0.00    -0.054 A 
HETATM   27  C   UNL     1     -45.325 -55.171  13.787  1.00  0.00     0.049 C 
HETATM   28  C   UNL     1     -43.678 -53.456  13.072  1.00  0.00     0.039 A 
ENDBRANCH  16  17
ENDBRANCH   1  16
TORSDOF 8
ENDMDL
MODEL 9
REMARK VINA RESULT:      -5.7      2.408      3.114
REMARK  8 active torsions:
REMARK  status: ('A' for Active; 'I' for Inactive)
REMARK    1  A    between atoms: C_2  and  O_3 
REMARK    2  A    between atoms: C_2  and  C_4 
REMARK    3  A    between atoms: C_4  and  N_5 
REMARK    4  A    between atoms: N_8  and  C_9 
REMARK    5  A    between atoms: C_9  and  C_10 
REMARK    6  A    between atoms: C_10  and  O_11 
REMARK    7  A    between atoms: C_10  and  C_12 
REMARK    8  A    between atoms: C_12  and  N_13 
ROOT
HETATM    1  C   UNL     1     -41.366 -49.786  11.227  1.00  0.00     0.164 C 
ENDROOT
BRANCH   1   2
HETATM    2  C   UNL     1     -41.661 -48.262  11.298  1.00  0.00     0.305 C 
BRANCH   2   3
HETATM    3  N   UNL     1     -40.771 -47.487  12.194  1.00  0.00     0.094 N 
HETATM    4  C   UNL     1     -41.484 -46.631  13.168  1.00  0.00     0.302 C 
HETATM    5  C   UNL     1     -42.232 -45.446  12.509  1.00  0.00     0.302 C 
HETATM    6  N   UNL     1     -41.343 -44.532  11.754  1.00  0.00     0.094 N 
HETATM    7  C   UNL     1     -40.498 -45.329  10.836  1.00  0.00     0.302 C 
HETATM    8  C   UNL     1     -39.853 -46.611  11.431  1.00  0.00     0.302 C 
BRANCH   6   9
HETATM    9  C   UNL     1     -40.583 -43.697  12.701  1.00  0.00     0.303 C 
BRANCH   9  10
HETATM   10  C   UNL     1     -40.079 -42.322  12.213  1.00  0.00     0.142 C 
HETATM   11  C   UNL     1     -41.193 -41.380  11.784  1.00  0.00     0.041 C 
BRANCH  10  12
HETATM   12  O   UNL     1     -39.329 -41.697  13.263  1.00  0.00    -0.394 OA
HETATM   13  H   UNL     1     -39.907 -41.049  13.704  1.00  0.00     0.210 HD
ENDBRANCH  10  12
ENDBRANCH   9  10
ENDBRANCH   6   9
ENDBRANCH   2   3
ENDBRANCH   1   2
BRANCH   1  14
HETATM   14  O   UNL     1     -40.339 -50.068  10.263  1.00  0.00    -0.392 OA
HETATM   15  H   UNL     1     -40.330 -49.361   9.597  1.00  0.00     0.210 HD
ENDBRANCH   1  14
BRANCH   1  16
HETATM   16  C   UNL     1     -40.878 -50.326  12.582  1.00  0.00     0.163 C 
BRANCH  16  17
HETATM   17  N   UNL     1     -41.320 -51.696  12.770  1.00  0.00    -0.339 N 
HETATM   18  C   UNL     1     -40.605 -52.813  12.429  1.00  0.00     0.184 A 
HETATM   19  N   UNL     1     -41.320 -53.906  12.552  1.00  0.00    -0.350 N 
HETATM   20  C   UNL     1     -42.549 -53.478  12.990  1.00  0.00     0.060 A 
ATOM     21  HN  UNL     1     -41.027 -54.865  12.363  1.00  0.00     0.166 HD
HETATM   22  C   UNL     1     -43.710 -54.216  13.249  1.00  0.00     0.039 A 
HETATM   23  C   UNL     1     -42.569 -52.099  13.176  1.00  0.00     0.062 A 
HETATM   24  C   UNL     1     -44.863 -53.561  13.730  1.00  0.00    -0.054 A 
HETATM   25  C   UNL     1     -46.079 -54.394  14.027  1.00  0.00     0.049 C 
HETATM   26  C   UNL     1     -44.847 -52.164  13.935  1.00  0.00    -0.054 A 
HETATM   27  C   UNL     1     -46.029 -51.400  14.472  1.00  0.00     0.049 C 
HETATM   28  C   UNL     1     -43.691 -51.416  13.637  1.00  0.00     0.039 A 
ENDBRANCH  16  17
ENDBRANCH   1  16
TORSDOF 8
ENDMDL
