MODEL 1
REMARK VINA RESULT:      -7.2      0.000      0.000
REMARK  3 active torsions:
REMARK  status: ('A' for Active; 'I' for Inactive)
REMARK    1  A    between atoms: C_2  and  C_5 
REMARK    2  A    between atoms: C_8  and  N_9 
REMARK       I    between atoms: N_9  and  C_10 
REMARK       I    between atoms: C_10  and  N_12 
REMARK    3  A    between atoms: N_12  and  C_13 
ROOT
HETATM    1  N   UNL     1     -42.723 -53.829  12.338  1.00  0.00    -0.294 N 
HETATM    2  C   UNL     1     -43.991 -53.718  12.848  1.00  0.00     0.322 C 
HETATM    3  O   UNL     1     -44.804 -54.615  12.642  1.00  0.00    -0.247 OA
HETATM    4  N   UNL     1     -44.263 -52.594  13.562  1.00  0.00    -0.334 N 
HETATM    5  H   UNL     1     -42.571 -54.692  11.838  1.00  0.00     0.172 HD
HETATM    6  H   UNL     1     -43.511 -51.912  13.556  1.00  0.00     0.165 HD
ENDROOT
BRANCH   1   7
HETATM    7  C   UNL     1     -41.683 -52.890  12.384  1.00  0.00     0.123 A 
HETATM    8  C   UNL     1     -40.914 -52.765  13.527  1.00  0.00     0.052 A 
HETATM    9  C   UNL     1     -39.894 -51.806  13.556  1.00  0.00     0.031 A 
HETATM   10  C   UNL     1     -39.680 -50.998  12.442  1.00  0.00     0.033 A 
HETATM   11  N   UNL     1     -40.428 -51.186  11.335  1.00  0.00    -0.303 N 
HETATM   12  N   UNL     1     -41.428 -52.117  11.312  1.00  0.00    -0.285 N 
ATOM     13  HN  UNL     1     -40.245 -50.624  10.503  1.00  0.00     0.186 HD
ATOM     14  HN  UNL     1     -41.990 -52.228  10.468  1.00  0.00     0.188 HD
BRANCH  10  15
HETATM   15  C   UNL     1     -38.608 -49.913  12.359  1.00  0.00    -0.007 C 
HETATM   16  C   UNL     1     -39.262 -48.590  11.926  1.00  0.00     0.021 C 
HETATM   17  C   UNL     1     -37.474 -50.261  11.375  1.00  0.00     0.021 C 
HETATM   18  C   UNL     1     -37.957 -49.707  13.748  1.00  0.00     0.021 C 
ENDBRANCH  10  15
ENDBRANCH   1   7
BRANCH   4  19
HETATM   19  C   UNL     1     -45.570 -52.105  14.031  1.00  0.00     0.035 C 
HETATM   20  C   UNL     1     -46.367 -51.556  12.834  1.00  0.00     0.039 C 
HETATM   21  C   UNL     1     -45.305 -50.956  15.032  1.00  0.00     0.057 C 
HETATM   22  C   UNL     1     -44.719 -51.496  16.332  1.00  0.00     0.170 C 
HETATM   23  O   UNL     1     -45.634 -52.413  16.926  1.00  0.00    -0.391 OA
HETATM   24  C   UNL     1     -45.837 -53.565  16.108  1.00  0.00     0.170 C 
HETATM   25  C   UNL     1     -46.402 -53.190  14.743  1.00  0.00     0.057 C 
ENDBRANCH   4  19
TORSDOF 3
ENDMDL
MODEL 2
REMARK VINA RESULT:      -6.8      3.613      5.068
REMARK  3 active torsions:
REMARK  status: ('A' for Active; 'I' for Inactive)
REMARK    1  A    between atoms: C_2  and  C_5 
REMARK    2  A    between atoms: C_8  and  N_9 
REMARK       I    between atoms: N_9  and  C_10 
REMARK       I    between atoms: C_10  and  N_12 
REMARK    3  A    between atoms: N_12  and  C_13 
ROOT
HETATM    1  N   UNL     1     -40.578 -49.756  12.727  1.00  0.00    -0.294 N 
HETATM    2  C   UNL     1     -40.733 -50.997  13.289  1.00  0.00     0.322 C 
HETATM    3  O   UNL     1     -39.842 -51.450  14.004  1.00  0.00    -0.247 OA
HETATM    4  N   UNL     1     -41.890 -51.653  13.008  1.00  0.00    -0.334 N 
HETATM    5  H   UNL     1     -39.713 -49.307  12.987  1.00  0.00     0.172 HD
HETATM    6  H   UNL     1     -42.474 -51.179  12.327  1.00  0.00     0.165 HD
ENDROOT
BRANCH   1   7
HETATM    7  C   UNL     1     -41.426 -49.101  11.822  1.00  0.00     0.123 A 
HETATM    8  C   UNL     1     -42.543 -48.429  12.284  1.00  0.00     0.052 A 
HETATM    9  C   UNL     1     -43.386 -47.799  11.360  1.00  0.00     0.031 A 
HETATM   10  C   UNL     1     -43.088 -47.867  10.002  1.00  0.00     0.033 A 
HETATM   11  N   UNL     1     -41.964 -48.499   9.602  1.00  0.00    -0.303 N 
HETATM   12  N   UNL     1     -41.148 -49.119  10.505  1.00  0.00    -0.285 N 
ATOM     13  HN  UNL     1     -41.720 -48.514   8.612  1.00  0.00     0.186 HD
ATOM     14  HN  UNL     1     -40.313 -49.604  10.176  1.00  0.00     0.188 HD
BRANCH  10  15
HETATM   15  C   UNL     1     -43.934 -47.231   8.901  1.00  0.00    -0.007 C 
HETATM   16  C   UNL     1     -43.524 -47.826   7.542  1.00  0.00     0.021 C 
HETATM   17  C   UNL     1     -43.795 -45.697   8.844  1.00  0.00     0.021 C 
HETATM   18  C   UNL     1     -45.431 -47.543   9.141  1.00  0.00     0.021 C 
ENDBRANCH  10  15
ENDBRANCH   1   7
BRANCH   4  19
HETATM   19  C   UNL     1     -42.231 -53.058  13.281  1.00  0.00     0.035 C 
HETATM   20  C   UNL     1     -41.094 -53.965  12.777  1.00  0.00     0.039 C 
HETATM   21  C   UNL     1     -43.524 -53.384  12.497  1.00  0.00     0.057 C 
HETATM   22  C   UNL     1     -44.724 -52.674  13.114  1.00  0.00     0.170 C 
HETATM   23  O   UNL     1     -44.892 -53.100  14.464  1.00  0.00    -0.391 OA
HETATM   24  C   UNL     1     -43.783 -52.725  15.281  1.00  0.00     0.170 C 
HETATM   25  C   UNL     1     -42.483 -53.340  14.776  1.00  0.00     0.057 C 
ENDBRANCH   4  19
TORSDOF 3
ENDMDL
MODEL 3
REMARK VINA RESULT:      -6.5      2.574      3.822
REMARK  3 active torsions:
REMARK  status: ('A' for Active; 'I' for Inactive)
REMARK    1  A    between atoms: C_2  and  C_5 
REMARK    2  A    between atoms: C_8  and  N_9 
REMARK       I    between atoms: N_9  and  C_10 
REMARK       I    between atoms: C_10  and  N_12 
REMARK    3  A    between atoms: N_12  and  C_13 
ROOT
HETATM    1  N   UNL     1     -40.022 -51.229  11.583  1.00  0.00    -0.294 N 
HETATM    2  C   UNL     1     -40.887 -52.101  12.190  1.00  0.00     0.322 C 
HETATM    3  O   UNL     1     -40.672 -53.309  12.120  1.00  0.00    -0.247 OA
HETATM    4  N   UNL     1     -41.946 -51.554  12.841  1.00  0.00    -0.334 N 
HETATM    5  H   UNL     1     -39.243 -51.688  11.135  1.00  0.00     0.172 HD
HETATM    6  H   UNL     1     -42.027 -50.549  12.721  1.00  0.00     0.165 HD
ENDROOT
BRANCH   1   7
HETATM    7  C   UNL     1     -40.130 -49.835  11.471  1.00  0.00     0.123 A 
HETATM    8  C   UNL     1     -39.446 -49.016  12.350  1.00  0.00     0.052 A 
HETATM    9  C   UNL     1     -39.586 -47.627  12.231  1.00  0.00     0.031 A 
HETATM   10  C   UNL     1     -40.411 -47.103  11.239  1.00  0.00     0.033 A 
HETATM   11  N   UNL     1     -41.025 -47.941  10.378  1.00  0.00    -0.303 N 
HETATM   12  N   UNL     1     -40.893 -49.296  10.502  1.00  0.00    -0.285 N 
ATOM     13  HN  UNL     1     -41.596 -47.559   9.624  1.00  0.00     0.186 HD
ATOM     14  HN  UNL     1     -41.381 -49.909   9.848  1.00  0.00     0.188 HD
BRANCH  10  15
HETATM   15  C   UNL     1     -40.651 -45.611  11.018  1.00  0.00    -0.007 C 
HETATM   16  C   UNL     1     -42.060 -45.408  10.434  1.00  0.00     0.021 C 
HETATM   17  C   UNL     1     -39.616 -44.967  10.076  1.00  0.00     0.021 C 
HETATM   18  C   UNL     1     -40.567 -44.858  12.368  1.00  0.00     0.021 C 
ENDBRANCH  10  15
ENDBRANCH   1   7
BRANCH   4  19
HETATM   19  C   UNL     1     -43.134 -52.233  13.384  1.00  0.00     0.035 C 
HETATM   20  C   UNL     1     -43.764 -53.110  12.287  1.00  0.00     0.039 C 
HETATM   21  C   UNL     1     -44.146 -51.140  13.801  1.00  0.00     0.057 C 
HETATM   22  C   UNL     1     -43.656 -50.393  15.036  1.00  0.00     0.170 C 
HETATM   23  O   UNL     1     -43.502 -51.306  16.120  1.00  0.00    -0.391 OA
HETATM   24  C   UNL     1     -42.492 -52.279  15.854  1.00  0.00     0.170 C 
HETATM   25  C   UNL     1     -42.822 -53.105  14.617  1.00  0.00     0.057 C 
ENDBRANCH   4  19
TORSDOF 3
ENDMDL
MODEL 4
REMARK VINA RESULT:      -6.2      4.721      7.242
REMARK  3 active torsions:
REMARK  status: ('A' for Active; 'I' for Inactive)
REMARK    1  A    between atoms: C_2  and  C_5 
REMARK    2  A    between atoms: C_8  and  N_9 
REMARK       I    between atoms: N_9  and  C_10 
REMARK       I    between atoms: C_10  and  N_12 
REMARK    3  A    between atoms: N_12  and  C_13 
ROOT
HETATM    1  N   UNL     1     -41.196 -47.258  10.167  1.00  0.00    -0.294 N 
HETATM    2  C   UNL     1     -40.986 -46.012  10.696  1.00  0.00     0.322 C 
HETATM    3  O   UNL     1     -40.715 -45.077   9.946  1.00  0.00    -0.247 OA
HETATM    4  N   UNL     1     -41.097 -45.896  12.046  1.00  0.00    -0.334 N 
HETATM    5  H   UNL     1     -41.124 -47.281   9.161  1.00  0.00     0.172 HD
HETATM    6  H   UNL     1     -41.232 -46.782  12.523  1.00  0.00     0.165 HD
ENDROOT
BRANCH   1   7
HETATM    7  C   UNL     1     -41.429 -48.462  10.847  1.00  0.00     0.123 A 
HETATM    8  C   UNL     1     -42.453 -48.546  11.773  1.00  0.00     0.052 A 
HETATM    9  C   UNL     1     -42.653 -49.753  12.455  1.00  0.00     0.031 A 
HETATM   10  C   UNL     1     -41.818 -50.836  12.193  1.00  0.00     0.033 A 
HETATM   11  N   UNL     1     -40.860 -50.719  11.250  1.00  0.00    -0.303 N 
HETATM   12  N   UNL     1     -40.661 -49.538  10.592  1.00  0.00    -0.285 N 
ATOM     13  HN  UNL     1     -40.274 -51.524  11.025  1.00  0.00     0.186 HD
ATOM     14  HN  UNL     1     -39.919 -49.471   9.896  1.00  0.00     0.188 HD
BRANCH  10  15
HETATM   15  C   UNL     1     -41.931 -52.197  12.878  1.00  0.00    -0.007 C 
HETATM   16  C   UNL     1     -41.881 -51.999  14.403  1.00  0.00     0.021 C 
HETATM   17  C   UNL     1     -40.817 -53.177  12.459  1.00  0.00     0.021 C 
HETATM   18  C   UNL     1     -43.281 -52.860  12.513  1.00  0.00     0.021 C 
ENDBRANCH  10  15
ENDBRANCH   1   7
BRANCH   4  19
HETATM   19  C   UNL     1     -40.717 -44.758  12.898  1.00  0.00     0.035 C 
HETATM   20  C   UNL     1     -39.183 -44.704  13.022  1.00  0.00     0.039 C 
HETATM   21  C   UNL     1     -41.328 -45.000  14.298  1.00  0.00     0.057 C 
HETATM   22  C   UNL     1     -42.844 -44.836  14.261  1.00  0.00     0.170 C 
HETATM   23  O   UNL     1     -43.173 -43.513  13.845  1.00  0.00    -0.391 OA
HETATM   24  C   UNL     1     -42.743 -43.255  12.509  1.00  0.00     0.170 C 
HETATM   25  C   UNL     1     -41.234 -43.406  12.367  1.00  0.00     0.057 C 
ENDBRANCH   4  19
TORSDOF 3
ENDMDL
MODEL 5
REMARK VINA RESULT:      -6.2      2.538      4.150
REMARK  3 active torsions:
REMARK  status: ('A' for Active; 'I' for Inactive)
REMARK    1  A    between atoms: C_2  and  C_5 
REMARK    2  A    between atoms: C_8  and  N_9 
REMARK       I    between atoms: N_9  and  C_10 
REMARK       I    between atoms: C_10  and  N_12 
REMARK    3  A    between atoms: N_12  and  C_13 
ROOT
HETATM    1  N   UNL     1     -40.036 -51.671  11.899  1.00  0.00    -0.294 N 
HETATM    2  C   UNL     1     -40.633 -52.596  12.716  1.00  0.00     0.322 C 
HETATM    3  O   UNL     1     -40.216 -53.752  12.723  1.00  0.00    -0.247 OA
HETATM    4  N   UNL     1     -41.667 -52.155  13.479  1.00  0.00    -0.334 N 
HETATM    5  H   UNL     1     -39.260 -52.047  11.374  1.00  0.00     0.172 HD
HETATM    6  H   UNL     1     -41.944 -51.198  13.283  1.00  0.00     0.165 HD
ENDROOT
BRANCH   1   7
HETATM    7  C   UNL     1     -40.408 -50.337  11.680  1.00  0.00     0.123 A 
HETATM    8  C   UNL     1     -40.484 -49.457  12.743  1.00  0.00     0.052 A 
HETATM    9  C   UNL     1     -40.878 -48.135  12.502  1.00  0.00     0.031 A 
HETATM   10  C   UNL     1     -41.189 -47.737  11.204  1.00  0.00     0.033 A 
HETATM   11  N   UNL     1     -41.059 -48.621  10.193  1.00  0.00    -0.303 N 
HETATM   12  N   UNL     1     -40.682 -49.912  10.432  1.00  0.00    -0.285 N 
ATOM     13  HN  UNL     1     -41.244 -48.321   9.236  1.00  0.00     0.186 HD
ATOM     14  HN  UNL     1     -40.607 -50.565   9.652  1.00  0.00     0.188 HD
BRANCH  10  15
HETATM   15  C   UNL     1     -41.639 -46.329  10.819  1.00  0.00    -0.007 C 
HETATM   16  C   UNL     1     -40.416 -45.518  10.356  1.00  0.00     0.021 C 
HETATM   17  C   UNL     1     -42.333 -45.581  11.975  1.00  0.00     0.021 C 
HETATM   18  C   UNL     1     -42.652 -46.401   9.651  1.00  0.00     0.021 C 
ENDBRANCH  10  15
ENDBRANCH   1   7
BRANCH   4  19
HETATM   19  C   UNL     1     -42.622 -52.951  14.269  1.00  0.00     0.035 C 
HETATM   20  C   UNL     1     -41.865 -53.698  15.381  1.00  0.00     0.039 C 
HETATM   21  C   UNL     1     -43.268 -53.983  13.315  1.00  0.00     0.057 C 
HETATM   22  C   UNL     1     -44.211 -53.296  12.333  1.00  0.00     0.170 C 
HETATM   23  O   UNL     1     -45.248 -52.630  13.050  1.00  0.00    -0.391 OA
HETATM   24  C   UNL     1     -44.736 -51.577  13.867  1.00  0.00     0.170 C 
HETATM   25  C   UNL     1     -43.744 -52.100  14.898  1.00  0.00     0.057 C 
ENDBRANCH   4  19
TORSDOF 3
ENDMDL
MODEL 6
REMARK VINA RESULT:      -6.1      3.149      6.660
REMARK  3 active torsions:
REMARK  status: ('A' for Active; 'I' for Inactive)
REMARK    1  A    between atoms: C_2  and  C_5 
REMARK    2  A    between atoms: C_8  and  N_9 
REMARK       I    between atoms: N_9  and  C_10 
REMARK       I    between atoms: C_10  and  N_12 
REMARK    3  A    between atoms: N_12  and  C_13 
ROOT
HETATM    1  N   UNL     1     -40.208 -51.425  11.846  1.00  0.00    -0.294 N 
HETATM    2  C   UNL     1     -39.736 -50.139  11.810  1.00  0.00     0.322 C 
HETATM    3  O   UNL     1     -38.621 -49.919  11.343  1.00  0.00    -0.247 OA
HETATM    4  N   UNL     1     -40.557 -49.175  12.305  1.00  0.00    -0.334 N 
HETATM    5  H   UNL     1     -39.569 -52.095  11.446  1.00  0.00     0.172 HD
HETATM    6  H   UNL     1     -41.400 -49.538  12.738  1.00  0.00     0.165 HD
ENDROOT
BRANCH   1   7
HETATM    7  C   UNL     1     -41.403 -51.896  12.410  1.00  0.00     0.123 A 
HETATM    8  C   UNL     1     -41.599 -51.821  13.777  1.00  0.00     0.052 A 
HETATM    9  C   UNL     1     -42.791 -52.317  14.319  1.00  0.00     0.031 A 
HETATM   10  C   UNL     1     -43.747 -52.878  13.476  1.00  0.00     0.033 A 
HETATM   11  N   UNL     1     -43.529 -52.890  12.144  1.00  0.00    -0.303 N 
HETATM   12  N   UNL     1     -42.362 -52.413  11.619  1.00  0.00    -0.285 N 
ATOM     13  HN  UNL     1     -44.246 -53.262  11.521  1.00  0.00     0.186 HD
ATOM     14  HN  UNL     1     -42.214 -52.450  10.610  1.00  0.00     0.188 HD
BRANCH  10  15
HETATM   15  C   UNL     1     -45.078 -53.460  13.949  1.00  0.00    -0.007 C 
HETATM   16  C   UNL     1     -45.142 -54.948  13.567  1.00  0.00     0.021 C 
HETATM   17  C   UNL     1     -46.299 -52.732  13.354  1.00  0.00     0.021 C 
HETATM   18  C   UNL     1     -45.186 -53.343  15.489  1.00  0.00     0.021 C 
ENDBRANCH  10  15
ENDBRANCH   1   7
BRANCH   4  19
HETATM   19  C   UNL     1     -40.239 -47.767  12.596  1.00  0.00     0.035 C 
HETATM   20  C   UNL     1     -38.961 -47.700  13.451  1.00  0.00     0.039 C 
HETATM   21  C   UNL     1     -41.420 -47.181  13.405  1.00  0.00     0.057 C 
HETATM   22  C   UNL     1     -42.653 -47.019  12.521  1.00  0.00     0.170 C 
HETATM   23  O   UNL     1     -42.357 -46.135  11.443  1.00  0.00    -0.391 OA
HETATM   24  C   UNL     1     -41.354 -46.667  10.580  1.00  0.00     0.170 C 
HETATM   25  C   UNL     1     -40.048 -46.916  11.325  1.00  0.00     0.057 C 
ENDBRANCH   4  19
TORSDOF 3
ENDMDL
MODEL 7
REMARK VINA RESULT:      -6.0      2.694      6.825
REMARK  3 active torsions:
REMARK  status: ('A' for Active; 'I' for Inactive)
REMARK    1  A    between atoms: C_2  and  C_5 
REMARK    2  A    between atoms: C_8  and  N_9 
REMARK       I    between atoms: N_9  and  C_10 
REMARK       I    between atoms: C_10  and  N_12 
REMARK    3  A    between atoms: N_12  and  C_13 
ROOT
HETATM    1  N   UNL     1     -40.814 -53.994  13.578  1.00  0.00    -0.294 N 
HETATM    2  C   UNL     1     -39.675 -53.238  13.665  1.00  0.00     0.322 C 
HETATM    3  O   UNL     1     -38.579 -53.795  13.638  1.00  0.00    -0.247 OA
HETATM    4  N   UNL     1     -39.843 -51.894  13.776  1.00  0.00    -0.334 N 
HETATM    5  H   UNL     1     -40.630 -54.981  13.474  1.00  0.00     0.172 HD
HETATM    6  H   UNL     1     -40.811 -51.609  13.879  1.00  0.00     0.165 HD
ENDROOT
BRANCH   1   7
HETATM    7  C   UNL     1     -42.148 -53.570  13.676  1.00  0.00     0.123 A 
HETATM    8  C   UNL     1     -42.843 -53.208  12.536  1.00  0.00     0.052 A 
HETATM    9  C   UNL     1     -44.166 -52.768  12.661  1.00  0.00     0.031 A 
HETATM   10  C   UNL     1     -44.751 -52.698  13.923  1.00  0.00     0.033 A 
HETATM   11  N   UNL     1     -44.046 -53.102  15.001  1.00  0.00    -0.303 N 
HETATM   12  N   UNL     1     -42.753 -53.523  14.877  1.00  0.00    -0.285 N 
ATOM     13  HN  UNL     1     -44.486 -53.092  15.921  1.00  0.00     0.186 HD
ATOM     14  HN  UNL     1     -42.236 -53.808  15.710  1.00  0.00     0.188 HD
BRANCH  10  15
HETATM   15  C   UNL     1     -46.179 -52.226  14.186  1.00  0.00    -0.007 C 
HETATM   16  C   UNL     1     -46.744 -51.589  12.904  1.00  0.00     0.021 C 
HETATM   17  C   UNL     1     -46.274 -51.208  15.340  1.00  0.00     0.021 C 
HETATM   18  C   UNL     1     -47.071 -53.431  14.570  1.00  0.00     0.021 C 
ENDBRANCH  10  15
ENDBRANCH   1   7
BRANCH   4  19
HETATM   19  C   UNL     1     -38.834 -50.873  14.103  1.00  0.00     0.035 C 
HETATM   20  C   UNL     1     -38.390 -51.046  15.567  1.00  0.00     0.039 C 
HETATM   21  C   UNL     1     -39.503 -49.488  13.938  1.00  0.00     0.057 C 
HETATM   22  C   UNL     1     -39.754 -49.181  12.466  1.00  0.00     0.170 C 
HETATM   23  O   UNL     1     -38.516 -49.174  11.760  1.00  0.00    -0.391 OA
HETATM   24  C   UNL     1     -37.893 -50.458  11.766  1.00  0.00     0.170 C 
HETATM   25  C   UNL     1     -37.597 -50.929  13.185  1.00  0.00     0.057 C 
ENDBRANCH   4  19
TORSDOF 3
ENDMDL
MODEL 8
REMARK VINA RESULT:      -5.9      3.929      7.365
REMARK  3 active torsions:
REMARK  status: ('A' for Active; 'I' for Inactive)
REMARK    1  A    between atoms: C_2  and  C_5 
REMARK    2  A    between atoms: C_8  and  N_9 
REMARK       I    between atoms: N_9  and  C_10 
REMARK       I    between atoms: C_10  and  N_12 
REMARK    3  A    between atoms: N_12  and  C_13 
ROOT
HETATM    1  N   UNL     1     -40.723 -49.731  13.377  1.00  0.00    -0.294 N 
HETATM    2  C   UNL     1     -40.324 -48.438  13.160  1.00  0.00     0.322 C 
HETATM    3  O   UNL     1     -39.127 -48.163  13.192  1.00  0.00    -0.247 OA
HETATM    4  N   UNL     1     -41.307 -47.530  12.919  1.00  0.00    -0.334 N 
HETATM    5  H   UNL     1     -39.952 -50.365  13.528  1.00  0.00     0.172 HD
HETATM    6  H   UNL     1     -42.245 -47.904  13.022  1.00  0.00     0.165 HD
ENDROOT
BRANCH   1   7
HETATM    7  C   UNL     1     -42.029 -50.233  13.469  1.00  0.00     0.123 A 
HETATM    8  C   UNL     1     -42.784 -49.992  14.601  1.00  0.00     0.052 A 
HETATM    9  C   UNL     1     -44.078 -50.521  14.679  1.00  0.00     0.031 A 
HETATM   10  C   UNL     1     -44.574 -51.281  13.622  1.00  0.00     0.033 A 
HETATM   11  N   UNL     1     -43.815 -51.454  12.519  1.00  0.00    -0.303 N 
HETATM   12  N   UNL     1     -42.550 -50.943  12.450  1.00  0.00    -0.285 N 
ATOM     13  HN  UNL     1     -44.191 -51.973  11.726  1.00  0.00     0.186 HD
ATOM     14  HN  UNL     1     -41.990 -51.102  11.612  1.00  0.00     0.188 HD
BRANCH  10  15
HETATM   15  C   UNL     1     -45.962 -51.917  13.594  1.00  0.00    -0.007 C 
HETATM   16  C   UNL     1     -46.792 -51.368  14.767  1.00  0.00     0.021 C 
HETATM   17  C   UNL     1     -45.921 -53.456  13.681  1.00  0.00     0.021 C 
HETATM   18  C   UNL     1     -46.681 -51.555  12.273  1.00  0.00     0.021 C 
ENDBRANCH  10  15
ENDBRANCH   1   7
BRANCH   4  19
HETATM   19  C   UNL     1     -41.201 -46.062  12.872  1.00  0.00     0.035 C 
HETATM   20  C   UNL     1     -41.102 -45.513  14.306  1.00  0.00     0.039 C 
HETATM   21  C   UNL     1     -42.493 -45.524  12.212  1.00  0.00     0.057 C 
HETATM   22  C   UNL     1     -42.519 -45.856  10.724  1.00  0.00     0.170 C 
HETATM   23  O   UNL     1     -41.397 -45.259  10.080  1.00  0.00    -0.391 OA
HETATM   24  C   UNL     1     -40.163 -45.797  10.555  1.00  0.00     0.170 C 
HETATM   25  C   UNL     1     -39.993 -45.569  12.051  1.00  0.00     0.057 C 
ENDBRANCH   4  19
TORSDOF 3
ENDMDL
MODEL 9
REMARK VINA RESULT:      -5.9      2.981      6.759
REMARK  3 active torsions:
REMARK  status: ('A' for Active; 'I' for Inactive)
REMARK    1  A    between atoms: C_2  and  C_5 
REMARK    2  A    between atoms: C_8  and  N_9 
REMARK       I    between atoms: N_9  and  C_10 
REMARK       I    between atoms: C_10  and  N_12 
REMARK    3  A    between atoms: N_12  and  C_13 
ROOT
HETATM    1  N   UNL     1     -42.049 -49.890  11.712  1.00  0.00    -0.294 N 
HETATM    2  C   UNL     1     -40.757 -49.435  11.759  1.00  0.00     0.322 C 
HETATM    3  O   UNL     1     -40.399 -48.555  10.980  1.00  0.00    -0.247 OA
HETATM    4  N   UNL     1     -39.946 -50.004  12.689  1.00  0.00    -0.334 N 
HETATM    5  H   UNL     1     -42.612 -49.417  11.020  1.00  0.00     0.172 HD
HETATM    6  H   UNL     1     -40.373 -50.780  13.186  1.00  0.00     0.165 HD
ENDROOT
BRANCH   1   7
HETATM    7  C   UNL     1     -42.630 -50.935  12.445  1.00  0.00     0.123 A 
HETATM    8  C   UNL     1     -43.291 -50.665  13.629  1.00  0.00     0.052 A 
HETATM    9  C   UNL     1     -43.845 -51.727  14.354  1.00  0.00     0.031 A 
HETATM   10  C   UNL     1     -43.715 -53.028  13.873  1.00  0.00     0.033 A 
HETATM   11  N   UNL     1     -43.098 -53.237  12.692  1.00  0.00    -0.303 N 
HETATM   12  N   UNL     1     -42.551 -52.200  11.991  1.00  0.00    -0.285 N 
ATOM     13  HN  UNL     1     -43.038 -54.184  12.316  1.00  0.00     0.186 HD
ATOM     14  HN  UNL     1     -42.075 -52.387  11.108  1.00  0.00     0.188 HD
BRANCH  10  15
HETATM   15  C   UNL     1     -44.266 -54.265  14.578  1.00  0.00    -0.007 C 
HETATM   16  C   UNL     1     -45.233 -54.996  13.631  1.00  0.00     0.021 C 
HETATM   17  C   UNL     1     -44.999 -53.934  15.893  1.00  0.00     0.021 C 
HETATM   18  C   UNL     1     -43.107 -55.228  14.935  1.00  0.00     0.021 C 
ENDBRANCH  10  15
ENDBRANCH   1   7
BRANCH   4  19
HETATM   19  C   UNL     1     -38.485 -49.880  12.824  1.00  0.00     0.035 C 
HETATM   20  C   UNL     1     -37.834 -50.004  11.434  1.00  0.00     0.039 C 
HETATM   21  C   UNL     1     -37.999 -51.047  13.715  1.00  0.00     0.057 C 
HETATM   22  C   UNL     1     -38.437 -50.841  15.161  1.00  0.00     0.170 C 
HETATM   23  O   UNL     1     -37.884 -49.627  15.662  1.00  0.00    -0.391 OA
HETATM   24  C   UNL     1     -38.383 -48.488  14.961  1.00  0.00     0.170 C 
HETATM   25  C   UNL     1     -38.048 -48.553  13.476  1.00  0.00     0.057 C 
ENDBRANCH   4  19
TORSDOF 3
ENDMDL
