MODEL 1
REMARK VINA RESULT:      -5.2      0.000      0.000
REMARK  2 active torsions:
REMARK  status: ('A' for Active; 'I' for Inactive)
REMARK    1  A    between atoms: C_6  and  N_8 
REMARK    2  A    between atoms: C_14  and  C_15 
ROOT
HETATM    1  N   UNL     3     -42.548 -51.394  12.799  1.00  0.00    -0.326 N 
HETATM    2  C   UNL     3     -42.360 -52.596  12.203  1.00  0.00     0.201 A 
HETATM    3  N   UNL     3     -41.389 -52.536  11.277  1.00  0.00    -0.295 N 
ATOM      4  HN  UNL     3     -41.059 -53.305  10.694  1.00  0.00     0.187 HD
HETATM    5  N   UNL     3     -40.939 -51.293  11.265  1.00  0.00    -0.287 N 
ATOM      6  HN  UNL     3     -40.195 -50.929  10.672  1.00  0.00     0.188 HD
HETATM    7  C   UNL     3     -41.642 -50.592  12.178  1.00  0.00     0.105 A 
ENDROOT
BRANCH   7   8
HETATM    8  C   UNL     3     -41.389 -49.117  12.453  1.00  0.00     0.083 C 
HETATM    9  C   UNL     3     -42.668 -48.269  12.625  1.00  0.00     0.016 C 
HETATM   10  C   UNL     3     -43.449 -48.136  11.312  1.00  0.00     0.031 C 
HETATM   11  C   UNL     3     -42.521 -47.613  10.206  1.00  0.00     0.269 C 
HETATM   12  N   UNL     3     -41.345 -48.488  10.060  1.00  0.00     0.084 N 
HETATM   13  C   UNL     3     -40.556 -48.520  11.301  1.00  0.00     0.281 C 
HETATM   14  H   UNL     3     -40.746 -48.113   9.287  1.00  0.00     0.315 HD
ENDBRANCH   7   8
BRANCH   1  15
HETATM   15  C   UNL     3     -43.534 -51.074  13.860  1.00  0.00     0.084 C 
HETATM   16  C   UNL     3     -44.987 -51.204  13.357  1.00  0.00     0.032 C 
HETATM   17  C   UNL     3     -43.384 -51.993  15.086  1.00  0.00     0.032 C 
ENDBRANCH   1  15
TORSDOF 2
ENDMDL
MODEL 2
REMARK VINA RESULT:      -5.0      1.720      2.466
REMARK  2 active torsions:
REMARK  status: ('A' for Active; 'I' for Inactive)
REMARK    1  A    between atoms: C_6  and  N_8 
REMARK    2  A    between atoms: C_14  and  C_15 
ROOT
HETATM    1  N   UNL     3     -41.913 -49.583  12.120  1.00  0.00    -0.326 N 
HETATM    2  C   UNL     3     -40.931 -50.335  11.568  1.00  0.00     0.201 A 
HETATM    3  N   UNL     3     -40.567 -49.858  10.366  1.00  0.00    -0.295 N 
ATOM      4  HN  UNL     3     -39.849 -50.245   9.753  1.00  0.00     0.187 HD
HETATM    5  N   UNL     3     -41.313 -48.794  10.128  1.00  0.00    -0.287 N 
ATOM      6  HN  UNL     3     -41.272 -48.205   9.296  1.00  0.00     0.188 HD
HETATM    7  C   UNL     3     -42.138 -48.625  11.181  1.00  0.00     0.105 A 
ENDROOT
BRANCH   7   8
HETATM    8  C   UNL     3     -43.139 -47.481  11.264  1.00  0.00     0.083 C 
HETATM    9  C   UNL     3     -44.393 -47.664  10.382  1.00  0.00     0.016 C 
HETATM   10  C   UNL     3     -44.060 -47.580   8.887  1.00  0.00     0.031 C 
HETATM   11  C   UNL     3     -43.299 -46.278   8.597  1.00  0.00     0.269 C 
HETATM   12  N   UNL     3     -42.091 -46.185   9.435  1.00  0.00     0.084 N 
HETATM   13  C   UNL     3     -42.443 -46.165  10.864  1.00  0.00     0.281 C 
HETATM   14  H   UNL     3     -41.589 -45.297   9.198  1.00  0.00     0.315 HD
ENDBRANCH   7   8
BRANCH   1  15
HETATM   15  C   UNL     3     -42.571 -49.804  13.431  1.00  0.00     0.084 C 
HETATM   16  C   UNL     3     -43.941 -50.497  13.280  1.00  0.00     0.032 C 
HETATM   17  C   UNL     3     -41.714 -50.673  14.369  1.00  0.00     0.032 C 
ENDBRANCH   1  15
TORSDOF 2
ENDMDL
MODEL 3
REMARK VINA RESULT:      -5.0      3.262      4.698
REMARK  2 active torsions:
REMARK  status: ('A' for Active; 'I' for Inactive)
REMARK    1  A    between atoms: C_6  and  N_8 
REMARK    2  A    between atoms: C_14  and  C_15 
ROOT
HETATM    1  N   UNL     3     -41.239 -53.330  13.323  1.00  0.00    -0.326 N 
HETATM    2  C   UNL     3     -40.627 -52.799  12.238  1.00  0.00     0.201 A 
HETATM    3  N   UNL     3     -41.517 -52.459  11.292  1.00  0.00    -0.295 N 
ATOM      4  HN  UNL     3     -41.307 -52.041  10.385  1.00  0.00     0.187 HD
HETATM    5  N   UNL     3     -42.715 -52.769  11.755  1.00  0.00    -0.287 N 
ATOM      6  HN  UNL     3     -43.601 -52.628  11.272  1.00  0.00     0.188 HD
HETATM    7  C   UNL     3     -42.556 -53.305  12.982  1.00  0.00     0.105 A 
ENDROOT
BRANCH   7   8
HETATM    8  C   UNL     3     -43.729 -53.771  13.833  1.00  0.00     0.083 C 
HETATM    9  C   UNL     3     -45.051 -53.950  13.055  1.00  0.00     0.016 C 
HETATM   10  C   UNL     3     -45.621 -52.609  12.578  1.00  0.00     0.031 C 
HETATM   11  C   UNL     3     -45.743 -51.644  13.766  1.00  0.00     0.269 C 
HETATM   12  N   UNL     3     -44.442 -51.480  14.437  1.00  0.00     0.084 N 
HETATM   13  C   UNL     3     -43.962 -52.763  14.975  1.00  0.00     0.281 C 
HETATM   14  H   UNL     3     -44.557 -50.803  15.227  1.00  0.00     0.315 HD
ENDBRANCH   7   8
BRANCH   1  15
HETATM   15  C   UNL     3     -40.585 -53.825  14.560  1.00  0.00     0.084 C 
HETATM   16  C   UNL     3     -39.283 -54.595  14.255  1.00  0.00     0.032 C 
HETATM   17  C   UNL     3     -40.231 -52.680  15.525  1.00  0.00     0.032 C 
ENDBRANCH   1  15
TORSDOF 2
ENDMDL
MODEL 4
REMARK VINA RESULT:      -4.8      2.606      3.245
REMARK  2 active torsions:
REMARK  status: ('A' for Active; 'I' for Inactive)
REMARK    1  A    between atoms: C_6  and  N_8 
REMARK    2  A    between atoms: C_14  and  C_15 
ROOT
HETATM    1  N   UNL     3     -40.155 -52.510  13.138  1.00  0.00    -0.326 N 
HETATM    2  C   UNL     3     -41.129 -53.035  12.358  1.00  0.00     0.201 A 
HETATM    3  N   UNL     3     -41.336 -52.284  11.263  1.00  0.00    -0.295 N 
ATOM      4  HN  UNL     3     -42.013 -52.467  10.522  1.00  0.00     0.187 HD
HETATM    5  N   UNL     3     -40.497 -51.265  11.327  1.00  0.00    -0.287 N 
ATOM      6  HN  UNL     3     -40.406 -50.518  10.639  1.00  0.00     0.188 HD
HETATM    7  C   UNL     3     -39.783 -51.389  12.464  1.00  0.00     0.105 A 
ENDROOT
BRANCH   7   8
HETATM    8  C   UNL     3     -38.703 -50.396  12.868  1.00  0.00     0.083 C 
HETATM    9  C   UNL     3     -39.100 -49.454  14.025  1.00  0.00     0.016 C 
HETATM   10  C   UNL     3     -40.191 -48.461  13.608  1.00  0.00     0.031 C 
HETATM   11  C   UNL     3     -39.756 -47.713  12.341  1.00  0.00     0.269 C 
HETATM   12  N   UNL     3     -39.436 -48.662  11.261  1.00  0.00     0.084 N 
HETATM   13  C   UNL     3     -38.318 -49.538  11.646  1.00  0.00     0.281 C 
HETATM   14  H   UNL     3     -39.162 -48.118  10.409  1.00  0.00     0.315 HD
ENDBRANCH   7   8
BRANCH   1  15
HETATM   15  C   UNL     3     -39.658 -53.056  14.426  1.00  0.00     0.084 C 
HETATM   16  C   UNL     3     -40.719 -52.959  15.541  1.00  0.00     0.032 C 
HETATM   17  C   UNL     3     -39.244 -54.534  14.307  1.00  0.00     0.032 C 
ENDBRANCH   1  15
TORSDOF 2
ENDMDL
MODEL 5
REMARK VINA RESULT:      -4.7      2.891      5.085
REMARK  2 active torsions:
REMARK  status: ('A' for Active; 'I' for Inactive)
REMARK    1  A    between atoms: C_6  and  N_8 
REMARK    2  A    between atoms: C_14  and  C_15 
ROOT
HETATM    1  N   UNL     3     -38.477 -49.681  12.981  1.00  0.00    -0.326 N 
HETATM    2  C   UNL     3     -37.687 -49.460  11.903  1.00  0.00     0.201 A 
HETATM    3  N   UNL     3     -38.260 -49.913  10.776  1.00  0.00    -0.295 N 
ATOM      4  HN  UNL     3     -37.868 -49.865   9.835  1.00  0.00     0.187 HD
HETATM    5  N   UNL     3     -39.426 -50.434  11.115  1.00  0.00    -0.287 N 
ATOM      6  HN  UNL     3     -40.102 -50.858  10.480  1.00  0.00     0.188 HD
HETATM    7  C   UNL     3     -39.562 -50.306  12.450  1.00  0.00     0.105 A 
ENDROOT
BRANCH   7   8
HETATM    8  C   UNL     3     -40.798 -50.785  13.199  1.00  0.00     0.083 C 
HETATM    9  C   UNL     3     -40.523 -51.880  14.252  1.00  0.00     0.016 C 
HETATM   10  C   UNL     3     -40.108 -53.207  13.604  1.00  0.00     0.031 C 
HETATM   11  C   UNL     3     -41.151 -53.622  12.557  1.00  0.00     0.269 C 
HETATM   12  N   UNL     3     -41.334 -52.556  11.557  1.00  0.00     0.084 N 
HETATM   13  C   UNL     3     -41.829 -51.322  12.188  1.00  0.00     0.281 C 
HETATM   14  H   UNL     3     -42.036 -52.880  10.850  1.00  0.00     0.315 HD
ENDBRANCH   7   8
BRANCH   1  15
HETATM   15  C   UNL     3     -38.177 -49.325  14.390  1.00  0.00     0.084 C 
HETATM   16  C   UNL     3     -37.109 -50.254  15.005  1.00  0.00     0.032 C 
HETATM   17  C   UNL     3     -37.667 -47.879  14.525  1.00  0.00     0.032 C 
ENDBRANCH   1  15
TORSDOF 2
ENDMDL
MODEL 6
REMARK VINA RESULT:      -4.7      2.748      3.446
REMARK  2 active torsions:
REMARK  status: ('A' for Active; 'I' for Inactive)
REMARK    1  A    between atoms: C_6  and  N_8 
REMARK    2  A    between atoms: C_14  and  C_15 
ROOT
HETATM    1  N   UNL     3     -40.072 -49.085  12.412  1.00  0.00    -0.326 N 
HETATM    2  C   UNL     3     -39.646 -50.091  11.612  1.00  0.00     0.201 A 
HETATM    3  N   UNL     3     -40.270 -50.069  10.423  1.00  0.00    -0.295 N 
ATOM      4  HN  UNL     3     -40.124 -50.718   9.650  1.00  0.00     0.187 HD
HETATM    5  N   UNL     3     -41.109 -49.047  10.443  1.00  0.00    -0.287 N 
ATOM      6  HN  UNL     3     -41.726 -48.762   9.684  1.00  0.00     0.188 HD
HETATM    7  C   UNL     3     -41.002 -48.451  11.648  1.00  0.00     0.105 A 
ENDROOT
BRANCH   7   8
HETATM    8  C   UNL     3     -41.814 -47.221  12.029  1.00  0.00     0.083 C 
HETATM    9  C   UNL     3     -43.324 -47.334  11.730  1.00  0.00     0.016 C 
HETATM   10  C   UNL     3     -43.610 -47.349  10.223  1.00  0.00     0.031 C 
HETATM   11  C   UNL     3     -42.949 -46.134   9.556  1.00  0.00     0.269 C 
HETATM   12  N   UNL     3     -41.504 -46.108   9.841  1.00  0.00     0.084 N 
HETATM   13  C   UNL     3     -41.255 -45.991  11.287  1.00  0.00     0.281 C 
HETATM   14  H   UNL     3     -41.084 -45.280   9.357  1.00  0.00     0.315 HD
ENDBRANCH   7   8
BRANCH   1  15
HETATM   15  C   UNL     3     -39.618 -48.795  13.794  1.00  0.00     0.084 C 
HETATM   16  C   UNL     3     -39.374 -50.086  14.604  1.00  0.00     0.032 C 
HETATM   17  C   UNL     3     -38.311 -47.982  13.815  1.00  0.00     0.032 C 
ENDBRANCH   1  15
TORSDOF 2
ENDMDL
MODEL 7
REMARK VINA RESULT:      -4.6      1.804      2.178
REMARK  2 active torsions:
REMARK  status: ('A' for Active; 'I' for Inactive)
REMARK    1  A    between atoms: C_6  and  N_8 
REMARK    2  A    between atoms: C_14  and  C_15 
ROOT
HETATM    1  N   UNL     3     -40.719 -52.346  13.460  1.00  0.00    -0.326 N 
HETATM    2  C   UNL     3     -40.917 -53.456  12.709  1.00  0.00     0.201 A 
HETATM    3  N   UNL     3     -40.964 -53.158  11.400  1.00  0.00    -0.295 N 
ATOM      4  HN  UNL     3     -41.101 -53.817  10.634  1.00  0.00     0.187 HD
HETATM    5  N   UNL     3     -40.799 -51.852  11.292  1.00  0.00    -0.287 N 
ATOM      6  HN  UNL     3     -40.782 -51.318  10.423  1.00  0.00     0.188 HD
HETATM    7  C   UNL     3     -40.659 -51.350  12.536  1.00  0.00     0.105 A 
ENDROOT
BRANCH   7   8
HETATM    8  C   UNL     3     -40.435 -49.868  12.803  1.00  0.00     0.083 C 
HETATM    9  C   UNL     3     -41.682 -49.115  13.312  1.00  0.00     0.016 C 
HETATM   10  C   UNL     3     -42.765 -49.000  12.232  1.00  0.00     0.031 C 
HETATM   11  C   UNL     3     -42.165 -48.388  10.958  1.00  0.00     0.269 C 
HETATM   12  N   UNL     3     -41.010 -49.176  10.497  1.00  0.00     0.084 N 
HETATM   13  C   UNL     3     -39.942 -49.187  11.511  1.00  0.00     0.281 C 
HETATM   14  H   UNL     3     -40.639 -48.742   9.620  1.00  0.00     0.315 HD
ENDBRANCH   7   8
BRANCH   1  15
HETATM   15  C   UNL     3     -40.619 -52.280  14.939  1.00  0.00     0.084 C 
HETATM   16  C   UNL     3     -41.792 -53.006  15.630  1.00  0.00     0.032 C 
HETATM   17  C   UNL     3     -39.314 -52.910  15.459  1.00  0.00     0.032 C 
ENDBRANCH   1  15
TORSDOF 2
ENDMDL
MODEL 8
REMARK VINA RESULT:      -4.6      2.352      5.151
REMARK  2 active torsions:
REMARK  status: ('A' for Active; 'I' for Inactive)
REMARK    1  A    between atoms: C_6  and  N_8 
REMARK    2  A    between atoms: C_14  and  C_15 
ROOT
HETATM    1  N   UNL     3     -39.652 -50.650  12.062  1.00  0.00    -0.326 N 
HETATM    2  C   UNL     3     -40.384 -49.736  11.381  1.00  0.00     0.201 A 
HETATM    3  N   UNL     3     -41.668 -50.116  11.278  1.00  0.00    -0.295 N 
ATOM      4  HN  UNL     3     -42.417 -49.602  10.814  1.00  0.00     0.187 HD
HETATM    5  N   UNL     3     -41.779 -51.282  11.889  1.00  0.00    -0.287 N 
ATOM      6  HN  UNL     3     -42.632 -51.831  11.987  1.00  0.00     0.188 HD
HETATM    7  C   UNL     3     -40.560 -51.618  12.360  1.00  0.00     0.105 A 
ENDROOT
BRANCH   7   8
HETATM    8  C   UNL     3     -40.306 -52.901  13.138  1.00  0.00     0.083 C 
HETATM    9  C   UNL     3     -41.356 -54.008  12.906  1.00  0.00     0.016 C 
HETATM   10  C   UNL     3     -42.721 -53.638  13.500  1.00  0.00     0.031 C 
HETATM   11  C   UNL     3     -42.558 -53.257  14.978  1.00  0.00     0.269 C 
HETATM   12  N   UNL     3     -41.579 -52.167  15.129  1.00  0.00     0.084 N 
HETATM   13  C   UNL     3     -40.252 -52.581  14.645  1.00  0.00     0.281 C 
HETATM   14  H   UNL     3     -41.507 -51.922  16.144  1.00  0.00     0.315 HD
ENDBRANCH   7   8
BRANCH   1  15
HETATM   15  C   UNL     3     -38.202 -50.577  12.369  1.00  0.00     0.084 C 
HETATM   16  C   UNL     3     -37.395 -49.978  11.198  1.00  0.00     0.032 C 
HETATM   17  C   UNL     3     -37.916 -49.721  13.615  1.00  0.00     0.032 C 
ENDBRANCH   1  15
TORSDOF 2
ENDMDL
MODEL 9
REMARK VINA RESULT:      -4.5      1.650      2.738
REMARK  2 active torsions:
REMARK  status: ('A' for Active; 'I' for Inactive)
REMARK    1  A    between atoms: C_6  and  N_8 
REMARK    2  A    between atoms: C_14  and  C_15 
ROOT
HETATM    1  N   UNL     3     -42.316 -51.300  12.814  1.00  0.00    -0.326 N 
HETATM    2  C   UNL     3     -42.313 -52.471  12.134  1.00  0.00     0.201 A 
HETATM    3  N   UNL     3     -41.315 -52.513  11.236  1.00  0.00    -0.295 N 
ATOM      4  HN  UNL     3     -41.100 -53.284  10.604  1.00  0.00     0.187 HD
HETATM    5  N   UNL     3     -40.665 -51.366  11.324  1.00  0.00    -0.287 N 
ATOM      6  HN  UNL     3     -39.851 -51.092  10.775  1.00  0.00     0.188 HD
HETATM    7  C   UNL     3     -41.270 -50.621  12.272  1.00  0.00     0.105 A 
ENDROOT
BRANCH   7   8
HETATM    8  C   UNL     3     -40.783 -49.232  12.659  1.00  0.00     0.083 C 
HETATM    9  C   UNL     3     -39.725 -48.637  11.705  1.00  0.00     0.016 C 
HETATM   10  C   UNL     3     -38.390 -49.388  11.788  1.00  0.00     0.031 C 
HETATM   11  C   UNL     3     -37.921 -49.454  13.248  1.00  0.00     0.269 C 
HETATM   12  N   UNL     3     -38.953 -50.072  14.098  1.00  0.00     0.084 N 
HETATM   13  C   UNL     3     -40.192 -49.278  14.082  1.00  0.00     0.281 C 
HETATM   14  H   UNL     3     -38.592 -50.118  15.080  1.00  0.00     0.315 HD
ENDBRANCH   7   8
BRANCH   1  15
HETATM   15  C   UNL     3     -43.269 -50.891  13.875  1.00  0.00     0.084 C 
HETATM   16  C   UNL     3     -44.736 -51.109  13.449  1.00  0.00     0.032 C 
HETATM   17  C   UNL     3     -43.046 -51.671  15.184  1.00  0.00     0.032 C 
ENDBRANCH   1  15
TORSDOF 2
ENDMDL
