MODEL 1
REMARK VINA RESULT:      -6.5      0.000      0.000
REMARK  7 active torsions:
REMARK  status: ('A' for Active; 'I' for Inactive)
REMARK    1  A    between atoms: O_2  and  C_3 
REMARK    2  A    between atoms: C_3  and  C_4 
REMARK    3  A    between atoms: C_4  and  N_5 
REMARK    4  A    between atoms: C_6  and  S_7 
REMARK    5  A    between atoms: S_7  and  C_8 
REMARK    6  A    between atoms: C_8  and  C_9 
REMARK       I    between atoms: C_9  and  N_11 
REMARK    7  A    between atoms: N_11  and  C_12 
ROOT
HETATM    1  N   UNL     1     -41.693 -47.295  11.067  1.00  0.00    -0.324 N 
HETATM    2  C   UNL     1     -42.120 -48.426  11.720  1.00  0.00     0.148 A 
HETATM    3  N   UNL     1     -43.367 -48.719  11.438  1.00  0.00    -0.335 N 
ATOM      4  HN  UNL     1     -43.917 -49.499  11.798  1.00  0.00     0.168 HD
HETATM    5  C   UNL     1     -43.776 -47.747  10.551  1.00  0.00     0.061 A 
HETATM    6  C   UNL     1     -45.013 -47.576   9.911  1.00  0.00     0.032 A 
HETATM    7  C   UNL     1     -45.185 -46.491   9.039  1.00  0.00     0.002 A 
HETATM    8  C   UNL     1     -44.145 -45.594   8.804  1.00  0.00     0.002 A 
HETATM    9  C   UNL     1     -42.902 -45.753   9.423  1.00  0.00     0.032 A 
HETATM   10  C   UNL     1     -42.751 -46.839  10.299  1.00  0.00     0.063 A 
ENDROOT
BRANCH   2  11
HETATM   11  S   UNL     1     -41.122 -49.327  12.821  1.00  0.00    -0.084 SA
BRANCH  11  12
HETATM   12  C   UNL     1     -40.597 -50.736  11.779  1.00  0.00     0.185 C 
BRANCH  12  13
HETATM   13  C   UNL     1     -41.364 -52.019  12.122  1.00  0.00     0.233 C 
HETATM   14  O   UNL     1     -40.782 -53.102  12.119  1.00  0.00    -0.272 OA
HETATM   15  N   UNL     1     -42.719 -51.824  12.339  1.00  0.00    -0.311 N 
HETATM   16  H   UNL     1     -43.060 -50.874  12.335  1.00  0.00     0.170 HD
BRANCH  15  17
HETATM   17  C   UNL     1     -43.625 -52.806  12.690  1.00  0.00     0.130 A 
HETATM   18  C   UNL     1     -44.520 -52.683  13.785  1.00  0.00     0.084 A 
HETATM   19  C   UNL     1     -45.205 -53.870  13.815  1.00  0.00     0.076 A 
HETATM   20  C   UNL     1     -46.245 -54.446  14.686  1.00  0.00     0.079 C 
HETATM   21  O   UNL     1     -44.774 -54.653  12.791  1.00  0.00    -0.241 OA
HETATM   22  N   UNL     1     -43.789 -53.988  12.089  1.00  0.00    -0.245 N 
ATOM     23  HN  UNL     1     -43.285 -54.331  11.271  1.00  0.00     0.196 HD
ENDBRANCH  15  17
ENDBRANCH  12  13
ENDBRANCH  11  12
ENDBRANCH   2  11
BRANCH   1  24
HETATM   24  C   UNL     1     -40.375 -46.697  11.060  1.00  0.00     0.157 C 
BRANCH  24  25
HETATM   25  C   UNL     1     -40.218 -45.532  12.035  1.00  0.00     0.187 C 
BRANCH  25  26
HETATM   26  O   UNL     1     -39.623 -44.432  11.339  1.00  0.00    -0.394 OA
HETATM   27  C   UNL     1     -39.397 -44.739   9.968  1.00  0.00     0.201 C 
ENDBRANCH  25  26
ENDBRANCH  24  25
ENDBRANCH   1  24
TORSDOF 7
ENDMDL
MODEL 2
REMARK VINA RESULT:      -6.3      2.255      3.428
REMARK  7 active torsions:
REMARK  status: ('A' for Active; 'I' for Inactive)
REMARK    1  A    between atoms: O_2  and  C_3 
REMARK    2  A    between atoms: C_3  and  C_4 
REMARK    3  A    between atoms: C_4  and  N_5 
REMARK    4  A    between atoms: C_6  and  S_7 
REMARK    5  A    between atoms: S_7  and  C_8 
REMARK    6  A    between atoms: C_8  and  C_9 
REMARK       I    between atoms: C_9  and  N_11 
REMARK    7  A    between atoms: N_11  and  C_12 
ROOT
HETATM    1  N   UNL     1     -40.079 -49.084  11.976  1.00  0.00    -0.324 N 
HETATM    2  C   UNL     1     -41.040 -50.066  11.993  1.00  0.00     0.148 A 
HETATM    3  N   UNL     1     -42.168 -49.663  11.460  1.00  0.00    -0.335 N 
ATOM      4  HN  UNL     1     -43.032 -50.197  11.361  1.00  0.00     0.168 HD
HETATM    5  C   UNL     1     -41.938 -48.364  11.062  1.00  0.00     0.061 A 
HETATM    6  C   UNL     1     -42.793 -47.454  10.421  1.00  0.00     0.032 A 
HETATM    7  C   UNL     1     -42.317 -46.171  10.116  1.00  0.00     0.002 A 
HETATM    8  C   UNL     1     -41.013 -45.799  10.438  1.00  0.00     0.002 A 
HETATM    9  C   UNL     1     -40.143 -46.694  11.066  1.00  0.00     0.032 A 
HETATM   10  C   UNL     1     -40.639 -47.971  11.372  1.00  0.00     0.063 A 
ENDROOT
BRANCH   2  11
HETATM   11  S   UNL     1     -40.784 -51.639  12.684  1.00  0.00    -0.084 SA
BRANCH  11  12
HETATM   12  C   UNL     1     -42.079 -52.626  11.851  1.00  0.00     0.185 C 
BRANCH  12  13
HETATM   13  C   UNL     1     -43.197 -53.037  12.816  1.00  0.00     0.233 C 
HETATM   14  O   UNL     1     -43.117 -54.096  13.435  1.00  0.00    -0.272 OA
HETATM   15  N   UNL     1     -44.272 -52.162  12.838  1.00  0.00    -0.311 N 
HETATM   16  H   UNL     1     -44.194 -51.314  12.295  1.00  0.00     0.170 HD
BRANCH  15  17
HETATM   17  C   UNL     1     -45.392 -52.284  13.638  1.00  0.00     0.130 A 
HETATM   18  C   UNL     1     -45.753 -51.326  14.621  1.00  0.00     0.084 A 
HETATM   19  C   UNL     1     -46.882 -51.836  15.209  1.00  0.00     0.076 A 
HETATM   20  C   UNL     1     -47.765 -51.402  16.307  1.00  0.00     0.079 C 
HETATM   21  O   UNL     1     -47.201 -53.011  14.607  1.00  0.00    -0.241 OA
HETATM   22  N   UNL     1     -46.270 -53.290  13.626  1.00  0.00    -0.245 N 
ATOM     23  HN  UNL     1     -46.257 -54.104  13.011  1.00  0.00     0.196 HD
ENDBRANCH  15  17
ENDBRANCH  12  13
ENDBRANCH  11  12
ENDBRANCH   2  11
BRANCH   1  24
HETATM   24  C   UNL     1     -38.697 -49.163  12.399  1.00  0.00     0.157 C 
BRANCH  24  25
HETATM   25  C   UNL     1     -37.765 -49.782  11.360  1.00  0.00     0.187 C 
BRANCH  25  26
HETATM   26  O   UNL     1     -37.338 -51.063  11.835  1.00  0.00    -0.394 OA
HETATM   27  C   UNL     1     -37.183 -51.072  13.250  1.00  0.00     0.201 C 
ENDBRANCH  25  26
ENDBRANCH  24  25
ENDBRANCH   1  24
TORSDOF 7
ENDMDL
MODEL 3
REMARK VINA RESULT:      -6.3      2.794      8.363
REMARK  7 active torsions:
REMARK  status: ('A' for Active; 'I' for Inactive)
REMARK    1  A    between atoms: O_2  and  C_3 
REMARK    2  A    between atoms: C_3  and  C_4 
REMARK    3  A    between atoms: C_4  and  N_5 
REMARK    4  A    between atoms: C_6  and  S_7 
REMARK    5  A    between atoms: S_7  and  C_8 
REMARK    6  A    between atoms: C_8  and  C_9 
REMARK       I    between atoms: C_9  and  N_11 
REMARK    7  A    between atoms: N_11  and  C_12 
ROOT
HETATM    1  N   UNL     1     -41.235 -53.016  13.605  1.00  0.00    -0.324 N 
HETATM    2  C   UNL     1     -41.300 -51.989  12.695  1.00  0.00     0.148 A 
HETATM    3  N   UNL     1     -42.488 -51.890  12.146  1.00  0.00    -0.335 N 
ATOM      4  HN  UNL     1     -42.789 -51.219  11.439  1.00  0.00     0.168 HD
HETATM    5  C   UNL     1     -43.241 -52.885  12.730  1.00  0.00     0.061 A 
HETATM    6  C   UNL     1     -44.587 -53.229  12.529  1.00  0.00     0.032 A 
HETATM    7  C   UNL     1     -45.132 -54.298  13.255  1.00  0.00     0.002 A 
HETATM    8  C   UNL     1     -44.355 -55.010  14.167  1.00  0.00     0.002 A 
HETATM    9  C   UNL     1     -43.017 -54.676  14.389  1.00  0.00     0.032 A 
HETATM   10  C   UNL     1     -42.485 -53.609  13.648  1.00  0.00     0.063 A 
ENDROOT
BRANCH   2  11
HETATM   11  S   UNL     1     -39.945 -50.978  12.298  1.00  0.00    -0.084 SA
BRANCH  11  12
HETATM   12  C   UNL     1     -40.702 -49.778  11.144  1.00  0.00     0.185 C 
BRANCH  12  13
HETATM   13  C   UNL     1     -40.209 -48.349  11.399  1.00  0.00     0.233 C 
HETATM   14  O   UNL     1     -39.433 -48.122  12.325  1.00  0.00    -0.272 OA
HETATM   15  N   UNL     1     -40.775 -47.401  10.561  1.00  0.00    -0.311 N 
HETATM   16  H   UNL     1     -41.381 -47.731   9.825  1.00  0.00     0.170 HD
BRANCH  15  17
HETATM   17  C   UNL     1     -40.482 -46.050  10.563  1.00  0.00     0.130 A 
HETATM   18  C   UNL     1     -41.099 -45.123  11.443  1.00  0.00     0.084 A 
HETATM   19  C   UNL     1     -40.571 -43.905  11.097  1.00  0.00     0.076 A 
HETATM   20  C   UNL     1     -40.772 -42.519  11.555  1.00  0.00     0.079 C 
HETATM   21  O   UNL     1     -39.674 -44.084  10.092  1.00  0.00    -0.241 OA
HETATM   22  N   UNL     1     -39.618 -45.423   9.760  1.00  0.00    -0.245 N 
ATOM     23  HN  UNL     1     -39.032 -45.850   9.043  1.00  0.00     0.196 HD
ENDBRANCH  15  17
ENDBRANCH  12  13
ENDBRANCH  11  12
ENDBRANCH   2  11
BRANCH   1  24
HETATM   24  C   UNL     1     -40.133 -53.396  14.463  1.00  0.00     0.157 C 
BRANCH  24  25
HETATM   25  C   UNL     1     -39.288 -54.544  13.915  1.00  0.00     0.187 C 
BRANCH  25  26
HETATM   26  O   UNL     1     -38.873 -55.368  15.009  1.00  0.00    -0.394 OA
HETATM   27  C   UNL     1     -39.815 -55.337  16.076  1.00  0.00     0.201 C 
ENDBRANCH  25  26
ENDBRANCH  24  25
ENDBRANCH   1  24
TORSDOF 7
ENDMDL
MODEL 4
REMARK VINA RESULT:      -6.3      2.190      2.642
REMARK  7 active torsions:
REMARK  status: ('A' for Active; 'I' for Inactive)
REMARK    1  A    between atoms: O_2  and  C_3 
REMARK    2  A    between atoms: C_3  and  C_4 
REMARK    3  A    between atoms: C_4  and  N_5 
REMARK    4  A    between atoms: C_6  and  S_7 
REMARK    5  A    between atoms: S_7  and  C_8 
REMARK    6  A    between atoms: C_8  and  C_9 
REMARK       I    between atoms: C_9  and  N_11 
REMARK    7  A    between atoms: N_11  and  C_12 
ROOT
HETATM    1  N   UNL     1     -39.972 -47.946  12.146  1.00  0.00    -0.324 N 
HETATM    2  C   UNL     1     -39.881 -49.203  11.598  1.00  0.00     0.148 A 
HETATM    3  N   UNL     1     -40.771 -49.397  10.655  1.00  0.00    -0.335 N 
ATOM      4  HN  UNL     1     -40.915 -50.243  10.103  1.00  0.00     0.168 HD
HETATM    5  C   UNL     1     -41.471 -48.213  10.568  1.00  0.00     0.061 A 
HETATM    6  C   UNL     1     -42.528 -47.853   9.716  1.00  0.00     0.032 A 
HETATM    7  C   UNL     1     -43.080 -46.569   9.823  1.00  0.00     0.002 A 
HETATM    8  C   UNL     1     -42.589 -45.656  10.754  1.00  0.00     0.002 A 
HETATM    9  C   UNL     1     -41.530 -45.992  11.603  1.00  0.00     0.032 A 
HETATM   10  C   UNL     1     -40.995 -47.284  11.489  1.00  0.00     0.063 A 
ENDROOT
BRANCH   2  11
HETATM   11  S   UNL     1     -38.740 -50.398  12.136  1.00  0.00    -0.084 SA
BRANCH  11  12
HETATM   12  C   UNL     1     -39.659 -51.204  13.496  1.00  0.00     0.185 C 
BRANCH  12  13
HETATM   13  C   UNL     1     -40.660 -52.242  12.975  1.00  0.00     0.233 C 
HETATM   14  O   UNL     1     -40.313 -53.057  12.122  1.00  0.00    -0.272 OA
HETATM   15  N   UNL     1     -41.938 -52.101  13.492  1.00  0.00    -0.311 N 
HETATM   16  H   UNL     1     -42.078 -51.402  14.206  1.00  0.00     0.170 HD
BRANCH  15  17
HETATM   17  C   UNL     1     -43.015 -52.920  13.209  1.00  0.00     0.130 A 
HETATM   18  C   UNL     1     -43.703 -53.669  14.199  1.00  0.00     0.084 A 
HETATM   19  C   UNL     1     -44.659 -54.368  13.509  1.00  0.00     0.076 A 
HETATM   20  C   UNL     1     -45.694 -55.351  13.879  1.00  0.00     0.079 C 
HETATM   21  O   UNL     1     -44.576 -54.047  12.192  1.00  0.00    -0.241 OA
HETATM   22  N   UNL     1     -43.549 -53.142  12.006  1.00  0.00    -0.245 N 
ATOM     23  HN  UNL     1     -43.257 -52.725  11.122  1.00  0.00     0.196 HD
ENDBRANCH  15  17
ENDBRANCH  12  13
ENDBRANCH  11  12
ENDBRANCH   2  11
BRANCH   1  24
HETATM   24  C   UNL     1     -39.128 -47.333  13.149  1.00  0.00     0.157 C 
BRANCH  24  25
HETATM   25  C   UNL     1     -39.675 -47.443  14.571  1.00  0.00     0.187 C 
BRANCH  25  26
HETATM   26  O   UNL     1     -38.807 -48.292  15.329  1.00  0.00    -0.394 OA
HETATM   27  C   UNL     1     -37.700 -47.571  15.860  1.00  0.00     0.201 C 
ENDBRANCH  25  26
ENDBRANCH  24  25
ENDBRANCH   1  24
TORSDOF 7
ENDMDL
MODEL 5
REMARK VINA RESULT:      -6.3      2.486      6.572
REMARK  7 active torsions:
REMARK  status: ('A' for Active; 'I' for Inactive)
REMARK    1  A    between atoms: O_2  and  C_3 
REMARK    2  A    between atoms: C_3  and  C_4 
REMARK    3  A    between atoms: C_4  and  N_5 
REMARK    4  A    between atoms: C_6  and  S_7 
REMARK    5  A    between atoms: S_7  and  C_8 
REMARK    6  A    between atoms: C_8  and  C_9 
REMARK       I    between atoms: C_9  and  N_11 
REMARK    7  A    between atoms: N_11  and  C_12 
ROOT
HETATM    1  N   UNL     1     -42.147 -52.097  13.187  1.00  0.00    -0.324 N 
HETATM    2  C   UNL     1     -41.774 -51.170  14.130  1.00  0.00     0.148 A 
HETATM    3  N   UNL     1     -42.810 -50.614  14.712  1.00  0.00    -0.335 N 
ATOM      4  HN  UNL     1     -42.802 -49.895  15.436  1.00  0.00     0.168 HD
HETATM    5  C   UNL     1     -43.912 -51.210  14.138  1.00  0.00     0.061 A 
HETATM    6  C   UNL     1     -45.278 -51.008  14.392  1.00  0.00     0.032 A 
HETATM    7  C   UNL     1     -46.221 -51.748  13.665  1.00  0.00     0.002 A 
HETATM    8  C   UNL     1     -45.816 -52.675  12.707  1.00  0.00     0.002 A 
HETATM    9  C   UNL     1     -44.461 -52.898  12.448  1.00  0.00     0.032 A 
HETATM   10  C   UNL     1     -43.530 -52.143  13.178  1.00  0.00     0.063 A 
ENDROOT
BRANCH   2  11
HETATM   11  S   UNL     1     -40.120 -50.763  14.467  1.00  0.00    -0.084 SA
BRANCH  11  12
HETATM   12  C   UNL     1     -39.973 -49.119  13.680  1.00  0.00     0.185 C 
BRANCH  12  13
HETATM   13  C   UNL     1     -40.579 -49.101  12.272  1.00  0.00     0.233 C 
HETATM   14  O   UNL     1     -40.120 -49.832  11.395  1.00  0.00    -0.272 OA
HETATM   15  N   UNL     1     -41.586 -48.164  12.103  1.00  0.00    -0.311 N 
HETATM   16  H   UNL     1     -41.882 -47.646  12.917  1.00  0.00     0.170 HD
BRANCH  15  17
HETATM   17  C   UNL     1     -42.313 -47.964  10.945  1.00  0.00     0.130 A 
HETATM   18  C   UNL     1     -43.651 -47.492  10.939  1.00  0.00     0.084 A 
HETATM   19  C   UNL     1     -44.011 -47.474   9.616  1.00  0.00     0.076 A 
HETATM   20  C   UNL     1     -45.243 -47.135   8.881  1.00  0.00     0.079 C 
HETATM   21  O   UNL     1     -42.955 -47.883   8.866  1.00  0.00    -0.241 OA
HETATM   22  N   UNL     1     -41.894 -48.188   9.696  1.00  0.00    -0.245 N 
ATOM     23  HN  UNL     1     -40.972 -48.518   9.412  1.00  0.00     0.196 HD
ENDBRANCH  15  17
ENDBRANCH  12  13
ENDBRANCH  11  12
ENDBRANCH   2  11
BRANCH   1  24
HETATM   24  C   UNL     1     -41.306 -52.966  12.391  1.00  0.00     0.157 C 
BRANCH  24  25
HETATM   25  C   UNL     1     -40.821 -54.209  13.135  1.00  0.00     0.187 C 
BRANCH  25  26
HETATM   26  O   UNL     1     -39.436 -54.038  13.454  1.00  0.00    -0.394 OA
HETATM   27  C   UNL     1     -39.060 -54.808  14.591  1.00  0.00     0.201 C 
ENDBRANCH  25  26
ENDBRANCH  24  25
ENDBRANCH   1  24
TORSDOF 7
ENDMDL
MODEL 6
REMARK VINA RESULT:      -6.2      2.950      8.518
REMARK  7 active torsions:
REMARK  status: ('A' for Active; 'I' for Inactive)
REMARK    1  A    between atoms: O_2  and  C_3 
REMARK    2  A    between atoms: C_3  and  C_4 
REMARK    3  A    between atoms: C_4  and  N_5 
REMARK    4  A    between atoms: C_6  and  S_7 
REMARK    5  A    between atoms: S_7  and  C_8 
REMARK    6  A    between atoms: C_8  and  C_9 
REMARK       I    between atoms: C_9  and  N_11 
REMARK    7  A    between atoms: N_11  and  C_12 
ROOT
HETATM    1  N   UNL     1     -42.246 -53.553  14.340  1.00  0.00    -0.324 N 
HETATM    2  C   UNL     1     -41.371 -52.918  13.492  1.00  0.00     0.148 A 
HETATM    3  N   UNL     1     -40.132 -53.301  13.683  1.00  0.00    -0.335 N 
ATOM      4  HN  UNL     1     -39.300 -52.975  13.191  1.00  0.00     0.168 HD
HETATM    5  C   UNL     1     -40.193 -54.239  14.690  1.00  0.00     0.061 A 
HETATM    6  C   UNL     1     -39.166 -54.987  15.287  1.00  0.00     0.032 A 
HETATM    7  C   UNL     1     -39.488 -55.892  16.309  1.00  0.00     0.002 A 
HETATM    8  C   UNL     1     -40.807 -56.054  16.728  1.00  0.00     0.002 A 
HETATM    9  C   UNL     1     -41.845 -55.326  16.140  1.00  0.00     0.032 A 
HETATM   10  C   UNL     1     -41.503 -54.419  15.124  1.00  0.00     0.063 A 
ENDROOT
BRANCH   2  11
HETATM   11  S   UNL     1     -41.864 -51.717  12.337  1.00  0.00    -0.084 SA
BRANCH  11  12
HETATM   12  C   UNL     1     -40.261 -50.969  11.873  1.00  0.00     0.185 C 
BRANCH  12  13
HETATM   13  C   UNL     1     -40.417 -49.510  11.428  1.00  0.00     0.233 C 
HETATM   14  O   UNL     1     -39.506 -48.707  11.622  1.00  0.00    -0.272 OA
HETATM   15  N   UNL     1     -41.660 -49.215  10.890  1.00  0.00    -0.311 N 
HETATM   16  H   UNL     1     -42.308 -49.979  10.766  1.00  0.00     0.170 HD
BRANCH  15  17
HETATM   17  C   UNL     1     -42.048 -47.987  10.389  1.00  0.00     0.130 A 
HETATM   18  C   UNL     1     -43.385 -47.685  10.022  1.00  0.00     0.084 A 
HETATM   19  C   UNL     1     -43.337 -46.402   9.541  1.00  0.00     0.076 A 
HETATM   20  C   UNL     1     -44.324 -45.471   8.966  1.00  0.00     0.079 C 
HETATM   21  O   UNL     1     -42.061 -45.944   9.634  1.00  0.00    -0.241 OA
HETATM   22  N   UNL     1     -41.257 -46.935  10.165  1.00  0.00    -0.245 N 
ATOM     23  HN  UNL     1     -40.255 -46.874  10.349  1.00  0.00     0.196 HD
ENDBRANCH  15  17
ENDBRANCH  12  13
ENDBRANCH  11  12
ENDBRANCH   2  11
BRANCH   1  24
HETATM   24  C   UNL     1     -43.690 -53.458  14.389  1.00  0.00     0.157 C 
BRANCH  24  25
HETATM   25  C   UNL     1     -44.410 -54.553  13.606  1.00  0.00     0.187 C 
BRANCH  25  26
HETATM   26  O   UNL     1     -44.942 -53.982  12.406  1.00  0.00    -0.394 OA
HETATM   27  C   UNL     1     -45.576 -52.732  12.657  1.00  0.00     0.201 C 
ENDBRANCH  25  26
ENDBRANCH  24  25
ENDBRANCH   1  24
TORSDOF 7
ENDMDL
MODEL 7
REMARK VINA RESULT:      -6.1      2.590      2.975
REMARK  7 active torsions:
REMARK  status: ('A' for Active; 'I' for Inactive)
REMARK    1  A    between atoms: O_2  and  C_3 
REMARK    2  A    between atoms: C_3  and  C_4 
REMARK    3  A    between atoms: C_4  and  N_5 
REMARK    4  A    between atoms: C_6  and  S_7 
REMARK    5  A    between atoms: S_7  and  C_8 
REMARK    6  A    between atoms: C_8  and  C_9 
REMARK       I    between atoms: C_9  and  N_11 
REMARK    7  A    between atoms: N_11  and  C_12 
ROOT
HETATM    1  N   UNL     1     -41.519 -46.785  11.104  1.00  0.00    -0.324 N 
HETATM    2  C   UNL     1     -41.547 -48.145  11.292  1.00  0.00     0.148 A 
HETATM    3  N   UNL     1     -42.599 -48.699  10.738  1.00  0.00    -0.335 N 
ATOM      4  HN  UNL     1     -42.854 -49.687  10.743  1.00  0.00     0.168 HD
HETATM    5  C   UNL     1     -43.287 -47.661  10.148  1.00  0.00     0.061 A 
HETATM    6  C   UNL     1     -44.479 -47.679   9.406  1.00  0.00     0.032 A 
HETATM    7  C   UNL     1     -44.985 -46.471   8.903  1.00  0.00     0.002 A 
HETATM    8  C   UNL     1     -44.318 -45.269   9.130  1.00  0.00     0.002 A 
HETATM    9  C   UNL     1     -43.125 -45.233   9.856  1.00  0.00     0.032 A 
HETATM   10  C   UNL     1     -42.637 -46.449  10.360  1.00  0.00     0.063 A 
ENDROOT
BRANCH   2  11
HETATM   11  S   UNL     1     -40.343 -49.008  12.198  1.00  0.00    -0.084 SA
BRANCH  11  12
HETATM   12  C   UNL     1     -40.773 -50.747  11.827  1.00  0.00     0.185 C 
BRANCH  12  13
HETATM   13  C   UNL     1     -39.918 -51.734  12.631  1.00  0.00     0.233 C 
HETATM   14  O   UNL     1     -38.704 -51.562  12.724  1.00  0.00    -0.272 OA
HETATM   15  N   UNL     1     -40.628 -52.811  13.136  1.00  0.00    -0.311 N 
HETATM   16  H   UNL     1     -41.629 -52.814  13.005  1.00  0.00     0.170 HD
BRANCH  15  17
HETATM   17  C   UNL     1     -40.104 -53.825  13.916  1.00  0.00     0.130 A 
HETATM   18  C   UNL     1     -40.704 -54.265  15.124  1.00  0.00     0.084 A 
HETATM   19  C   UNL     1     -39.863 -55.237  15.601  1.00  0.00     0.076 A 
HETATM   20  C   UNL     1     -39.839 -56.089  16.803  1.00  0.00     0.079 C 
HETATM   21  O   UNL     1     -38.834 -55.396  14.729  1.00  0.00    -0.241 OA
HETATM   22  N   UNL     1     -38.986 -54.514  13.676  1.00  0.00    -0.245 N 
ATOM     23  HN  UNL     1     -38.365 -54.411  12.873  1.00  0.00     0.196 HD
ENDBRANCH  15  17
ENDBRANCH  12  13
ENDBRANCH  11  12
ENDBRANCH   2  11
BRANCH   1  24
HETATM   24  C   UNL     1     -40.496 -45.838  11.495  1.00  0.00     0.157 C 
BRANCH  24  25
HETATM   25  C   UNL     1     -39.637 -45.340  10.334  1.00  0.00     0.187 C 
BRANCH  25  26
HETATM   26  O   UNL     1     -39.951 -43.964  10.092  1.00  0.00    -0.394 OA
HETATM   27  C   UNL     1     -40.322 -43.292  11.290  1.00  0.00     0.201 C 
ENDBRANCH  25  26
ENDBRANCH  24  25
ENDBRANCH   1  24
TORSDOF 7
ENDMDL
MODEL 8
REMARK VINA RESULT:      -5.9      3.984      7.784
REMARK  7 active torsions:
REMARK  status: ('A' for Active; 'I' for Inactive)
REMARK    1  A    between atoms: O_2  and  C_3 
REMARK    2  A    between atoms: C_3  and  C_4 
REMARK    3  A    between atoms: C_4  and  N_5 
REMARK    4  A    between atoms: C_6  and  S_7 
REMARK    5  A    between atoms: S_7  and  C_8 
REMARK    6  A    between atoms: C_8  and  C_9 
REMARK       I    between atoms: C_9  and  N_11 
REMARK    7  A    between atoms: N_11  and  C_12 
ROOT
HETATM    1  N   UNL     1     -37.905 -49.843  13.775  1.00  0.00    -0.324 N 
HETATM    2  C   UNL     1     -38.476 -48.698  13.276  1.00  0.00     0.148 A 
HETATM    3  N   UNL     1     -38.179 -47.643  13.998  1.00  0.00    -0.335 N 
ATOM      4  HN  UNL     1     -38.484 -46.682  13.845  1.00  0.00     0.168 HD
HETATM    5  C   UNL     1     -37.367 -48.112  15.007  1.00  0.00     0.061 A 
HETATM    6  C   UNL     1     -36.745 -47.418  16.057  1.00  0.00     0.032 A 
HETATM    7  C   UNL     1     -35.954 -48.130  16.970  1.00  0.00     0.002 A 
HETATM    8  C   UNL     1     -35.780 -49.506  16.841  1.00  0.00     0.002 A 
HETATM    9  C   UNL     1     -36.381 -50.213  15.796  1.00  0.00     0.032 A 
HETATM   10  C   UNL     1     -37.176 -49.486  14.896  1.00  0.00     0.063 A 
ENDROOT
BRANCH   2  11
HETATM   11  S   UNL     1     -39.505 -48.675  11.877  1.00  0.00    -0.084 SA
BRANCH  11  12
HETATM   12  C   UNL     1     -39.774 -46.881  11.643  1.00  0.00     0.185 C 
BRANCH  12  13
HETATM   13  C   UNL     1     -40.952 -46.596  10.703  1.00  0.00     0.233 C 
HETATM   14  O   UNL     1     -41.096 -45.473  10.222  1.00  0.00    -0.272 OA
HETATM   15  N   UNL     1     -41.816 -47.667  10.543  1.00  0.00    -0.311 N 
HETATM   16  H   UNL     1     -41.562 -48.541  10.978  1.00  0.00     0.170 HD
BRANCH  15  17
HETATM   17  C   UNL     1     -42.935 -47.682   9.732  1.00  0.00     0.130 A 
HETATM   18  C   UNL     1     -44.249 -47.451  10.216  1.00  0.00     0.084 A 
HETATM   19  C   UNL     1     -45.058 -47.594   9.118  1.00  0.00     0.076 A 
HETATM   20  C   UNL     1     -46.512 -47.528   8.886  1.00  0.00     0.079 C 
HETATM   21  O   UNL     1     -44.286 -47.867   8.034  1.00  0.00    -0.241 OA
HETATM   22  N   UNL     1     -42.961 -47.921   8.418  1.00  0.00    -0.245 N 
ATOM     23  HN  UNL     1     -42.159 -48.106   7.816  1.00  0.00     0.196 HD
ENDBRANCH  15  17
ENDBRANCH  12  13
ENDBRANCH  11  12
ENDBRANCH   2  11
BRANCH   1  24
HETATM   24  C   UNL     1     -37.936 -51.183  13.226  1.00  0.00     0.157 C 
BRANCH  24  25
HETATM   25  C   UNL     1     -39.156 -51.998  13.649  1.00  0.00     0.187 C 
BRANCH  25  26
HETATM   26  O   UNL     1     -38.794 -53.382  13.674  1.00  0.00    -0.394 OA
HETATM   27  C   UNL     1     -39.053 -53.969  14.945  1.00  0.00     0.201 C 
ENDBRANCH  25  26
ENDBRANCH  24  25
ENDBRANCH   1  24
TORSDOF 7
ENDMDL
MODEL 9
REMARK VINA RESULT:      -5.9      2.401      7.336
REMARK  7 active torsions:
REMARK  status: ('A' for Active; 'I' for Inactive)
REMARK    1  A    between atoms: O_2  and  C_3 
REMARK    2  A    between atoms: C_3  and  C_4 
REMARK    3  A    between atoms: C_4  and  N_5 
REMARK    4  A    between atoms: C_6  and  S_7 
REMARK    5  A    between atoms: S_7  and  C_8 
REMARK    6  A    between atoms: C_8  and  C_9 
REMARK       I    between atoms: C_9  and  N_11 
REMARK    7  A    between atoms: N_11  and  C_12 
ROOT
HETATM    1  N   UNL     1     -42.587 -52.147  14.279  1.00  0.00    -0.324 N 
HETATM    2  C   UNL     1     -42.608 -52.043  12.909  1.00  0.00     0.148 A 
HETATM    3  N   UNL     1     -43.808 -51.775  12.452  1.00  0.00    -0.335 N 
ATOM      4  HN  UNL     1     -44.088 -51.657  11.479  1.00  0.00     0.168 HD
HETATM    5  C   UNL     1     -44.609 -51.684  13.569  1.00  0.00     0.061 A 
HETATM    6  C   UNL     1     -45.981 -51.402  13.672  1.00  0.00     0.032 A 
HETATM    7  C   UNL     1     -46.575 -51.366  14.943  1.00  0.00     0.002 A 
HETATM    8  C   UNL     1     -45.820 -51.601  16.090  1.00  0.00     0.002 A 
HETATM    9  C   UNL     1     -44.451 -51.872  16.009  1.00  0.00     0.032 A 
HETATM   10  C   UNL     1     -43.875 -51.913  14.729  1.00  0.00     0.063 A 
ENDROOT
BRANCH   2  11
HETATM   11  S   UNL     1     -41.207 -52.286  11.912  1.00  0.00    -0.084 SA
BRANCH  11  12
HETATM   12  C   UNL     1     -40.240 -50.771  12.254  1.00  0.00     0.185 C 
BRANCH  12  13
HETATM   13  C   UNL     1     -41.070 -49.500  12.039  1.00  0.00     0.233 C 
HETATM   14  O   UNL     1     -41.790 -49.075  12.941  1.00  0.00    -0.272 OA
HETATM   15  N   UNL     1     -40.975 -48.976  10.760  1.00  0.00    -0.311 N 
HETATM   16  H   UNL     1     -40.325 -49.413  10.124  1.00  0.00     0.170 HD
BRANCH  15  17
HETATM   17  C   UNL     1     -41.597 -47.825  10.315  1.00  0.00     0.130 A 
HETATM   18  C   UNL     1     -42.935 -47.799   9.840  1.00  0.00     0.084 A 
HETATM   19  C   UNL     1     -43.148 -46.498   9.463  1.00  0.00     0.076 A 
HETATM   20  C   UNL     1     -44.277 -45.764   8.862  1.00  0.00     0.079 C 
HETATM   21  O   UNL     1     -42.026 -45.776   9.716  1.00  0.00    -0.241 OA
HETATM   22  N   UNL     1     -41.059 -46.605  10.249  1.00  0.00    -0.245 N 
ATOM     23  HN  UNL     1     -40.117 -46.337  10.537  1.00  0.00     0.196 HD
ENDBRANCH  15  17
ENDBRANCH  12  13
ENDBRANCH  11  12
ENDBRANCH   2  11
BRANCH   1  24
HETATM   24  C   UNL     1     -41.453 -52.358  15.153  1.00  0.00     0.157 C 
BRANCH  24  25
HETATM   25  C   UNL     1     -41.067 -53.826  15.324  1.00  0.00     0.187 C 
BRANCH  25  26
HETATM   26  O   UNL     1     -41.958 -54.425  16.271  1.00  0.00    -0.394 OA
HETATM   27  C   UNL     1     -42.772 -55.424  15.666  1.00  0.00     0.201 C 
ENDBRANCH  25  26
ENDBRANCH  24  25
ENDBRANCH   1  24
TORSDOF 7
ENDMDL
