MODEL 1
REMARK VINA RESULT:      -5.8      0.000      0.000
REMARK  7 active torsions:
REMARK  status: ('A' for Active; 'I' for Inactive)
REMARK    1  A    between atoms: S_2  and  C_3 
REMARK    2  A    between atoms: C_3  and  C_4 
REMARK    3  A    between atoms: C_3  and  C_6 
REMARK    4  A    between atoms: C_4  and  O_5 
REMARK    5  A    between atoms: C_6  and  N_8 
REMARK       I    between atoms: N_8  and  C_9 
REMARK    6  A    between atoms: C_9  and  C_11 
REMARK    7  A    between atoms: C_11  and  C_14 
ROOT
HETATM    1  N   UNL     1     -42.725 -53.971  14.315  1.00  0.00    -0.350 N 
HETATM    2  C   UNL     1     -43.701 -54.937  14.517  1.00  0.00     0.297 C 
HETATM    3  O   UNL     1     -43.514 -55.908  15.251  1.00  0.00    -0.266 OA
HETATM    4  H   UNL     1     -42.975 -53.170  13.741  1.00  0.00     0.163 HD
ENDROOT
BRANCH   2   5
HETATM    5  C   UNL     1     -45.034 -54.691  13.759  1.00  0.00     0.364 C 
HETATM    6  F   UNL     1     -44.774 -54.440  12.431  1.00  0.00    -0.188 F 
HETATM    7  F   UNL     1     -45.783 -55.843  13.739  1.00  0.00    -0.188 F 
BRANCH   5   8
HETATM    8  C   UNL     1     -45.787 -53.543  14.421  1.00  0.00     0.091 A 
HETATM    9  C   UNL     1     -46.227 -52.464  13.650  1.00  0.00     0.032 A 
HETATM   10  C   UNL     1     -46.873 -51.401  14.278  1.00  0.00     0.003 A 
HETATM   11  C   UNL     1     -47.065 -51.437  15.652  1.00  0.00     0.017 A 
HETATM   12  C   UNL     1     -46.623 -52.550  16.347  1.00  0.00     0.088 A 
HETATM   13  N   UNL     1     -45.999 -53.599  15.767  1.00  0.00    -0.364 N 
ATOM     14  HN  UNL     1     -45.698 -54.404  16.315  1.00  0.00     0.165 HD
ENDBRANCH   5   8
ENDBRANCH   2   5
BRANCH   1  15
HETATM   15  C   UNL     1     -41.347 -54.050  14.818  1.00  0.00     0.096 C 
HETATM   16  C   UNL     1     -41.270 -53.335  16.174  1.00  0.00     0.033 C 
BRANCH  15  17
HETATM   17  C   UNL     1     -40.277 -53.565  13.791  1.00  0.00     0.092 C 
BRANCH  17  18
HETATM   18  S   UNL     1     -40.128 -51.709  13.835  1.00  0.00    -0.165 SA
HETATM   19  C   UNL     1     -40.780 -51.297  12.195  1.00  0.00     0.090 C 
ENDBRANCH  17  18
BRANCH  17  20
HETATM   20  C   UNL     1     -38.897 -54.184  14.078  1.00  0.00     0.181 C 
BRANCH  20  21
HETATM   21  O   UNL     1     -38.703 -55.406  13.366  1.00  0.00    -0.400 OA
HETATM   22  H   UNL     1     -38.407 -56.063  14.024  1.00  0.00     0.209 HD
ENDBRANCH  20  21
ENDBRANCH  17  20
ENDBRANCH  15  17
ENDBRANCH   1  15
TORSDOF 7
ENDMDL
MODEL 2
REMARK VINA RESULT:      -5.7      2.218      2.593
REMARK  7 active torsions:
REMARK  status: ('A' for Active; 'I' for Inactive)
REMARK    1  A    between atoms: S_2  and  C_3 
REMARK    2  A    between atoms: C_3  and  C_4 
REMARK    3  A    between atoms: C_3  and  C_6 
REMARK    4  A    between atoms: C_4  and  O_5 
REMARK    5  A    between atoms: C_6  and  N_8 
REMARK       I    between atoms: N_8  and  C_9 
REMARK    6  A    between atoms: C_9  and  C_11 
REMARK    7  A    between atoms: C_11  and  C_14 
ROOT
HETATM    1  N   UNL     1     -43.359 -52.945  13.663  1.00  0.00    -0.350 N 
HETATM    2  C   UNL     1     -44.639 -52.788  13.150  1.00  0.00     0.297 C 
HETATM    3  O   UNL     1     -45.246 -53.719  12.619  1.00  0.00    -0.266 OA
HETATM    4  H   UNL     1     -42.946 -52.146  14.138  1.00  0.00     0.163 HD
ENDROOT
BRANCH   2   5
HETATM    5  C   UNL     1     -45.240 -51.366  13.310  1.00  0.00     0.364 C 
HETATM    6  F   UNL     1     -44.299 -50.423  12.961  1.00  0.00    -0.188 F 
HETATM    7  F   UNL     1     -46.252 -51.177  12.399  1.00  0.00    -0.188 F 
BRANCH   5   8
HETATM    8  C   UNL     1     -45.730 -51.182  14.742  1.00  0.00     0.091 A 
HETATM    9  C   UNL     1     -47.021 -51.584  15.092  1.00  0.00     0.032 A 
HETATM   10  C   UNL     1     -47.470 -51.366  16.393  1.00  0.00     0.003 A 
HETATM   11  C   UNL     1     -46.626 -50.757  17.311  1.00  0.00     0.017 A 
HETATM   12  C   UNL     1     -45.351 -50.406  16.898  1.00  0.00     0.088 A 
HETATM   13  N   UNL     1     -44.885 -50.610  15.646  1.00  0.00    -0.364 N 
ATOM     14  HN  UNL     1     -43.935 -50.346  15.386  1.00  0.00     0.165 HD
ENDBRANCH   5   8
ENDBRANCH   2   5
BRANCH   1  15
HETATM   15  C   UNL     1     -42.537 -54.154  13.518  1.00  0.00     0.096 C 
HETATM   16  C   UNL     1     -42.439 -54.856  14.879  1.00  0.00     0.033 C 
BRANCH  15  17
HETATM   17  C   UNL     1     -41.153 -53.894  12.846  1.00  0.00     0.092 C 
BRANCH  17  18
HETATM   18  S   UNL     1     -41.109 -52.194  12.085  1.00  0.00    -0.165 SA
HETATM   19  C   UNL     1     -39.887 -51.394  13.157  1.00  0.00     0.090 C 
ENDBRANCH  17  18
BRANCH  17  20
HETATM   20  C   UNL     1     -40.000 -54.018  13.860  1.00  0.00     0.181 C 
BRANCH  20  21
HETATM   21  O   UNL     1     -38.916 -54.788  13.341  1.00  0.00    -0.400 OA
HETATM   22  H   UNL     1     -38.099 -54.334  13.622  1.00  0.00     0.209 HD
ENDBRANCH  20  21
ENDBRANCH  17  20
ENDBRANCH  15  17
ENDBRANCH   1  15
TORSDOF 7
ENDMDL
MODEL 3
REMARK VINA RESULT:      -5.7      1.840      2.400
REMARK  7 active torsions:
REMARK  status: ('A' for Active; 'I' for Inactive)
REMARK    1  A    between atoms: S_2  and  C_3 
REMARK    2  A    between atoms: C_3  and  C_4 
REMARK    3  A    between atoms: C_3  and  C_6 
REMARK    4  A    between atoms: C_4  and  O_5 
REMARK    5  A    between atoms: C_6  and  N_8 
REMARK       I    between atoms: N_8  and  C_9 
REMARK    6  A    between atoms: C_9  and  C_11 
REMARK    7  A    between atoms: C_11  and  C_14 
ROOT
HETATM    1  N   UNL     1     -42.181 -54.218  13.828  1.00  0.00    -0.350 N 
HETATM    2  C   UNL     1     -43.456 -54.045  13.309  1.00  0.00     0.297 C 
HETATM    3  O   UNL     1     -43.646 -53.519  12.211  1.00  0.00    -0.266 OA
HETATM    4  H   UNL     1     -42.102 -54.712  14.714  1.00  0.00     0.163 HD
ENDROOT
BRANCH   2   5
HETATM    5  C   UNL     1     -44.607 -54.573  14.206  1.00  0.00     0.364 C 
HETATM    6  F   UNL     1     -45.337 -55.516  13.518  1.00  0.00    -0.188 F 
HETATM    7  F   UNL     1     -44.091 -55.266  15.275  1.00  0.00    -0.188 F 
BRANCH   5   8
HETATM    8  C   UNL     1     -45.472 -53.402  14.660  1.00  0.00     0.091 A 
HETATM    9  C   UNL     1     -45.909 -53.333  15.985  1.00  0.00     0.032 A 
HETATM   10  C   UNL     1     -46.736 -52.281  16.372  1.00  0.00     0.003 A 
HETATM   11  C   UNL     1     -47.106 -51.326  15.435  1.00  0.00     0.017 A 
HETATM   12  C   UNL     1     -46.615 -51.447  14.146  1.00  0.00     0.088 A 
HETATM   13  N   UNL     1     -45.807 -52.452  13.742  1.00  0.00    -0.364 N 
ATOM     14  HN  UNL     1     -45.459 -52.497  12.785  1.00  0.00     0.165 HD
ENDBRANCH   5   8
ENDBRANCH   2   5
BRANCH   1  15
HETATM   15  C   UNL     1     -40.949 -53.688  13.227  1.00  0.00     0.096 C 
HETATM   16  C   UNL     1     -39.751 -54.481  13.768  1.00  0.00     0.033 C 
BRANCH  15  17
HETATM   17  C   UNL     1     -40.795 -52.142  13.373  1.00  0.00     0.092 C 
BRANCH  17  18
HETATM   18  S   UNL     1     -39.159 -51.722  14.157  1.00  0.00    -0.165 SA
HETATM   19  C   UNL     1     -38.355 -50.862  12.780  1.00  0.00     0.090 C 
ENDBRANCH  17  18
BRANCH  17  20
HETATM   20  C   UNL     1     -40.894 -51.433  12.010  1.00  0.00     0.181 C 
BRANCH  20  21
HETATM   21  O   UNL     1     -41.258 -52.336  10.966  1.00  0.00    -0.400 OA
HETATM   22  H   UNL     1     -42.233 -52.354  10.946  1.00  0.00     0.209 HD
ENDBRANCH  20  21
ENDBRANCH  17  20
ENDBRANCH  15  17
ENDBRANCH   1  15
TORSDOF 7
ENDMDL
MODEL 4
REMARK VINA RESULT:      -5.5      3.377      4.898
REMARK  7 active torsions:
REMARK  status: ('A' for Active; 'I' for Inactive)
REMARK    1  A    between atoms: S_2  and  C_3 
REMARK    2  A    between atoms: C_3  and  C_4 
REMARK    3  A    between atoms: C_3  and  C_6 
REMARK    4  A    between atoms: C_4  and  O_5 
REMARK    5  A    between atoms: C_6  and  N_8 
REMARK       I    between atoms: N_8  and  C_9 
REMARK    6  A    between atoms: C_9  and  C_11 
REMARK    7  A    between atoms: C_11  and  C_14 
ROOT
HETATM    1  N   UNL     1     -39.894 -51.366  13.494  1.00  0.00    -0.350 N 
HETATM    2  C   UNL     1     -40.358 -52.512  12.865  1.00  0.00     0.297 C 
HETATM    3  O   UNL     1     -40.432 -52.597  11.638  1.00  0.00    -0.266 OA
HETATM    4  H   UNL     1     -39.808 -51.393  14.507  1.00  0.00     0.163 HD
ENDROOT
BRANCH   2   5
HETATM    5  C   UNL     1     -40.760 -53.668  13.820  1.00  0.00     0.364 C 
HETATM    6  F   UNL     1     -40.012 -54.788  13.534  1.00  0.00    -0.188 F 
HETATM    7  F   UNL     1     -40.409 -53.355  15.112  1.00  0.00    -0.188 F 
BRANCH   5   8
HETATM    8  C   UNL     1     -42.256 -53.932  13.693  1.00  0.00     0.091 A 
HETATM    9  C   UNL     1     -42.911 -54.702  14.657  1.00  0.00     0.032 A 
HETATM   10  C   UNL     1     -44.269 -54.972  14.501  1.00  0.00     0.003 A 
HETATM   11  C   UNL     1     -44.940 -54.471  13.394  1.00  0.00     0.017 A 
HETATM   12  C   UNL     1     -44.230 -53.696  12.492  1.00  0.00     0.088 A 
HETATM   13  N   UNL     1     -42.915 -53.411  12.619  1.00  0.00    -0.364 N 
ATOM     14  HN  UNL     1     -42.433 -52.827  11.936  1.00  0.00     0.165 HD
ENDBRANCH   5   8
ENDBRANCH   2   5
BRANCH   1  15
HETATM   15  C   UNL     1     -39.577 -50.102  12.814  1.00  0.00     0.096 C 
HETATM   16  C   UNL     1     -38.453 -49.393  13.581  1.00  0.00     0.033 C 
BRANCH  15  17
HETATM   17  C   UNL     1     -40.825 -49.202  12.554  1.00  0.00     0.092 C 
BRANCH  17  18
HETATM   18  S   UNL     1     -40.572 -47.510  13.291  1.00  0.00    -0.165 SA
HETATM   19  C   UNL     1     -40.167 -46.567  11.797  1.00  0.00     0.090 C 
ENDBRANCH  17  18
BRANCH  17  20
HETATM   20  C   UNL     1     -41.110 -49.054  11.048  1.00  0.00     0.181 C 
BRANCH  20  21
HETATM   21  O   UNL     1     -40.380 -50.003  10.271  1.00  0.00    -0.400 OA
HETATM   22  H   UNL     1     -39.693 -50.368  10.860  1.00  0.00     0.209 HD
ENDBRANCH  20  21
ENDBRANCH  17  20
ENDBRANCH  15  17
ENDBRANCH   1  15
TORSDOF 7
ENDMDL
MODEL 5
REMARK VINA RESULT:      -5.4      2.389      2.851
REMARK  7 active torsions:
REMARK  status: ('A' for Active; 'I' for Inactive)
REMARK    1  A    between atoms: S_2  and  C_3 
REMARK    2  A    between atoms: C_3  and  C_4 
REMARK    3  A    between atoms: C_3  and  C_6 
REMARK    4  A    between atoms: C_4  and  O_5 
REMARK    5  A    between atoms: C_6  and  N_8 
REMARK       I    between atoms: N_8  and  C_9 
REMARK    6  A    between atoms: C_9  and  C_11 
REMARK    7  A    between atoms: C_11  and  C_14 
ROOT
HETATM    1  N   UNL     1     -43.392 -52.093  12.669  1.00  0.00    -0.350 N 
HETATM    2  C   UNL     1     -44.531 -52.880  12.571  1.00  0.00     0.297 C 
HETATM    3  O   UNL     1     -44.476 -54.069  12.255  1.00  0.00    -0.266 OA
HETATM    4  H   UNL     1     -43.514 -51.136  12.991  1.00  0.00     0.163 HD
ENDROOT
BRANCH   2   5
HETATM    5  C   UNL     1     -45.862 -52.151  12.899  1.00  0.00     0.364 C 
HETATM    6  F   UNL     1     -45.771 -50.829  12.527  1.00  0.00    -0.188 F 
HETATM    7  F   UNL     1     -46.877 -52.647  12.115  1.00  0.00    -0.188 F 
BRANCH   5   8
HETATM    8  C   UNL     1     -46.172 -52.307  14.383  1.00  0.00     0.091 A 
HETATM    9  C   UNL     1     -47.001 -51.382  15.022  1.00  0.00     0.032 A 
HETATM   10  C   UNL     1     -47.236 -51.512  16.389  1.00  0.00     0.003 A 
HETATM   11  C   UNL     1     -46.644 -52.557  17.085  1.00  0.00     0.017 A 
HETATM   12  C   UNL     1     -45.853 -53.449  16.380  1.00  0.00     0.088 A 
HETATM   13  N   UNL     1     -45.611 -53.353  15.054  1.00  0.00    -0.364 N 
ATOM     14  HN  UNL     1     -45.030 -54.038  14.572  1.00  0.00     0.165 HD
ENDBRANCH   5   8
ENDBRANCH   2   5
BRANCH   1  15
HETATM   15  C   UNL     1     -42.040 -52.521  12.286  1.00  0.00     0.096 C 
HETATM   16  C   UNL     1     -41.474 -53.426  13.387  1.00  0.00     0.033 C 
BRANCH  15  17
HETATM   17  C   UNL     1     -41.096 -51.339  11.898  1.00  0.00     0.092 C 
BRANCH  17  18
HETATM   18  S   UNL     1     -41.949 -49.707  12.178  1.00  0.00    -0.165 SA
HETATM   19  C   UNL     1     -41.024 -48.661  11.023  1.00  0.00     0.090 C 
ENDBRANCH  17  18
BRANCH  17  20
HETATM   20  C   UNL     1     -39.790 -51.368  12.713  1.00  0.00     0.181 C 
BRANCH  20  21
HETATM   21  O   UNL     1     -38.637 -51.318  11.873  1.00  0.00    -0.400 OA
HETATM   22  H   UNL     1     -38.958 -51.437  10.960  1.00  0.00     0.209 HD
ENDBRANCH  20  21
ENDBRANCH  17  20
ENDBRANCH  15  17
ENDBRANCH   1  15
TORSDOF 7
ENDMDL
MODEL 6
REMARK VINA RESULT:      -5.4      8.197      9.433
REMARK  7 active torsions:
REMARK  status: ('A' for Active; 'I' for Inactive)
REMARK    1  A    between atoms: S_2  and  C_3 
REMARK    2  A    between atoms: C_3  and  C_4 
REMARK    3  A    between atoms: C_3  and  C_6 
REMARK    4  A    between atoms: C_4  and  O_5 
REMARK    5  A    between atoms: C_6  and  N_8 
REMARK       I    between atoms: N_8  and  C_9 
REMARK    6  A    between atoms: C_9  and  C_11 
REMARK    7  A    between atoms: C_11  and  C_14 
ROOT
HETATM    1  N   UNL     1     -41.032 -45.484  12.126  1.00  0.00    -0.350 N 
HETATM    2  C   UNL     1     -41.425 -45.970  10.887  1.00  0.00     0.297 C 
HETATM    3  O   UNL     1     -41.369 -45.279   9.869  1.00  0.00    -0.266 OA
HETATM    4  H   UNL     1     -41.053 -46.133  12.909  1.00  0.00     0.163 HD
ENDROOT
BRANCH   2   5
HETATM    5  C   UNL     1     -41.926 -47.439  10.887  1.00  0.00     0.364 C 
HETATM    6  F   UNL     1     -40.879 -48.286  10.598  1.00  0.00    -0.188 F 
HETATM    7  F   UNL     1     -42.310 -47.807  12.154  1.00  0.00    -0.188 F 
BRANCH   5   8
HETATM    8  C   UNL     1     -43.069 -47.584   9.889  1.00  0.00     0.091 A 
HETATM    9  C   UNL     1     -44.390 -47.435  10.318  1.00  0.00     0.032 A 
HETATM   10  C   UNL     1     -45.425 -47.616   9.403  1.00  0.00     0.003 A 
HETATM   11  C   UNL     1     -45.122 -47.939   8.087  1.00  0.00     0.017 A 
HETATM   12  C   UNL     1     -43.789 -48.047   7.729  1.00  0.00     0.088 A 
HETATM   13  N   UNL     1     -42.763 -47.871   8.592  1.00  0.00    -0.364 N 
ATOM     14  HN  UNL     1     -41.794 -47.949   8.283  1.00  0.00     0.165 HD
ENDBRANCH   5   8
ENDBRANCH   2   5
BRANCH   1  15
HETATM   15  C   UNL     1     -40.646 -44.093  12.400  1.00  0.00     0.096 C 
HETATM   16  C   UNL     1     -39.219 -44.075  12.963  1.00  0.00     0.033 C 
BRANCH  15  17
HETATM   17  C   UNL     1     -41.677 -43.319  13.279  1.00  0.00     0.092 C 
BRANCH  17  18
HETATM   18  S   UNL     1     -42.981 -42.530  12.210  1.00  0.00    -0.165 SA
HETATM   19  C   UNL     1     -41.933 -41.648  11.024  1.00  0.00     0.090 C 
ENDBRANCH  17  18
BRANCH  17  20
HETATM   20  C   UNL     1     -42.361 -44.249  14.298  1.00  0.00     0.181 C 
BRANCH  20  21
HETATM   21  O   UNL     1     -43.435 -44.984  13.711  1.00  0.00    -0.400 OA
HETATM   22  H   UNL     1     -43.051 -45.480  12.964  1.00  0.00     0.209 HD
ENDBRANCH  20  21
ENDBRANCH  17  20
ENDBRANCH  15  17
ENDBRANCH   1  15
TORSDOF 7
ENDMDL
MODEL 7
REMARK VINA RESULT:      -5.3      4.201      5.285
REMARK  7 active torsions:
REMARK  status: ('A' for Active; 'I' for Inactive)
REMARK    1  A    between atoms: S_2  and  C_3 
REMARK    2  A    between atoms: C_3  and  C_4 
REMARK    3  A    between atoms: C_3  and  C_6 
REMARK    4  A    between atoms: C_4  and  O_5 
REMARK    5  A    between atoms: C_6  and  N_8 
REMARK       I    between atoms: N_8  and  C_9 
REMARK    6  A    between atoms: C_9  and  C_11 
REMARK    7  A    between atoms: C_11  and  C_14 
ROOT
HETATM    1  N   UNL     1     -42.961 -49.135  11.883  1.00  0.00    -0.350 N 
HETATM    2  C   UNL     1     -43.108 -49.357  13.245  1.00  0.00     0.297 C 
HETATM    3  O   UNL     1     -43.127 -48.431  14.057  1.00  0.00    -0.266 OA
HETATM    4  H   UNL     1     -43.012 -49.946  11.271  1.00  0.00     0.163 HD
ENDROOT
BRANCH   2   5
HETATM    5  C   UNL     1     -43.255 -50.847  13.655  1.00  0.00     0.364 C 
HETATM    6  F   UNL     1     -43.185 -51.645  12.536  1.00  0.00    -0.188 F 
HETATM    7  F   UNL     1     -42.175 -51.237  14.410  1.00  0.00    -0.188 F 
BRANCH   5   8
HETATM    8  C   UNL     1     -44.566 -51.036  14.410  1.00  0.00     0.091 A 
HETATM    9  C   UNL     1     -45.709 -51.455  13.725  1.00  0.00     0.032 A 
HETATM   10  C   UNL     1     -46.910 -51.579  14.421  1.00  0.00     0.003 A 
HETATM   11  C   UNL     1     -46.944 -51.284  15.777  1.00  0.00     0.017 A 
HETATM   12  C   UNL     1     -45.766 -50.897  16.394  1.00  0.00     0.088 A 
HETATM   13  N   UNL     1     -44.586 -50.774  15.748  1.00  0.00    -0.364 N 
ATOM     14  HN  UNL     1     -43.739 -50.496  16.243  1.00  0.00     0.165 HD
ENDBRANCH   5   8
ENDBRANCH   2   5
BRANCH   1  15
HETATM   15  C   UNL     1     -42.678 -47.830  11.269  1.00  0.00     0.096 C 
HETATM   16  C   UNL     1     -43.730 -47.550  10.188  1.00  0.00     0.033 C 
BRANCH  15  17
HETATM   17  C   UNL     1     -41.207 -47.681  10.768  1.00  0.00     0.092 C 
BRANCH  17  18
HETATM   18  S   UNL     1     -40.425 -46.154  11.493  1.00  0.00    -0.165 SA
HETATM   19  C   UNL     1     -41.802 -45.531  12.492  1.00  0.00     0.090 C 
ENDBRANCH  17  18
BRANCH  17  20
HETATM   20  C   UNL     1     -40.355 -48.906  11.143  1.00  0.00     0.181 C 
BRANCH  20  21
HETATM   21  O   UNL     1     -40.516 -49.974  10.210  1.00  0.00    -0.400 OA
HETATM   22  H   UNL     1     -41.007 -49.603   9.452  1.00  0.00     0.209 HD
ENDBRANCH  20  21
ENDBRANCH  17  20
ENDBRANCH  15  17
ENDBRANCH   1  15
TORSDOF 7
ENDMDL
MODEL 8
REMARK VINA RESULT:      -5.2      5.343      7.696
REMARK  7 active torsions:
REMARK  status: ('A' for Active; 'I' for Inactive)
REMARK    1  A    between atoms: S_2  and  C_3 
REMARK    2  A    between atoms: C_3  and  C_4 
REMARK    3  A    between atoms: C_3  and  C_6 
REMARK    4  A    between atoms: C_4  and  O_5 
REMARK    5  A    between atoms: C_6  and  N_8 
REMARK       I    between atoms: N_8  and  C_9 
REMARK    6  A    between atoms: C_9  and  C_11 
REMARK    7  A    between atoms: C_11  and  C_14 
ROOT
HETATM    1  N   UNL     1     -41.218 -49.811  12.937  1.00  0.00    -0.350 N 
HETATM    2  C   UNL     1     -40.499 -49.300  11.865  1.00  0.00     0.297 C 
HETATM    3  O   UNL     1     -40.809 -49.542  10.698  1.00  0.00    -0.266 OA
HETATM    4  H   UNL     1     -40.935 -49.520  13.869  1.00  0.00     0.163 HD
ENDROOT
BRANCH   2   5
HETATM    5  C   UNL     1     -39.294 -48.401  12.253  1.00  0.00     0.364 C 
HETATM    6  F   UNL     1     -39.009 -48.558  13.591  1.00  0.00    -0.188 F 
HETATM    7  F   UNL     1     -38.157 -48.837  11.617  1.00  0.00    -0.188 F 
BRANCH   5   8
HETATM    8  C   UNL     1     -39.612 -46.951  11.904  1.00  0.00     0.091 A 
HETATM    9  C   UNL     1     -39.520 -45.962  12.887  1.00  0.00     0.032 A 
HETATM   10  C   UNL     1     -39.859 -44.651  12.563  1.00  0.00     0.003 A 
HETATM   11  C   UNL     1     -40.279 -44.354  11.273  1.00  0.00     0.017 A 
HETATM   12  C   UNL     1     -40.323 -45.382  10.346  1.00  0.00     0.088 A 
HETATM   13  N   UNL     1     -39.995 -46.662  10.628  1.00  0.00    -0.364 N 
ATOM     14  HN  UNL     1     -40.032 -47.387   9.911  1.00  0.00     0.165 HD
ENDBRANCH   5   8
ENDBRANCH   2   5
BRANCH   1  15
HETATM   15  C   UNL     1     -42.313 -50.784  12.826  1.00  0.00     0.096 C 
HETATM   16  C   UNL     1     -43.597 -50.153  13.381  1.00  0.00     0.033 C 
BRANCH  15  17
HETATM   17  C   UNL     1     -41.979 -52.176  13.448  1.00  0.00     0.092 C 
BRANCH  17  18
HETATM   18  S   UNL     1     -43.526 -52.989  14.094  1.00  0.00    -0.165 SA
HETATM   19  C   UNL     1     -44.142 -53.758  12.573  1.00  0.00     0.090 C 
ENDBRANCH  17  18
BRANCH  17  20
HETATM   20  C   UNL     1     -41.316 -53.110  12.419  1.00  0.00     0.181 C 
BRANCH  20  21
HETATM   21  O   UNL     1     -41.220 -52.501  11.132  1.00  0.00    -0.400 OA
HETATM   22  H   UNL     1     -41.585 -51.601  11.227  1.00  0.00     0.209 HD
ENDBRANCH  20  21
ENDBRANCH  17  20
ENDBRANCH  15  17
ENDBRANCH   1  15
TORSDOF 7
ENDMDL
MODEL 9
REMARK VINA RESULT:      -5.1      2.700      3.529
REMARK  7 active torsions:
REMARK  status: ('A' for Active; 'I' for Inactive)
REMARK    1  A    between atoms: S_2  and  C_3 
REMARK    2  A    between atoms: C_3  and  C_4 
REMARK    3  A    between atoms: C_3  and  C_6 
REMARK    4  A    between atoms: C_4  and  O_5 
REMARK    5  A    between atoms: C_6  and  N_8 
REMARK       I    between atoms: N_8  and  C_9 
REMARK    6  A    between atoms: C_9  and  C_11 
REMARK    7  A    between atoms: C_11  and  C_14 
ROOT
HETATM    1  N   UNL     1     -43.417 -53.027  13.705  1.00  0.00    -0.350 N 
HETATM    2  C   UNL     1     -44.728 -52.930  13.260  1.00  0.00     0.297 C 
HETATM    3  O   UNL     1     -45.338 -53.903  12.814  1.00  0.00    -0.266 OA
HETATM    4  H   UNL     1     -43.001 -52.194  14.113  1.00  0.00     0.163 HD
ENDROOT
BRANCH   2   5
HETATM    5  C   UNL     1     -45.360 -51.517  13.382  1.00  0.00     0.364 C 
HETATM    6  F   UNL     1     -46.172 -51.277  12.297  1.00  0.00    -0.188 F 
HETATM    7  F   UNL     1     -46.217 -51.475  14.455  1.00  0.00    -0.188 F 
BRANCH   5   8
HETATM    8  C   UNL     1     -44.252 -50.477  13.507  1.00  0.00     0.091 A 
HETATM    9  C   UNL     1     -43.740 -50.154  14.766  1.00  0.00     0.032 A 
HETATM   10  C   UNL     1     -42.761 -49.169  14.868  1.00  0.00     0.003 A 
HETATM   11  C   UNL     1     -42.314 -48.532  13.718  1.00  0.00     0.017 A 
HETATM   12  C   UNL     1     -42.851 -48.922  12.502  1.00  0.00     0.088 A 
HETATM   13  N   UNL     1     -43.797 -49.878  12.371  1.00  0.00    -0.364 N 
ATOM     14  HN  UNL     1     -44.157 -50.141  11.454  1.00  0.00     0.165 HD
ENDBRANCH   5   8
ENDBRANCH   2   5
BRANCH   1  15
HETATM   15  C   UNL     1     -42.571 -54.221  13.573  1.00  0.00     0.096 C 
HETATM   16  C   UNL     1     -42.442 -54.893  14.947  1.00  0.00     0.033 C 
BRANCH  15  17
HETATM   17  C   UNL     1     -41.201 -53.944  12.880  1.00  0.00     0.092 C 
BRANCH  17  18
HETATM   18  S   UNL     1     -41.210 -52.267  12.067  1.00  0.00    -0.165 SA
HETATM   19  C   UNL     1     -40.034 -51.390  13.130  1.00  0.00     0.090 C 
ENDBRANCH  17  18
BRANCH  17  20
HETATM   20  C   UNL     1     -40.036 -54.006  13.884  1.00  0.00     0.181 C 
BRANCH  20  21
HETATM   21  O   UNL     1     -38.929 -54.747  13.370  1.00  0.00    -0.400 OA
HETATM   22  H   UNL     1     -38.197 -54.110  13.268  1.00  0.00     0.209 HD
ENDBRANCH  20  21
ENDBRANCH  17  20
ENDBRANCH  15  17
ENDBRANCH   1  15
TORSDOF 7
ENDMDL
