MODEL 1
REMARK VINA RESULT:      -6.6      0.000      0.000
REMARK  4 active torsions:
REMARK  status: ('A' for Active; 'I' for Inactive)
REMARK    1  A    between atoms: C_2  and  C_3 
REMARK    2  A    between atoms: C_2  and  C_14 
REMARK       I    between atoms: C_3  and  N_5 
REMARK    3  A    between atoms: N_5  and  C_6 
REMARK    4  A    between atoms: C_6  and  C_7 
ROOT
HETATM    1  C   UNL     1     -42.682 -49.518  12.618  1.00  0.00     0.226 C 
HETATM    2  O   UNL     1     -42.870 -48.575  13.388  1.00  0.00    -0.273 OA
HETATM    3  N   UNL     1     -43.409 -50.687  12.681  1.00  0.00    -0.360 N 
HETATM    4  H   UNL     1     -43.072 -51.484  12.157  1.00  0.00     0.162 HD
ENDROOT
BRANCH   1   5
HETATM    5  C   UNL     1     -41.703 -49.390  11.451  1.00  0.00     0.110 C 
HETATM    6  C   UNL     1     -40.478 -50.258  11.725  1.00  0.00     0.025 C 
BRANCH   5   7
HETATM    7  C   UNL     1     -41.400 -47.959  11.067  1.00  0.00     0.002 A 
HETATM    8  C   UNL     1     -42.073 -47.217  10.047  1.00  0.00     0.031 A 
HETATM    9  C   UNL     1     -43.203 -47.633   9.176  1.00  0.00     0.070 C 
HETATM   10  N   UNL     1     -41.561 -45.994   9.901  1.00  0.00    -0.303 N 
HETATM   11  N   UNL     1     -40.569 -45.934  10.798  1.00  0.00    -0.300 N 
ATOM     12  HN  UNL     1     -41.858 -45.266   9.250  1.00  0.00     0.186 HD
HETATM   13  C   UNL     1     -39.748 -44.747  10.845  1.00  0.00     0.177 C 
HETATM   14  C   UNL     1     -40.467 -47.060  11.578  1.00  0.00     0.033 A 
HETATM   15  C   UNL     1     -39.494 -47.171  12.698  1.00  0.00     0.070 C 
ENDBRANCH   5   7
ENDBRANCH   1   5
BRANCH   3  16
HETATM   16  C   UNL     1     -44.364 -50.932  13.743  1.00  0.00     0.127 C 
BRANCH  16  17
HETATM   17  C   UNL     1     -45.701 -51.481  13.212  1.00  0.00     0.004 C 
HETATM   18  C   UNL     1     -46.877 -51.267  14.183  1.00  0.00     0.006 C 
HETATM   19  C   UNL     1     -46.825 -52.174  15.411  1.00  0.00     0.001 C 
HETATM   20  C   UNL     1     -46.665 -53.645  15.031  1.00  0.00     0.004 C 
HETATM   21  C   UNL     1     -45.448 -53.858  14.123  1.00  0.00    -0.018 C 
HETATM   22  C   UNL     1     -45.285 -55.328  13.748  1.00  0.00     0.010 C 
HETATM   23  C   UNL     1     -45.565 -52.977  12.868  1.00  0.00     0.010 C 
ENDBRANCH  16  17
ENDBRANCH   3  16
TORSDOF 4
ENDMDL
MODEL 2
REMARK VINA RESULT:      -6.2      2.285      3.303
REMARK  4 active torsions:
REMARK  status: ('A' for Active; 'I' for Inactive)
REMARK    1  A    between atoms: C_2  and  C_3 
REMARK    2  A    between atoms: C_2  and  C_14 
REMARK       I    between atoms: C_3  and  N_5 
REMARK    3  A    between atoms: N_5  and  C_6 
REMARK    4  A    between atoms: C_6  and  C_7 
ROOT
HETATM    1  C   UNL     1     -39.606 -50.955  12.013  1.00  0.00     0.226 C 
HETATM    2  O   UNL     1     -39.036 -51.664  12.843  1.00  0.00    -0.273 OA
HETATM    3  N   UNL     1     -40.907 -51.176  11.614  1.00  0.00    -0.360 N 
HETATM    4  H   UNL     1     -41.242 -50.686  10.795  1.00  0.00     0.162 HD
ENDROOT
BRANCH   1   5
HETATM    5  C   UNL     1     -38.933 -49.696  11.466  1.00  0.00     0.110 C 
HETATM    6  C   UNL     1     -37.446 -49.972  11.258  1.00  0.00     0.025 C 
BRANCH   5   7
HETATM    7  C   UNL     1     -39.248 -48.448  12.258  1.00  0.00     0.002 A 
HETATM    8  C   UNL     1     -40.237 -47.476  11.909  1.00  0.00     0.031 A 
HETATM    9  C   UNL     1     -41.177 -47.466  10.758  1.00  0.00     0.070 C 
HETATM   10  N   UNL     1     -40.259 -46.457  12.771  1.00  0.00    -0.303 N 
HETATM   11  N   UNL     1     -39.304 -46.748  13.662  1.00  0.00    -0.300 N 
ATOM     12  HN  UNL     1     -40.869 -45.639  12.754  1.00  0.00     0.186 HD
HETATM   13  C   UNL     1     -39.014 -45.791  14.704  1.00  0.00     0.177 C 
HETATM   14  C   UNL     1     -38.707 -47.966  13.448  1.00  0.00     0.033 A 
HETATM   15  C   UNL     1     -37.683 -48.528  14.370  1.00  0.00     0.070 C 
ENDBRANCH   5   7
ENDBRANCH   1   5
BRANCH   3  16
HETATM   16  C   UNL     1     -41.651 -52.337  12.057  1.00  0.00     0.127 C 
BRANCH  16  17
HETATM   17  C   UNL     1     -42.348 -52.104  13.411  1.00  0.00     0.004 C 
HETATM   18  C   UNL     1     -42.272 -53.320  14.353  1.00  0.00     0.006 C 
HETATM   19  C   UNL     1     -43.172 -54.478  13.926  1.00  0.00     0.001 C 
HETATM   20  C   UNL     1     -44.613 -54.029  13.695  1.00  0.00     0.004 C 
HETATM   21  C   UNL     1     -44.684 -52.865  12.699  1.00  0.00    -0.018 C 
HETATM   22  C   UNL     1     -46.124 -52.421  12.464  1.00  0.00     0.010 C 
HETATM   23  C   UNL     1     -43.817 -51.695  13.193  1.00  0.00     0.010 C 
ENDBRANCH  16  17
ENDBRANCH   3  16
TORSDOF 4
ENDMDL
MODEL 3
REMARK VINA RESULT:      -6.0      2.189      3.522
REMARK  4 active torsions:
REMARK  status: ('A' for Active; 'I' for Inactive)
REMARK    1  A    between atoms: C_2  and  C_3 
REMARK    2  A    between atoms: C_2  and  C_14 
REMARK       I    between atoms: C_3  and  N_5 
REMARK    3  A    between atoms: N_5  and  C_6 
REMARK    4  A    between atoms: C_6  and  C_7 
ROOT
HETATM    1  C   UNL     1     -40.970 -52.348  12.929  1.00  0.00     0.226 C 
HETATM    2  O   UNL     1     -40.497 -53.140  12.113  1.00  0.00    -0.273 OA
HETATM    3  N   UNL     1     -42.209 -52.526  13.506  1.00  0.00    -0.360 N 
HETATM    4  H   UNL     1     -42.615 -51.746  14.007  1.00  0.00     0.162 HD
ENDROOT
BRANCH   1   5
HETATM    5  C   UNL     1     -40.142 -51.173  13.449  1.00  0.00     0.110 C 
HETATM    6  C   UNL     1     -40.534 -50.882  14.894  1.00  0.00     0.025 C 
BRANCH   5   7
HETATM    7  C   UNL     1     -40.149 -49.973  12.529  1.00  0.00     0.002 A 
HETATM    8  C   UNL     1     -39.010 -49.459  11.833  1.00  0.00     0.031 A 
HETATM    9  C   UNL     1     -37.615 -49.968  11.813  1.00  0.00     0.070 C 
HETATM   10  N   UNL     1     -39.309 -48.363  11.132  1.00  0.00    -0.303 N 
HETATM   11  N   UNL     1     -40.611 -48.157  11.366  1.00  0.00    -0.300 N 
ATOM     12  HN  UNL     1     -38.685 -47.807  10.547  1.00  0.00     0.186 HD
HETATM   13  C   UNL     1     -41.238 -46.983  10.805  1.00  0.00     0.177 C 
HETATM   14  C   UNL     1     -41.189 -49.130  12.143  1.00  0.00     0.033 A 
HETATM   15  C   UNL     1     -42.644 -49.148  12.452  1.00  0.00     0.070 C 
ENDBRANCH   5   7
ENDBRANCH   1   5
BRANCH   3  16
HETATM   16  C   UNL     1     -43.092 -53.598  13.095  1.00  0.00     0.127 C 
BRANCH  16  17
HETATM   17  C   UNL     1     -44.227 -53.841  14.107  1.00  0.00     0.004 C 
HETATM   18  C   UNL     1     -45.625 -53.873  13.460  1.00  0.00     0.006 C 
HETATM   19  C   UNL     1     -46.121 -52.500  13.014  1.00  0.00     0.001 C 
HETATM   20  C   UNL     1     -46.041 -51.468  14.138  1.00  0.00     0.004 C 
HETATM   21  C   UNL     1     -44.627 -51.391  14.726  1.00  0.00    -0.018 C 
HETATM   22  C   UNL     1     -44.546 -50.357  15.844  1.00  0.00     0.010 C 
HETATM   23  C   UNL     1     -44.186 -52.778  15.222  1.00  0.00     0.010 C 
ENDBRANCH  16  17
ENDBRANCH   3  16
TORSDOF 4
ENDMDL
MODEL 4
REMARK VINA RESULT:      -6.0      2.595      3.845
REMARK  4 active torsions:
REMARK  status: ('A' for Active; 'I' for Inactive)
REMARK    1  A    between atoms: C_2  and  C_3 
REMARK    2  A    between atoms: C_2  and  C_14 
REMARK       I    between atoms: C_3  and  N_5 
REMARK    3  A    between atoms: N_5  and  C_6 
REMARK    4  A    between atoms: C_6  and  C_7 
ROOT
HETATM    1  C   UNL     1     -39.549 -50.958  11.997  1.00  0.00     0.226 C 
HETATM    2  O   UNL     1     -38.919 -51.701  12.749  1.00  0.00    -0.273 OA
HETATM    3  N   UNL     1     -40.879 -51.158  11.696  1.00  0.00    -0.360 N 
HETATM    4  H   UNL     1     -41.275 -50.634  10.926  1.00  0.00     0.162 HD
ENDROOT
BRANCH   1   5
HETATM    5  C   UNL     1     -38.914 -49.680  11.448  1.00  0.00     0.110 C 
HETATM    6  C   UNL     1     -37.429 -49.925  11.195  1.00  0.00     0.025 C 
BRANCH   5   7
HETATM    7  C   UNL     1     -39.229 -48.448  12.265  1.00  0.00     0.002 A 
HETATM    8  C   UNL     1     -38.646 -48.123  13.530  1.00  0.00     0.031 A 
HETATM    9  C   UNL     1     -37.611 -48.859  14.302  1.00  0.00     0.070 C 
HETATM   10  N   UNL     1     -39.151 -46.997  14.036  1.00  0.00    -0.303 N 
HETATM   11  N   UNL     1     -40.051 -46.594  13.132  1.00  0.00    -0.300 N 
ATOM     12  HN  UNL     1     -38.907 -46.544  14.918  1.00  0.00     0.186 HD
HETATM   13  C   UNL     1     -40.846 -45.423  13.419  1.00  0.00     0.177 C 
HETATM   14  C   UNL     1     -40.096 -47.386  12.011  1.00  0.00     0.033 A 
HETATM   15  C   UNL     1     -40.959 -47.070  10.841  1.00  0.00     0.070 C 
ENDBRANCH   5   7
ENDBRANCH   1   5
BRANCH   3  16
HETATM   16  C   UNL     1     -41.593 -52.334  12.150  1.00  0.00     0.127 C 
BRANCH  16  17
HETATM   17  C   UNL     1     -42.252 -52.122  13.525  1.00  0.00     0.004 C 
HETATM   18  C   UNL     1     -41.450 -52.737  14.688  1.00  0.00     0.006 C 
HETATM   19  C   UNL     1     -41.512 -54.262  14.731  1.00  0.00     0.001 C 
HETATM   20  C   UNL     1     -42.949 -54.779  14.700  1.00  0.00     0.004 C 
HETATM   21  C   UNL     1     -43.718 -54.219  13.497  1.00  0.00    -0.018 C 
HETATM   22  C   UNL     1     -45.151 -54.739  13.462  1.00  0.00     0.010 C 
HETATM   23  C   UNL     1     -43.688 -52.681  13.522  1.00  0.00     0.010 C 
ENDBRANCH  16  17
ENDBRANCH   3  16
TORSDOF 4
ENDMDL
MODEL 5
REMARK VINA RESULT:      -5.9      2.123      2.581
REMARK  4 active torsions:
REMARK  status: ('A' for Active; 'I' for Inactive)
REMARK    1  A    between atoms: C_2  and  C_3 
REMARK    2  A    between atoms: C_2  and  C_14 
REMARK       I    between atoms: C_3  and  N_5 
REMARK    3  A    between atoms: N_5  and  C_6 
REMARK    4  A    between atoms: C_6  and  C_7 
ROOT
HETATM    1  C   UNL     1     -40.931 -50.451  12.482  1.00  0.00     0.226 C 
HETATM    2  O   UNL     1     -40.498 -50.634  13.620  1.00  0.00    -0.273 OA
HETATM    3  N   UNL     1     -42.158 -50.924  12.068  1.00  0.00    -0.360 N 
HETATM    4  H   UNL     1     -42.361 -50.911  11.077  1.00  0.00     0.162 HD
ENDROOT
BRANCH   1   5
HETATM    5  C   UNL     1     -40.175 -49.566  11.491  1.00  0.00     0.110 C 
HETATM    6  C   UNL     1     -38.692 -49.924  11.527  1.00  0.00     0.025 C 
BRANCH   5   7
HETATM    7  C   UNL     1     -40.482 -48.093  11.639  1.00  0.00     0.002 A 
HETATM    8  C   UNL     1     -41.443 -47.367  10.869  1.00  0.00     0.031 A 
HETATM    9  C   UNL     1     -42.359 -47.860   9.808  1.00  0.00     0.070 C 
HETATM   10  N   UNL     1     -41.463 -46.072  11.189  1.00  0.00    -0.303 N 
HETATM   11  N   UNL     1     -40.532 -45.946  12.143  1.00  0.00    -0.300 N 
ATOM     12  HN  UNL     1     -42.056 -45.340  10.796  1.00  0.00     0.186 HD
HETATM   13  C   UNL     1     -40.244 -44.629  12.660  1.00  0.00     0.177 C 
HETATM   14  C   UNL     1     -39.955 -47.138  12.506  1.00  0.00     0.033 A 
HETATM   15  C   UNL     1     -38.962 -47.241  13.610  1.00  0.00     0.070 C 
ENDBRANCH   5   7
ENDBRANCH   1   5
BRANCH   3  16
HETATM   16  C   UNL     1     -42.967 -51.779  12.912  1.00  0.00     0.127 C 
BRANCH  16  17
HETATM   17  C   UNL     1     -42.885 -53.259  12.496  1.00  0.00     0.004 C 
HETATM   18  C   UNL     1     -44.208 -54.022  12.691  1.00  0.00     0.006 C 
HETATM   19  C   UNL     1     -44.539 -54.303  14.156  1.00  0.00     0.001 C 
HETATM   20  C   UNL     1     -43.381 -54.981  14.886  1.00  0.00     0.004 C 
HETATM   21  C   UNL     1     -42.084 -54.175  14.746  1.00  0.00    -0.018 C 
HETATM   22  C   UNL     1     -40.929 -54.849  15.480  1.00  0.00     0.010 C 
HETATM   23  C   UNL     1     -41.749 -53.967  13.260  1.00  0.00     0.010 C 
ENDBRANCH  16  17
ENDBRANCH   3  16
TORSDOF 4
ENDMDL
MODEL 6
REMARK VINA RESULT:      -5.9      1.263      2.428
REMARK  4 active torsions:
REMARK  status: ('A' for Active; 'I' for Inactive)
REMARK    1  A    between atoms: C_2  and  C_3 
REMARK    2  A    between atoms: C_2  and  C_14 
REMARK       I    between atoms: C_3  and  N_5 
REMARK    3  A    between atoms: N_5  and  C_6 
REMARK    4  A    between atoms: C_6  and  C_7 
ROOT
HETATM    1  C   UNL     1     -42.381 -49.577  12.782  1.00  0.00     0.226 C 
HETATM    2  O   UNL     1     -41.731 -50.328  12.054  1.00  0.00    -0.273 OA
HETATM    3  N   UNL     1     -43.321 -50.041  13.678  1.00  0.00    -0.360 N 
HETATM    4  H   UNL     1     -43.951 -49.368  14.095  1.00  0.00     0.162 HD
ENDROOT
BRANCH   1   5
HETATM    5  C   UNL     1     -42.085 -48.078  12.824  1.00  0.00     0.110 C 
HETATM    6  C   UNL     1     -42.891 -47.438  13.950  1.00  0.00     0.025 C 
BRANCH   5   7
HETATM    7  C   UNL     1     -42.211 -47.398  11.480  1.00  0.00     0.002 A 
HETATM    8  C   UNL     1     -41.193 -46.615  10.851  1.00  0.00     0.031 A 
HETATM    9  C   UNL     1     -39.816 -46.316  11.321  1.00  0.00     0.070 C 
HETATM   10  N   UNL     1     -41.606 -46.102   9.690  1.00  0.00    -0.303 N 
HETATM   11  N   UNL     1     -42.867 -46.531   9.561  1.00  0.00    -0.300 N 
ATOM     12  HN  UNL     1     -41.078 -45.514   9.045  1.00  0.00     0.186 HD
HETATM   13  C   UNL     1     -43.639 -46.081   8.426  1.00  0.00     0.177 C 
HETATM   14  C   UNL     1     -43.266 -47.372  10.570  1.00  0.00     0.033 A 
HETATM   15  C   UNL     1     -44.598 -48.037  10.577  1.00  0.00     0.070 C 
ENDBRANCH   5   7
ENDBRANCH   1   5
BRANCH   3  16
HETATM   16  C   UNL     1     -43.695 -51.439  13.733  1.00  0.00     0.127 C 
BRANCH  16  17
HETATM   17  C   UNL     1     -45.024 -51.718  13.005  1.00  0.00     0.004 C 
HETATM   18  C   UNL     1     -46.253 -51.160  13.747  1.00  0.00     0.006 C 
HETATM   19  C   UNL     1     -46.612 -51.945  15.007  1.00  0.00     0.001 C 
HETATM   20  C   UNL     1     -46.746 -53.441  14.733  1.00  0.00     0.004 C 
HETATM   21  C   UNL     1     -45.487 -54.002  14.061  1.00  0.00    -0.018 C 
HETATM   22  C   UNL     1     -45.619 -55.497  13.792  1.00  0.00     0.010 C 
HETATM   23  C   UNL     1     -45.194 -53.230  12.763  1.00  0.00     0.010 C 
ENDBRANCH  16  17
ENDBRANCH   3  16
TORSDOF 4
ENDMDL
MODEL 7
REMARK VINA RESULT:      -5.9      3.780      4.992
REMARK  4 active torsions:
REMARK  status: ('A' for Active; 'I' for Inactive)
REMARK    1  A    between atoms: C_2  and  C_3 
REMARK    2  A    between atoms: C_2  and  C_14 
REMARK       I    between atoms: C_3  and  N_5 
REMARK    3  A    between atoms: N_5  and  C_6 
REMARK    4  A    between atoms: C_6  and  C_7 
ROOT
HETATM    1  C   UNL     1     -41.619 -54.341  15.064  1.00  0.00     0.226 C 
HETATM    2  O   UNL     1     -41.677 -54.268  16.292  1.00  0.00    -0.273 OA
HETATM    3  N   UNL     1     -42.742 -54.452  14.272  1.00  0.00    -0.360 N 
HETATM    4  H   UNL     1     -42.614 -54.706  13.301  1.00  0.00     0.162 HD
ENDROOT
BRANCH   1   5
HETATM    5  C   UNL     1     -40.286 -54.182  14.333  1.00  0.00     0.110 C 
HETATM    6  C   UNL     1     -39.226 -55.028  15.033  1.00  0.00     0.025 C 
BRANCH   5   7
HETATM    7  C   UNL     1     -39.898 -52.742  14.088  1.00  0.00     0.002 A 
HETATM    8  C   UNL     1     -40.258 -51.973  12.938  1.00  0.00     0.031 A 
HETATM    9  C   UNL     1     -41.090 -52.365  11.771  1.00  0.00     0.070 C 
HETATM   10  N   UNL     1     -39.734 -50.746  12.975  1.00  0.00    -0.303 N 
HETATM   11  N   UNL     1     -39.039 -50.711  14.118  1.00  0.00    -0.300 N 
ATOM     12  HN  UNL     1     -39.839 -50.001  12.285  1.00  0.00     0.186 HD
HETATM   13  C   UNL     1     -38.273 -49.525  14.427  1.00  0.00     0.177 C 
HETATM   14  C   UNL     1     -39.155 -51.856  14.866  1.00  0.00     0.033 A 
HETATM   15  C   UNL     1     -38.539 -51.997  16.214  1.00  0.00     0.070 C 
ENDBRANCH   5   7
ENDBRANCH   1   5
BRANCH   3  16
HETATM   16  C   UNL     1     -44.063 -54.615  14.844  1.00  0.00     0.127 C 
BRANCH  16  17
HETATM   17  C   UNL     1     -45.180 -54.290  13.836  1.00  0.00     0.004 C 
HETATM   18  C   UNL     1     -44.733 -53.331  12.717  1.00  0.00     0.006 C 
HETATM   19  C   UNL     1     -44.541 -51.891  13.189  1.00  0.00     0.001 C 
HETATM   20  C   UNL     1     -45.767 -51.363  13.930  1.00  0.00     0.004 C 
HETATM   21  C   UNL     1     -46.161 -52.286  15.089  1.00  0.00    -0.018 C 
HETATM   22  C   UNL     1     -47.382 -51.756  15.833  1.00  0.00     0.010 C 
HETATM   23  C   UNL     1     -46.408 -53.712  14.566  1.00  0.00     0.010 C 
ENDBRANCH  16  17
ENDBRANCH   3  16
TORSDOF 4
ENDMDL
MODEL 8
REMARK VINA RESULT:      -5.8      3.619      4.159
REMARK  4 active torsions:
REMARK  status: ('A' for Active; 'I' for Inactive)
REMARK    1  A    between atoms: C_2  and  C_3 
REMARK    2  A    between atoms: C_2  and  C_14 
REMARK       I    between atoms: C_3  and  N_5 
REMARK    3  A    between atoms: N_5  and  C_6 
REMARK    4  A    between atoms: C_6  and  C_7 
ROOT
HETATM    1  C   UNL     1     -40.943 -52.201  13.476  1.00  0.00     0.226 C 
HETATM    2  O   UNL     1     -41.363 -52.209  12.318  1.00  0.00    -0.273 OA
HETATM    3  N   UNL     1     -41.766 -52.375  14.567  1.00  0.00    -0.360 N 
HETATM    4  H   UNL     1     -41.393 -52.161  15.483  1.00  0.00     0.162 HD
ENDROOT
BRANCH   1   5
HETATM    5  C   UNL     1     -39.443 -52.124  13.763  1.00  0.00     0.110 C 
HETATM    6  C   UNL     1     -39.097 -53.091  14.892  1.00  0.00     0.025 C 
BRANCH   5   7
HETATM    7  C   UNL     1     -38.934 -50.713  13.949  1.00  0.00     0.002 A 
HETATM    8  C   UNL     1     -38.079 -50.016  13.039  1.00  0.00     0.031 A 
HETATM    9  C   UNL     1     -37.532 -50.467  11.734  1.00  0.00     0.070 C 
HETATM   10  N   UNL     1     -37.756 -48.802  13.490  1.00  0.00    -0.303 N 
HETATM   11  N   UNL     1     -38.378 -48.704  14.671  1.00  0.00    -0.300 N 
ATOM     12  HN  UNL     1     -37.167 -48.103  13.036  1.00  0.00     0.186 HD
HETATM   13  C   UNL     1     -38.168 -47.519  15.469  1.00  0.00     0.177 C 
HETATM   14  C   UNL     1     -39.159 -49.793  14.972  1.00  0.00     0.033 A 
HETATM   15  C   UNL     1     -40.008 -49.856  16.191  1.00  0.00     0.070 C 
ENDBRANCH   5   7
ENDBRANCH   1   5
BRANCH   3  16
HETATM   16  C   UNL     1     -43.206 -52.456  14.428  1.00  0.00     0.127 C 
BRANCH  16  17
HETATM   17  C   UNL     1     -43.870 -51.066  14.400  1.00  0.00     0.004 C 
HETATM   18  C   UNL     1     -44.678 -50.751  15.673  1.00  0.00     0.006 C 
HETATM   19  C   UNL     1     -45.985 -51.533  15.773  1.00  0.00     0.001 C 
HETATM   20  C   UNL     1     -46.836 -51.392  14.513  1.00  0.00     0.004 C 
HETATM   21  C   UNL     1     -46.045 -51.779  13.257  1.00  0.00    -0.018 C 
HETATM   22  C   UNL     1     -46.896 -51.644  11.999  1.00  0.00     0.010 C 
HETATM   23  C   UNL     1     -44.768 -50.927  13.156  1.00  0.00     0.010 C 
ENDBRANCH  16  17
ENDBRANCH   3  16
TORSDOF 4
ENDMDL
MODEL 9
REMARK VINA RESULT:      -5.7      5.007      6.249
REMARK  4 active torsions:
REMARK  status: ('A' for Active; 'I' for Inactive)
REMARK    1  A    between atoms: C_2  and  C_3 
REMARK    2  A    between atoms: C_2  and  C_14 
REMARK       I    between atoms: C_3  and  N_5 
REMARK    3  A    between atoms: N_5  and  C_6 
REMARK    4  A    between atoms: C_6  and  C_7 
ROOT
HETATM    1  C   UNL     1     -43.859 -54.632  15.642  1.00  0.00     0.226 C 
HETATM    2  O   UNL     1     -44.456 -54.782  16.709  1.00  0.00    -0.273 OA
HETATM    3  N   UNL     1     -44.404 -53.951  14.574  1.00  0.00    -0.360 N 
HETATM    4  H   UNL     1     -43.948 -54.037  13.675  1.00  0.00     0.162 HD
ENDROOT
BRANCH   1   5
HETATM    5  C   UNL     1     -42.408 -55.089  15.487  1.00  0.00     0.110 C 
HETATM    6  C   UNL     1     -42.096 -56.139  16.549  1.00  0.00     0.025 C 
BRANCH   5   7
HETATM    7  C   UNL     1     -41.420 -53.948  15.403  1.00  0.00     0.002 A 
HETATM    8  C   UNL     1     -40.699 -53.564  14.230  1.00  0.00     0.031 A 
HETATM    9  C   UNL     1     -40.762 -54.137  12.861  1.00  0.00     0.070 C 
HETATM   10  N   UNL     1     -39.863 -52.551  14.469  1.00  0.00    -0.303 N 
HETATM   11  N   UNL     1     -40.025 -52.280  15.769  1.00  0.00    -0.300 N 
ATOM     12  HN  UNL     1     -39.240 -52.086  13.807  1.00  0.00     0.186 HD
HETATM   13  C   UNL     1     -39.193 -51.265  16.374  1.00  0.00     0.177 C 
HETATM   14  C   UNL     1     -40.997 -53.039  16.371  1.00  0.00     0.033 A 
HETATM   15  C   UNL     1     -41.404 -52.841  17.789  1.00  0.00     0.070 C 
ENDBRANCH   5   7
ENDBRANCH   1   5
BRANCH   3  16
HETATM   16  C   UNL     1     -45.771 -53.473  14.595  1.00  0.00     0.127 C 
BRANCH  16  17
HETATM   17  C   UNL     1     -45.864 -51.957  14.343  1.00  0.00     0.004 C 
HETATM   18  C   UNL     1     -44.601 -51.188  14.775  1.00  0.00     0.006 C 
HETATM   19  C   UNL     1     -44.447 -51.073  16.291  1.00  0.00     0.001 C 
HETATM   20  C   UNL     1     -45.705 -50.515  16.954  1.00  0.00     0.004 C 
HETATM   21  C   UNL     1     -46.946 -51.333  16.576  1.00  0.00    -0.018 C 
HETATM   22  C   UNL     1     -48.201 -50.780  17.243  1.00  0.00     0.010 C 
HETATM   23  C   UNL     1     -47.104 -51.373  15.047  1.00  0.00     0.010 C 
ENDBRANCH  16  17
ENDBRANCH   3  16
TORSDOF 4
ENDMDL
