MODEL 1
REMARK VINA RESULT:      -5.9      0.000      0.000
REMARK  4 active torsions:
REMARK  status: ('A' for Active; 'I' for Inactive)
REMARK    1  A    between atoms: C_2  and  C_5 
REMARK    2  A    between atoms: C_8  and  N_9 
REMARK    3  A    between atoms: N_9  and  C_10 
REMARK    4  A    between atoms: C_10  and  C_11 
ROOT
HETATM    1  C   UNL     1     -44.962 -47.660   9.261  1.00  0.00     0.063 A 
HETATM    2  C   UNL     1     -44.478 -47.646  10.568  1.00  0.00     0.021 A 
HETATM    3  C   UNL     1     -43.211 -47.123  10.826  1.00  0.00     0.049 A 
HETATM    4  C   UNL     1     -42.454 -46.594   9.783  1.00  0.00     0.100 A 
HETATM    5  N   UNL     1     -42.902 -46.622   8.512  1.00  0.00    -0.352 N 
ATOM      6  HN  UNL     1     -42.337 -46.251   7.749  1.00  0.00     0.166 HD
HETATM    7  C   UNL     1     -44.126 -47.160   8.276  1.00  0.00     0.106 A 
ENDROOT
BRANCH   4   8
HETATM    8  N   UNL     1     -41.257 -45.960  10.098  1.00  0.00    -0.374 N 
HETATM    9  H   UNL     1     -41.018 -45.213   9.447  1.00  0.00     0.161 HD
BRANCH   8  10
HETATM   10  C   UNL     1     -40.993 -45.607  11.490  1.00  0.00     0.153 C 
BRANCH  10  11
HETATM   11  C   UNL     1     -41.287 -44.142  11.825  1.00  0.00     0.139 C 
HETATM   12  C   UNL     1     -42.549 -43.863  12.622  1.00  0.00     0.035 C 
HETATM   13  C   UNL     1     -42.961 -42.470  12.184  1.00  0.00     0.029 C 
HETATM   14  C   UNL     1     -42.004 -42.109  11.064  1.00  0.00     0.168 C 
HETATM   15  O   UNL     1     -41.417 -43.342  10.633  1.00  0.00    -0.384 OA
ENDBRANCH  10  11
ENDBRANCH   8  10
ENDBRANCH   4   8
BRANCH   1  16
HETATM   16  C   UNL     1     -46.324 -48.157   8.898  1.00  0.00     0.418 C 
HETATM   17  F   UNL     1     -47.291 -47.200   8.975  1.00  0.00    -0.166 F 
HETATM   18  F   UNL     1     -46.740 -49.173   9.702  1.00  0.00    -0.166 F 
HETATM   19  F   UNL     1     -46.382 -48.641   7.626  1.00  0.00    -0.166 F 
ENDBRANCH   1  16
TORSDOF 4
ENDMDL
MODEL 2
REMARK VINA RESULT:      -5.8      1.824      2.345
REMARK  4 active torsions:
REMARK  status: ('A' for Active; 'I' for Inactive)
REMARK    1  A    between atoms: C_2  and  C_5 
REMARK    2  A    between atoms: C_8  and  N_9 
REMARK    3  A    between atoms: N_9  and  C_10 
REMARK    4  A    between atoms: C_10  and  C_11 
ROOT
HETATM    1  C   UNL     1     -45.160 -47.866   9.172  1.00  0.00     0.063 A 
HETATM    2  C   UNL     1     -44.708 -47.711  10.481  1.00  0.00     0.021 A 
HETATM    3  C   UNL     1     -43.423 -47.221  10.711  1.00  0.00     0.049 A 
HETATM    4  C   UNL     1     -42.615 -46.864   9.634  1.00  0.00     0.100 A 
HETATM    5  N   UNL     1     -43.033 -47.031   8.363  1.00  0.00    -0.352 N 
ATOM      6  HN  UNL     1     -42.432 -46.785   7.577  1.00  0.00     0.166 HD
HETATM    7  C   UNL     1     -44.276 -47.535   8.159  1.00  0.00     0.106 A 
ENDROOT
BRANCH   4   8
HETATM    8  N   UNL     1     -41.395 -46.253   9.903  1.00  0.00    -0.374 N 
HETATM    9  H   UNL     1     -41.452 -45.235   9.911  1.00  0.00     0.161 HD
BRANCH   8  10
HETATM   10  C   UNL     1     -40.564 -46.785  10.980  1.00  0.00     0.153 C 
BRANCH  10  11
HETATM   11  C   UNL     1     -40.320 -45.795  12.122  1.00  0.00     0.139 C 
HETATM   12  C   UNL     1     -39.802 -44.421  11.736  1.00  0.00     0.035 C 
HETATM   13  C   UNL     1     -38.998 -43.978  12.944  1.00  0.00     0.029 C 
HETATM   14  C   UNL     1     -38.983 -45.179  13.870  1.00  0.00     0.168 C 
HETATM   15  O   UNL     1     -39.357 -46.303  13.067  1.00  0.00    -0.384 OA
ENDBRANCH  10  11
ENDBRANCH   8  10
ENDBRANCH   4   8
BRANCH   1  16
HETATM   16  C   UNL     1     -46.537 -48.340   8.833  1.00  0.00     0.418 C 
HETATM   17  F   UNL     1     -46.981 -49.345   9.640  1.00  0.00    -0.166 F 
HETATM   18  F   UNL     1     -46.627 -48.816   7.561  1.00  0.00    -0.166 F 
HETATM   19  F   UNL     1     -47.468 -47.351   8.928  1.00  0.00    -0.166 F 
ENDBRANCH   1  16
TORSDOF 4
ENDMDL
MODEL 3
REMARK VINA RESULT:      -5.8      6.783      7.938
REMARK  4 active torsions:
REMARK  status: ('A' for Active; 'I' for Inactive)
REMARK    1  A    between atoms: C_2  and  C_5 
REMARK    2  A    between atoms: C_8  and  N_9 
REMARK    3  A    between atoms: N_9  and  C_10 
REMARK    4  A    between atoms: C_10  and  C_11 
ROOT
HETATM    1  C   UNL     1     -44.386 -54.078  13.578  1.00  0.00     0.063 A 
HETATM    2  C   UNL     1     -43.086 -54.361  13.995  1.00  0.00     0.021 A 
HETATM    3  C   UNL     1     -42.007 -53.826  13.294  1.00  0.00     0.049 A 
HETATM    4  C   UNL     1     -42.236 -52.990  12.203  1.00  0.00     0.100 A 
HETATM    5  N   UNL     1     -43.487 -52.727  11.777  1.00  0.00    -0.352 N 
ATOM      6  HN  UNL     1     -43.650 -52.130  10.966  1.00  0.00     0.166 HD
HETATM    7  C   UNL     1     -44.524 -53.279  12.455  1.00  0.00     0.106 A 
ENDROOT
BRANCH   4   8
HETATM    8  N   UNL     1     -41.142 -52.367  11.614  1.00  0.00    -0.374 N 
HETATM    9  H   UNL     1     -40.969 -52.682  10.660  1.00  0.00     0.161 HD
BRANCH   8  10
HETATM   10  C   UNL     1     -40.985 -50.923  11.773  1.00  0.00     0.153 C 
BRANCH  10  11
HETATM   11  C   UNL     1     -39.622 -50.506  12.333  1.00  0.00     0.139 C 
HETATM   12  C   UNL     1     -38.760 -49.625  11.445  1.00  0.00     0.035 C 
HETATM   13  C   UNL     1     -37.339 -49.975  11.847  1.00  0.00     0.029 C 
HETATM   14  C   UNL     1     -37.478 -51.131  12.819  1.00  0.00     0.168 C 
HETATM   15  O   UNL     1     -38.798 -51.651  12.630  1.00  0.00    -0.384 OA
ENDBRANCH  10  11
ENDBRANCH   8  10
ENDBRANCH   4   8
BRANCH   1  16
HETATM   16  C   UNL     1     -45.601 -54.570  14.296  1.00  0.00     0.418 C 
HETATM   17  F   UNL     1     -46.020 -55.798  13.877  1.00  0.00    -0.166 F 
HETATM   18  F   UNL     1     -46.669 -53.740  14.145  1.00  0.00    -0.166 F 
HETATM   19  F   UNL     1     -45.405 -54.685  15.638  1.00  0.00    -0.166 F 
ENDBRANCH   1  16
TORSDOF 4
ENDMDL
MODEL 4
REMARK VINA RESULT:      -5.7      6.182      7.135
REMARK  4 active torsions:
REMARK  status: ('A' for Active; 'I' for Inactive)
REMARK    1  A    between atoms: C_2  and  C_5 
REMARK    2  A    between atoms: C_8  and  N_9 
REMARK    3  A    between atoms: N_9  and  C_10 
REMARK    4  A    between atoms: C_10  and  C_11 
ROOT
HETATM    1  C   UNL     1     -43.058 -54.089  13.642  1.00  0.00     0.063 A 
HETATM    2  C   UNL     1     -41.675 -53.973  13.769  1.00  0.00     0.021 A 
HETATM    3  C   UNL     1     -40.976 -53.117  12.918  1.00  0.00     0.049 A 
HETATM    4  C   UNL     1     -41.668 -52.365  11.972  1.00  0.00     0.100 A 
HETATM    5  N   UNL     1     -43.002 -52.485  11.825  1.00  0.00    -0.352 N 
ATOM      6  HN  UNL     1     -43.502 -51.946  11.118  1.00  0.00     0.166 HD
HETATM    7  C   UNL     1     -43.662 -53.344  12.643  1.00  0.00     0.106 A 
ENDROOT
BRANCH   4   8
HETATM    8  N   UNL     1     -40.957 -51.423  11.236  1.00  0.00    -0.374 N 
HETATM    9  H   UNL     1     -41.407 -51.184  10.353  1.00  0.00     0.161 HD
BRANCH   8  10
HETATM   10  C   UNL     1     -40.405 -50.261  11.927  1.00  0.00     0.153 C 
BRANCH  10  11
HETATM   11  C   UNL     1     -41.190 -48.967  11.688  1.00  0.00     0.139 C 
HETATM   12  C   UNL     1     -42.583 -48.894  12.288  1.00  0.00     0.035 C 
HETATM   13  C   UNL     1     -43.337 -47.965  11.353  1.00  0.00     0.029 C 
HETATM   14  C   UNL     1     -42.379 -47.694  10.209  1.00  0.00     0.168 C 
HETATM   15  O   UNL     1     -41.377 -48.714  10.282  1.00  0.00    -0.384 OA
ENDBRANCH  10  11
ENDBRANCH   8  10
ENDBRANCH   4   8
BRANCH   1  16
HETATM   16  C   UNL     1     -43.893 -54.946  14.539  1.00  0.00     0.418 C 
HETATM   17  F   UNL     1     -44.472 -54.258  15.563  1.00  0.00    -0.166 F 
HETATM   18  F   UNL     1     -43.177 -55.948  15.119  1.00  0.00    -0.166 F 
HETATM   19  F   UNL     1     -44.916 -55.554  13.877  1.00  0.00    -0.166 F 
ENDBRANCH   1  16
TORSDOF 4
ENDMDL
MODEL 5
REMARK VINA RESULT:      -5.7      7.405      8.892
REMARK  4 active torsions:
REMARK  status: ('A' for Active; 'I' for Inactive)
REMARK    1  A    between atoms: C_2  and  C_5 
REMARK    2  A    between atoms: C_8  and  N_9 
REMARK    3  A    between atoms: N_9  and  C_10 
REMARK    4  A    between atoms: C_10  and  C_11 
ROOT
HETATM    1  C   UNL     1     -39.015 -50.920  12.570  1.00  0.00     0.063 A 
HETATM    2  C   UNL     1     -39.484 -51.983  13.340  1.00  0.00     0.021 A 
HETATM    3  C   UNL     1     -40.747 -52.515  13.079  1.00  0.00     0.049 A 
HETATM    4  C   UNL     1     -41.513 -52.001  12.036  1.00  0.00     0.100 A 
HETATM    5  N   UNL     1     -41.079 -50.959  11.299  1.00  0.00    -0.352 N 
ATOM      6  HN  UNL     1     -41.651 -50.574  10.549  1.00  0.00     0.166 HD
HETATM    7  C   UNL     1     -39.860 -50.436  11.585  1.00  0.00     0.106 A 
ENDROOT
BRANCH   4   8
HETATM    8  N   UNL     1     -42.704 -52.644  11.718  1.00  0.00    -0.374 N 
HETATM    9  H   UNL     1     -42.652 -53.177  10.852  1.00  0.00     0.161 HD
BRANCH   8  10
HETATM   10  C   UNL     1     -43.428 -53.347  12.775  1.00  0.00     0.153 C 
BRANCH  10  11
HETATM   11  C   UNL     1     -44.875 -52.880  12.953  1.00  0.00     0.139 C 
HETATM   12  C   UNL     1     -45.081 -51.423  13.328  1.00  0.00     0.035 C 
HETATM   13  C   UNL     1     -46.378 -51.426  14.116  1.00  0.00     0.029 C 
HETATM   14  C   UNL     1     -46.744 -52.890  14.269  1.00  0.00     0.168 C 
HETATM   15  O   UNL     1     -45.550 -53.628  13.984  1.00  0.00    -0.384 OA
ENDBRANCH  10  11
ENDBRANCH   8  10
ENDBRANCH   4   8
BRANCH   1  16
HETATM   16  C   UNL     1     -37.658 -50.317  12.748  1.00  0.00     0.418 C 
HETATM   17  F   UNL     1     -37.524 -49.612  13.907  1.00  0.00    -0.166 F 
HETATM   18  F   UNL     1     -37.334 -49.455  11.746  1.00  0.00    -0.166 F 
HETATM   19  F   UNL     1     -36.669 -51.253  12.769  1.00  0.00    -0.166 F 
ENDBRANCH   1  16
TORSDOF 4
ENDMDL
MODEL 6
REMARK VINA RESULT:      -5.6      6.238      6.926
REMARK  4 active torsions:
REMARK  status: ('A' for Active; 'I' for Inactive)
REMARK    1  A    between atoms: C_2  and  C_5 
REMARK    2  A    between atoms: C_8  and  N_9 
REMARK    3  A    between atoms: N_9  and  C_10 
REMARK    4  A    between atoms: C_10  and  C_11 
ROOT
HETATM    1  C   UNL     1     -45.177 -51.878  13.257  1.00  0.00     0.063 A 
HETATM    2  C   UNL     1     -44.201 -50.923  13.537  1.00  0.00     0.021 A 
HETATM    3  C   UNL     1     -42.907 -51.098  13.048  1.00  0.00     0.049 A 
HETATM    4  C   UNL     1     -42.609 -52.208  12.260  1.00  0.00     0.100 A 
HETATM    5  N   UNL     1     -43.539 -53.149  12.001  1.00  0.00    -0.352 N 
ATOM      6  HN  UNL     1     -43.311 -53.969  11.439  1.00  0.00     0.166 HD
HETATM    7  C   UNL     1     -44.785 -52.976  12.508  1.00  0.00     0.106 A 
ENDROOT
BRANCH   4   8
HETATM    8  N   UNL     1     -41.349 -52.279  11.677  1.00  0.00    -0.374 N 
HETATM    9  H   UNL     1     -41.197 -51.565  10.965  1.00  0.00     0.161 HD
BRANCH   8  10
HETATM   10  C   UNL     1     -40.186 -52.479  12.539  1.00  0.00     0.153 C 
BRANCH  10  11
HETATM   11  C   UNL     1     -39.301 -51.237  12.685  1.00  0.00     0.139 C 
HETATM   12  C   UNL     1     -39.576 -50.088  11.731  1.00  0.00     0.035 C 
HETATM   13  C   UNL     1     -38.228 -49.407  11.578  1.00  0.00     0.029 C 
HETATM   14  C   UNL     1     -37.251 -50.294  12.325  1.00  0.00     0.168 C 
HETATM   15  O   UNL     1     -37.908 -51.554  12.492  1.00  0.00    -0.384 OA
ENDBRANCH  10  11
ENDBRANCH   8  10
ENDBRANCH   4   8
BRANCH   1  16
HETATM   16  C   UNL     1     -46.599 -51.750  13.701  1.00  0.00     0.418 C 
HETATM   17  F   UNL     1     -47.424 -51.243  12.743  1.00  0.00    -0.166 F 
HETATM   18  F   UNL     1     -46.737 -50.936  14.782  1.00  0.00    -0.166 F 
HETATM   19  F   UNL     1     -47.143 -52.945  14.062  1.00  0.00    -0.166 F 
ENDBRANCH   1  16
TORSDOF 4
ENDMDL
MODEL 7
REMARK VINA RESULT:      -5.6      6.700      7.959
REMARK  4 active torsions:
REMARK  status: ('A' for Active; 'I' for Inactive)
REMARK    1  A    between atoms: C_2  and  C_5 
REMARK    2  A    between atoms: C_8  and  N_9 
REMARK    3  A    between atoms: N_9  and  C_10 
REMARK    4  A    between atoms: C_10  and  C_11 
ROOT
HETATM    1  C   UNL     1     -45.047 -51.843  13.113  1.00  0.00     0.063 A 
HETATM    2  C   UNL     1     -44.146 -50.817  13.396  1.00  0.00     0.021 A 
HETATM    3  C   UNL     1     -42.823 -50.926  12.968  1.00  0.00     0.049 A 
HETATM    4  C   UNL     1     -42.422 -52.043  12.238  1.00  0.00     0.100 A 
HETATM    5  N   UNL     1     -43.278 -53.051  11.978  1.00  0.00    -0.352 N 
ATOM      6  HN  UNL     1     -42.975 -53.875  11.459  1.00  0.00     0.166 HD
HETATM    7  C   UNL     1     -44.554 -52.940  12.426  1.00  0.00     0.106 A 
ENDROOT
BRANCH   4   8
HETATM    8  N   UNL     1     -41.135 -52.054  11.712  1.00  0.00    -0.374 N 
HETATM    9  H   UNL     1     -41.042 -51.486  10.870  1.00  0.00     0.161 HD
BRANCH   8  10
HETATM   10  C   UNL     1     -40.001 -51.910  12.622  1.00  0.00     0.153 C 
BRANCH  10  11
HETATM   11  C   UNL     1     -40.024 -52.889  13.800  1.00  0.00     0.139 C 
HETATM   12  C   UNL     1     -39.640 -52.331  15.159  1.00  0.00     0.035 C 
HETATM   13  C   UNL     1     -39.050 -53.521  15.892  1.00  0.00     0.029 C 
HETATM   14  C   UNL     1     -38.996 -54.632  14.862  1.00  0.00     0.168 C 
HETATM   15  O   UNL     1     -39.126 -53.996  13.586  1.00  0.00    -0.384 OA
ENDBRANCH  10  11
ENDBRANCH   8  10
ENDBRANCH   4   8
BRANCH   1  16
HETATM   16  C   UNL     1     -46.492 -51.790  13.492  1.00  0.00     0.418 C 
HETATM   17  F   UNL     1     -47.009 -53.004  13.832  1.00  0.00    -0.166 F 
HETATM   18  F   UNL     1     -47.279 -51.318  12.487  1.00  0.00    -0.166 F 
HETATM   19  F   UNL     1     -46.723 -50.977  14.559  1.00  0.00    -0.166 F 
ENDBRANCH   1  16
TORSDOF 4
ENDMDL
MODEL 8
REMARK VINA RESULT:      -5.6      6.639      7.761
REMARK  4 active torsions:
REMARK  status: ('A' for Active; 'I' for Inactive)
REMARK    1  A    between atoms: C_2  and  C_5 
REMARK    2  A    between atoms: C_8  and  N_9 
REMARK    3  A    between atoms: N_9  and  C_10 
REMARK    4  A    between atoms: C_10  and  C_11 
ROOT
HETATM    1  C   UNL     1     -42.910 -54.104  13.730  1.00  0.00     0.063 A 
HETATM    2  C   UNL     1     -41.550 -53.869  13.925  1.00  0.00     0.021 A 
HETATM    3  C   UNL     1     -40.867 -53.021  13.053  1.00  0.00     0.049 A 
HETATM    4  C   UNL     1     -41.555 -52.395  12.016  1.00  0.00     0.100 A 
HETATM    5  N   UNL     1     -42.865 -52.632  11.804  1.00  0.00    -0.352 N 
ATOM      6  HN  UNL     1     -43.359 -52.185  11.032  1.00  0.00     0.166 HD
HETATM    7  C   UNL     1     -43.506 -53.481  12.646  1.00  0.00     0.106 A 
ENDROOT
BRANCH   4   8
HETATM    8  N   UNL     1     -40.874 -51.452  11.253  1.00  0.00    -0.374 N 
HETATM    9  H   UNL     1     -40.897 -51.655  10.255  1.00  0.00     0.161 HD
BRANCH   8  10
HETATM   10  C   UNL     1     -41.065 -50.035  11.551  1.00  0.00     0.153 C 
BRANCH  10  11
HETATM   11  C   UNL     1     -39.795 -49.325  12.029  1.00  0.00     0.139 C 
HETATM   12  C   UNL     1     -38.474 -50.007  11.721  1.00  0.00     0.035 C 
HETATM   13  C   UNL     1     -37.559 -49.564  12.848  1.00  0.00     0.029 C 
HETATM   14  C   UNL     1     -38.451 -48.791  13.799  1.00  0.00     0.168 C 
HETATM   15  O   UNL     1     -39.795 -49.148  13.460  1.00  0.00    -0.384 OA
ENDBRANCH  10  11
ENDBRANCH   8  10
ENDBRANCH   4   8
BRANCH   1  16
HETATM   16  C   UNL     1     -43.731 -54.960  14.639  1.00  0.00     0.418 C 
HETATM   17  F   UNL     1     -43.044 -56.015  15.161  1.00  0.00    -0.166 F 
HETATM   18  F   UNL     1     -44.817 -55.494  14.016  1.00  0.00    -0.166 F 
HETATM   19  F   UNL     1     -44.217 -54.271  15.708  1.00  0.00    -0.166 F 
ENDBRANCH   1  16
TORSDOF 4
ENDMDL
MODEL 9
REMARK VINA RESULT:      -5.2      5.768      7.479
REMARK  4 active torsions:
REMARK  status: ('A' for Active; 'I' for Inactive)
REMARK    1  A    between atoms: C_2  and  C_5 
REMARK    2  A    between atoms: C_8  and  N_9 
REMARK    3  A    between atoms: N_9  and  C_10 
REMARK    4  A    between atoms: C_10  and  C_11 
ROOT
HETATM    1  C   UNL     1     -40.439 -47.046  11.100  1.00  0.00     0.063 A 
HETATM    2  C   UNL     1     -39.487 -47.814  11.768  1.00  0.00     0.021 A 
HETATM    3  C   UNL     1     -39.662 -49.194  11.867  1.00  0.00     0.049 A 
HETATM    4  C   UNL     1     -40.769 -49.795  11.272  1.00  0.00     0.100 A 
HETATM    5  N   UNL     1     -41.708 -49.060  10.642  1.00  0.00    -0.352 N 
ATOM      6  HN  UNL     1     -42.526 -49.503  10.224  1.00  0.00     0.166 HD
HETATM    7  C   UNL     1     -41.534 -47.716  10.580  1.00  0.00     0.106 A 
ENDROOT
BRANCH   4   8
HETATM    8  N   UNL     1     -40.840 -51.184  11.273  1.00  0.00    -0.374 N 
HETATM    9  H   UNL     1     -40.342 -51.609  10.493  1.00  0.00     0.161 HD
BRANCH   8  10
HETATM   10  C   UNL     1     -40.643 -51.897  12.532  1.00  0.00     0.153 C 
BRANCH  10  11
HETATM   11  C   UNL     1     -41.938 -52.427  13.155  1.00  0.00     0.139 C 
HETATM   12  C   UNL     1     -41.845 -53.742  13.907  1.00  0.00     0.035 C 
HETATM   13  C   UNL     1     -43.226 -54.353  13.753  1.00  0.00     0.029 C 
HETATM   14  C   UNL     1     -43.962 -53.429  12.803  1.00  0.00     0.168 C 
HETATM   15  O   UNL     1     -42.956 -52.642  12.157  1.00  0.00    -0.384 OA
ENDBRANCH  10  11
ENDBRANCH   8  10
ENDBRANCH   4   8
BRANCH   1  16
HETATM   16  C   UNL     1     -40.310 -45.569  10.906  1.00  0.00     0.418 C 
HETATM   17  F   UNL     1     -41.496 -44.948  10.652  1.00  0.00    -0.166 F 
HETATM   18  F   UNL     1     -39.491 -45.248   9.867  1.00  0.00    -0.166 F 
HETATM   19  F   UNL     1     -39.790 -44.942  11.997  1.00  0.00    -0.166 F 
ENDBRANCH   1  16
TORSDOF 4
ENDMDL
