MODEL 1
REMARK VINA RESULT:      -5.7      0.000      0.000
REMARK  4 active torsions:
REMARK  status: ('A' for Active; 'I' for Inactive)
REMARK    1  A    between atoms: C_2  and  C_3 
REMARK    2  A    between atoms: C_2  and  N_10 
REMARK    3  A    between atoms: C_3  and  N_4 
REMARK       I    between atoms: N_10  and  C_11 
REMARK    4  A    between atoms: C_11  and  C_13 
ROOT
HETATM    1  N   UNL     1     -41.877 -50.445  11.913  1.00  0.00    -0.355 N 
HETATM    2  C   UNL     1     -42.836 -51.159  12.590  1.00  0.00     0.222 C 
HETATM    3  O   UNL     1     -43.691 -50.605  13.278  1.00  0.00    -0.273 OA
HETATM    4  H   UNL     1     -41.300 -50.922  11.229  1.00  0.00     0.162 HD
ENDROOT
BRANCH   1   5
HETATM    5  C   UNL     1     -41.831 -48.973  11.981  1.00  0.00     0.100 C 
HETATM    6  C   UNL     1     -40.828 -48.559  13.056  1.00  0.00     0.034 C 
BRANCH   5   7
HETATM    7  C   UNL     1     -41.531 -48.359  10.603  1.00  0.00     0.172 C 
BRANCH   7   8
HETATM    8  N   UNL     1     -42.705 -47.920   9.875  1.00  0.00    -0.302 N 
HETATM    9  C   UNL     1     -43.869 -47.429  10.397  1.00  0.00     0.111 A 
HETATM   10  C   UNL     1     -44.705 -47.204   9.328  1.00  0.00     0.037 A 
HETATM   11  C   UNL     1     -43.959 -47.600   8.202  1.00  0.00     0.108 A 
HETATM   12  N   UNL     1     -42.743 -48.045   8.532  1.00  0.00    -0.310 N 
ATOM     13  HN  UNL     1     -42.013 -48.398   7.913  1.00  0.00     0.186 HD
ENDBRANCH   7   8
ENDBRANCH   5   7
ENDBRANCH   1   5
BRANCH   2  14
HETATM   14  C   UNL     1     -42.840 -52.672  12.385  1.00  0.00     0.081 C 
HETATM   15  C   UNL     1     -44.240 -53.305  12.449  1.00  0.00     0.018 C 
HETATM   16  C   UNL     1     -44.576 -54.168  13.666  1.00  0.00     0.027 C 
HETATM   17  C   UNL     1     -43.411 -54.789  14.356  1.00  0.00    -0.031 C 
HETATM   18  C   UNL     1     -42.144 -54.412  14.157  1.00  0.00    -0.030 C 
HETATM   19  C   UNL     1     -41.730 -53.326  13.220  1.00  0.00     0.041 C 
ENDBRANCH   2  14
TORSDOF 4
ENDMDL
MODEL 2
REMARK VINA RESULT:      -5.6      4.621      7.476
REMARK  4 active torsions:
REMARK  status: ('A' for Active; 'I' for Inactive)
REMARK    1  A    between atoms: C_2  and  C_3 
REMARK    2  A    between atoms: C_2  and  N_10 
REMARK    3  A    between atoms: C_3  and  N_4 
REMARK       I    between atoms: N_10  and  C_11 
REMARK    4  A    between atoms: C_11  and  C_13 
ROOT
HETATM    1  N   UNL     1     -43.234 -53.863  13.530  1.00  0.00    -0.355 N 
HETATM    2  C   UNL     1     -44.309 -54.586  13.988  1.00  0.00     0.222 C 
HETATM    3  O   UNL     1     -44.166 -55.620  14.638  1.00  0.00    -0.273 OA
HETATM    4  H   UNL     1     -43.391 -52.938  13.147  1.00  0.00     0.162 HD
ENDROOT
BRANCH   1   5
HETATM    5  C   UNL     1     -41.851 -54.298  13.800  1.00  0.00     0.100 C 
HETATM    6  C   UNL     1     -40.931 -53.716  12.729  1.00  0.00     0.034 C 
BRANCH   5   7
HETATM    7  C   UNL     1     -41.422 -53.934  15.233  1.00  0.00     0.172 C 
BRANCH   7   8
HETATM    8  N   UNL     1     -40.888 -55.044  15.997  1.00  0.00    -0.302 N 
HETATM    9  C   UNL     1     -39.573 -55.337  16.226  1.00  0.00     0.111 A 
HETATM   10  C   UNL     1     -39.560 -56.507  16.949  1.00  0.00     0.037 A 
HETATM   11  C   UNL     1     -40.917 -56.849  17.098  1.00  0.00     0.108 A 
HETATM   12  N   UNL     1     -41.729 -55.965  16.512  1.00  0.00    -0.310 N 
ATOM     13  HN  UNL     1     -42.748 -55.982  16.464  1.00  0.00     0.186 HD
ENDBRANCH   7   8
ENDBRANCH   5   7
ENDBRANCH   1   5
BRANCH   2  14
HETATM   14  C   UNL     1     -45.695 -54.003  13.720  1.00  0.00     0.081 C 
HETATM   15  C   UNL     1     -45.698 -52.846  12.707  1.00  0.00     0.018 C 
HETATM   16  C   UNL     1     -45.971 -51.437  13.236  1.00  0.00     0.027 C 
HETATM   17  C   UNL     1     -46.757 -51.365  14.499  1.00  0.00    -0.031 C 
HETATM   18  C   UNL     1     -46.967 -52.412  15.302  1.00  0.00    -0.030 C 
HETATM   19  C   UNL     1     -46.447 -53.787  15.041  1.00  0.00     0.041 C 
ENDBRANCH   2  14
TORSDOF 4
ENDMDL
MODEL 3
REMARK VINA RESULT:      -5.6      1.669      2.180
REMARK  4 active torsions:
REMARK  status: ('A' for Active; 'I' for Inactive)
REMARK    1  A    between atoms: C_2  and  C_3 
REMARK    2  A    between atoms: C_2  and  N_10 
REMARK    3  A    between atoms: C_3  and  N_4 
REMARK       I    between atoms: N_10  and  C_11 
REMARK    4  A    between atoms: C_11  and  C_13 
ROOT
HETATM    1  N   UNL     1     -42.738 -51.545  12.611  1.00  0.00    -0.355 N 
HETATM    2  C   UNL     1     -43.936 -51.493  13.283  1.00  0.00     0.222 C 
HETATM    3  O   UNL     1     -44.164 -50.637  14.136  1.00  0.00    -0.273 OA
HETATM    4  H   UNL     1     -42.653 -52.155  11.806  1.00  0.00     0.162 HD
ENDROOT
BRANCH   1   5
HETATM    5  C   UNL     1     -41.667 -50.570  12.884  1.00  0.00     0.100 C 
HETATM    6  C   UNL     1     -40.580 -51.249  13.714  1.00  0.00     0.034 C 
BRANCH   5   7
HETATM    7  C   UNL     1     -41.136 -49.945  11.581  1.00  0.00     0.172 C 
BRANCH   7   8
HETATM    8  N   UNL     1     -41.929 -48.839  11.082  1.00  0.00    -0.302 N 
HETATM    9  C   UNL     1     -42.949 -48.194  11.722  1.00  0.00     0.111 A 
HETATM   10  C   UNL     1     -43.430 -47.259  10.835  1.00  0.00     0.037 A 
HETATM   11  C   UNL     1     -42.640 -47.424   9.681  1.00  0.00     0.108 A 
HETATM   12  N   UNL     1     -41.730 -48.392   9.824  1.00  0.00    -0.310 N 
ATOM     13  HN  UNL     1     -41.045 -48.717   9.142  1.00  0.00     0.186 HD
ENDBRANCH   7   8
ENDBRANCH   5   7
ENDBRANCH   1   5
BRANCH   2  14
HETATM   14  C   UNL     1     -45.004 -52.501  12.866  1.00  0.00     0.081 C 
HETATM   15  C   UNL     1     -46.374 -52.265  13.523  1.00  0.00     0.018 C 
HETATM   16  C   UNL     1     -46.837 -53.264  14.584  1.00  0.00     0.027 C 
HETATM   17  C   UNL     1     -46.249 -54.629  14.483  1.00  0.00    -0.031 C 
HETATM   18  C   UNL     1     -45.180 -54.923  13.737  1.00  0.00    -0.030 C 
HETATM   19  C   UNL     1     -44.436 -53.928  12.909  1.00  0.00     0.041 C 
ENDBRANCH   2  14
TORSDOF 4
ENDMDL
MODEL 4
REMARK VINA RESULT:      -5.6      2.245      4.197
REMARK  4 active torsions:
REMARK  status: ('A' for Active; 'I' for Inactive)
REMARK    1  A    between atoms: C_2  and  C_3 
REMARK    2  A    between atoms: C_2  and  N_10 
REMARK    3  A    between atoms: C_3  and  N_4 
REMARK       I    between atoms: N_10  and  C_11 
REMARK    4  A    between atoms: C_11  and  C_13 
ROOT
HETATM    1  N   UNL     1     -42.239 -49.639  11.832  1.00  0.00    -0.355 N 
HETATM    2  C   UNL     1     -41.997 -50.953  12.156  1.00  0.00     0.222 C 
HETATM    3  O   UNL     1     -41.049 -51.575  11.681  1.00  0.00    -0.273 OA
HETATM    4  H   UNL     1     -42.924 -49.119  12.367  1.00  0.00     0.162 HD
ENDROOT
BRANCH   1   5
HETATM    5  C   UNL     1     -41.364 -48.912  10.895  1.00  0.00     0.100 C 
HETATM    6  C   UNL     1     -42.219 -47.970  10.049  1.00  0.00     0.034 C 
BRANCH   5   7
HETATM    7  C   UNL     1     -40.224 -48.194  11.639  1.00  0.00     0.172 C 
BRANCH   7   8
HETATM    8  N   UNL     1     -39.105 -49.047  11.986  1.00  0.00    -0.302 N 
HETATM    9  C   UNL     1     -38.480 -49.144  13.197  1.00  0.00     0.111 A 
HETATM   10  C   UNL     1     -37.446 -50.035  13.027  1.00  0.00     0.037 A 
HETATM   11  C   UNL     1     -37.523 -50.414  11.673  1.00  0.00     0.108 A 
HETATM   12  N   UNL     1     -38.527 -49.808  11.034  1.00  0.00    -0.310 N 
ATOM     13  HN  UNL     1     -38.794 -49.899  10.053  1.00  0.00     0.186 HD
ENDBRANCH   7   8
ENDBRANCH   5   7
ENDBRANCH   1   5
BRANCH   2  14
HETATM   14  C   UNL     1     -42.918 -51.585  13.197  1.00  0.00     0.081 C 
HETATM   15  C   UNL     1     -43.089 -53.105  13.037  1.00  0.00     0.018 C 
HETATM   16  C   UNL     1     -44.440 -53.623  12.543  1.00  0.00     0.027 C 
HETATM   17  C   UNL     1     -45.606 -52.735  12.811  1.00  0.00    -0.031 C 
HETATM   18  C   UNL     1     -45.495 -51.454  13.175  1.00  0.00    -0.030 C 
HETATM   19  C   UNL     1     -44.194 -50.745  13.361  1.00  0.00     0.041 C 
ENDBRANCH   2  14
TORSDOF 4
ENDMDL
MODEL 5
REMARK VINA RESULT:      -5.4      3.200      5.665
REMARK  4 active torsions:
REMARK  status: ('A' for Active; 'I' for Inactive)
REMARK    1  A    between atoms: C_2  and  C_3 
REMARK    2  A    between atoms: C_2  and  N_10 
REMARK    3  A    between atoms: C_3  and  N_4 
REMARK       I    between atoms: N_10  and  C_11 
REMARK    4  A    between atoms: C_11  and  C_13 
ROOT
HETATM    1  N   UNL     1     -43.111 -51.747  12.585  1.00  0.00    -0.355 N 
HETATM    2  C   UNL     1     -43.699 -52.981  12.720  1.00  0.00     0.222 C 
HETATM    3  O   UNL     1     -43.033 -54.006  12.856  1.00  0.00    -0.273 OA
HETATM    4  H   UNL     1     -43.690 -50.917  12.642  1.00  0.00     0.162 HD
ENDROOT
BRANCH   1   5
HETATM    5  C   UNL     1     -41.644 -51.595  12.600  1.00  0.00     0.100 C 
HETATM    6  C   UNL     1     -41.267 -50.361  11.783  1.00  0.00     0.034 C 
BRANCH   5   7
HETATM    7  C   UNL     1     -41.102 -51.559  14.039  1.00  0.00     0.172 C 
BRANCH   7   8
HETATM    8  N   UNL     1     -40.319 -52.721  14.413  1.00  0.00    -0.302 N 
HETATM    9  C   UNL     1     -39.712 -52.961  15.613  1.00  0.00     0.111 A 
HETATM   10  C   UNL     1     -39.044 -54.156  15.474  1.00  0.00     0.037 A 
HETATM   11  C   UNL     1     -39.300 -54.555  14.148  1.00  0.00     0.108 A 
HETATM   12  N   UNL     1     -40.070 -53.679  13.496  1.00  0.00    -0.310 N 
ATOM     13  HN  UNL     1     -40.393 -53.724  12.529  1.00  0.00     0.186 HD
ENDBRANCH   7   8
ENDBRANCH   5   7
ENDBRANCH   1   5
BRANCH   2  14
HETATM   14  C   UNL     1     -45.225 -53.014  12.771  1.00  0.00     0.081 C 
HETATM   15  C   UNL     1     -45.870 -51.638  13.004  1.00  0.00     0.018 C 
HETATM   16  C   UNL     1     -46.524 -51.378  14.361  1.00  0.00     0.027 C 
HETATM   17  C   UNL     1     -46.992 -52.589  15.092  1.00  0.00    -0.031 C 
HETATM   18  C   UNL     1     -46.626 -53.834  14.776  1.00  0.00    -0.030 C 
HETATM   19  C   UNL     1     -45.704 -54.177  13.652  1.00  0.00     0.041 C 
ENDBRANCH   2  14
TORSDOF 4
ENDMDL
MODEL 6
REMARK VINA RESULT:      -5.4      2.017      3.083
REMARK  4 active torsions:
REMARK  status: ('A' for Active; 'I' for Inactive)
REMARK    1  A    between atoms: C_2  and  C_3 
REMARK    2  A    between atoms: C_2  and  N_10 
REMARK    3  A    between atoms: C_3  and  N_4 
REMARK       I    between atoms: N_10  and  C_11 
REMARK    4  A    between atoms: C_11  and  C_13 
ROOT
HETATM    1  N   UNL     1     -42.651 -52.282  13.245  1.00  0.00    -0.355 N 
HETATM    2  C   UNL     1     -43.895 -51.715  13.105  1.00  0.00     0.222 C 
HETATM    3  O   UNL     1     -44.061 -50.498  13.140  1.00  0.00    -0.273 OA
HETATM    4  H   UNL     1     -42.535 -53.269  13.044  1.00  0.00     0.162 HD
ENDROOT
BRANCH   1   5
HETATM    5  C   UNL     1     -41.451 -51.449  13.444  1.00  0.00     0.100 C 
HETATM    6  C   UNL     1     -40.536 -52.133  14.458  1.00  0.00     0.034 C 
BRANCH   5   7
HETATM    7  C   UNL     1     -40.754 -51.146  12.105  1.00  0.00     0.172 C 
BRANCH   7   8
HETATM    8  N   UNL     1     -40.855 -49.765  11.678  1.00  0.00    -0.302 N 
HETATM    9  C   UNL     1     -39.920 -48.779  11.831  1.00  0.00     0.111 A 
HETATM   10  C   UNL     1     -40.484 -47.632  11.324  1.00  0.00     0.037 A 
HETATM   11  C   UNL     1     -41.767 -48.025  10.897  1.00  0.00     0.108 A 
HETATM   12  N   UNL     1     -42.000 -49.321  11.119  1.00  0.00    -0.310 N 
ATOM     13  HN  UNL     1     -42.846 -49.853  10.914  1.00  0.00     0.186 HD
ENDBRANCH   7   8
ENDBRANCH   5   7
ENDBRANCH   1   5
BRANCH   2  14
HETATM   14  C   UNL     1     -45.056 -52.666  12.824  1.00  0.00     0.081 C 
HETATM   15  C   UNL     1     -46.363 -52.280  13.537  1.00  0.00     0.018 C 
HETATM   16  C   UNL     1     -46.831 -53.163  14.694  1.00  0.00     0.027 C 
HETATM   17  C   UNL     1     -46.351 -54.573  14.662  1.00  0.00    -0.031 C 
HETATM   18  C   UNL     1     -45.354 -55.000  13.883  1.00  0.00    -0.030 C 
HETATM   19  C   UNL     1     -44.592 -54.125  12.942  1.00  0.00     0.041 C 
ENDBRANCH   2  14
TORSDOF 4
ENDMDL
MODEL 7
REMARK VINA RESULT:      -5.3      3.135      4.797
REMARK  4 active torsions:
REMARK  status: ('A' for Active; 'I' for Inactive)
REMARK    1  A    between atoms: C_2  and  C_3 
REMARK    2  A    between atoms: C_2  and  N_10 
REMARK    3  A    between atoms: C_3  and  N_4 
REMARK       I    between atoms: N_10  and  C_11 
REMARK    4  A    between atoms: C_11  and  C_13 
ROOT
HETATM    1  N   UNL     1     -42.771 -52.433  14.119  1.00  0.00    -0.355 N 
HETATM    2  C   UNL     1     -42.855 -51.213  14.746  1.00  0.00     0.222 C 
HETATM    3  O   UNL     1     -41.884 -50.699  15.298  1.00  0.00    -0.273 OA
HETATM    4  H   UNL     1     -43.542 -52.741  13.538  1.00  0.00     0.162 HD
ENDROOT
BRANCH   1   5
HETATM    5  C   UNL     1     -41.503 -53.184  14.079  1.00  0.00     0.100 C 
HETATM    6  C   UNL     1     -41.754 -54.605  14.581  1.00  0.00     0.034 C 
BRANCH   5   7
HETATM    7  C   UNL     1     -40.871 -53.139  12.676  1.00  0.00     0.172 C 
BRANCH   7   8
HETATM    8  N   UNL     1     -40.356 -51.839  12.295  1.00  0.00    -0.302 N 
HETATM    9  C   UNL     1     -39.302 -51.169  12.849  1.00  0.00     0.111 A 
HETATM   10  C   UNL     1     -39.228 -49.960  12.197  1.00  0.00     0.037 A 
HETATM   11  C   UNL     1     -40.289 -49.990  11.271  1.00  0.00     0.108 A 
HETATM   12  N   UNL     1     -40.983 -51.129  11.334  1.00  0.00    -0.310 N 
ATOM     13  HN  UNL     1     -41.799 -51.400  10.784  1.00  0.00     0.186 HD
ENDBRANCH   7   8
ENDBRANCH   5   7
ENDBRANCH   1   5
BRANCH   2  14
HETATM   14  C   UNL     1     -44.194 -50.486  14.658  1.00  0.00     0.081 C 
HETATM   15  C   UNL     1     -44.911 -50.335  16.010  1.00  0.00     0.018 C 
HETATM   16  C   UNL     1     -46.170 -51.170  16.246  1.00  0.00     0.027 C 
HETATM   17  C   UNL     1     -46.907 -51.585  15.019  1.00  0.00    -0.031 C 
HETATM   18  C   UNL     1     -46.392 -51.520  13.788  1.00  0.00    -0.030 C 
HETATM   19  C   UNL     1     -45.018 -51.024  13.479  1.00  0.00     0.041 C 
ENDBRANCH   2  14
TORSDOF 4
ENDMDL
MODEL 8
REMARK VINA RESULT:      -5.2      3.773      5.452
REMARK  4 active torsions:
REMARK  status: ('A' for Active; 'I' for Inactive)
REMARK    1  A    between atoms: C_2  and  C_3 
REMARK    2  A    between atoms: C_2  and  N_10 
REMARK    3  A    between atoms: C_3  and  N_4 
REMARK       I    between atoms: N_10  and  C_11 
REMARK    4  A    between atoms: C_11  and  C_13 
ROOT
HETATM    1  N   UNL     1     -43.067 -53.588  13.788  1.00  0.00    -0.355 N 
HETATM    2  C   UNL     1     -44.100 -54.420  14.146  1.00  0.00     0.222 C 
HETATM    3  O   UNL     1     -43.911 -55.448  14.794  1.00  0.00    -0.273 OA
HETATM    4  H   UNL     1     -43.281 -52.675  13.404  1.00  0.00     0.162 HD
ENDROOT
BRANCH   1   5
HETATM    5  C   UNL     1     -41.675 -53.892  14.169  1.00  0.00     0.100 C 
HETATM    6  C   UNL     1     -40.918 -54.371  12.932  1.00  0.00     0.034 C 
BRANCH   5   7
HETATM    7  C   UNL     1     -41.010 -52.689  14.860  1.00  0.00     0.172 C 
BRANCH   7   8
HETATM    8  N   UNL     1     -40.109 -51.935  14.012  1.00  0.00    -0.302 N 
HETATM    9  C   UNL     1     -38.742 -51.942  14.040  1.00  0.00     0.111 A 
HETATM   10  C   UNL     1     -38.333 -51.031  13.094  1.00  0.00     0.037 A 
HETATM   11  C   UNL     1     -39.528 -50.518  12.554  1.00  0.00     0.108 A 
HETATM   12  N   UNL     1     -40.612 -51.060  13.117  1.00  0.00    -0.310 N 
ATOM     13  HN  UNL     1     -41.592 -50.858  12.917  1.00  0.00     0.186 HD
ENDBRANCH   7   8
ENDBRANCH   5   7
ENDBRANCH   1   5
BRANCH   2  14
HETATM   14  C   UNL     1     -45.509 -53.969  13.770  1.00  0.00     0.081 C 
HETATM   15  C   UNL     1     -45.543 -52.856  12.709  1.00  0.00     0.018 C 
HETATM   16  C   UNL     1     -45.966 -51.456  13.157  1.00  0.00     0.027 C 
HETATM   17  C   UNL     1     -46.834 -51.403  14.366  1.00  0.00    -0.031 C 
HETATM   18  C   UNL     1     -47.008 -52.432  15.200  1.00  0.00    -0.030 C 
HETATM   19  C   UNL     1     -46.360 -53.767  15.032  1.00  0.00     0.041 C 
ENDBRANCH   2  14
TORSDOF 4
ENDMDL
MODEL 9
REMARK VINA RESULT:      -5.2      3.763      5.949
REMARK  4 active torsions:
REMARK  status: ('A' for Active; 'I' for Inactive)
REMARK    1  A    between atoms: C_2  and  C_3 
REMARK    2  A    between atoms: C_2  and  N_10 
REMARK    3  A    between atoms: C_3  and  N_4 
REMARK       I    between atoms: N_10  and  C_11 
REMARK    4  A    between atoms: C_11  and  C_13 
ROOT
HETATM    1  N   UNL     1     -42.021 -52.600  13.452  1.00  0.00    -0.355 N 
HETATM    2  C   UNL     1     -40.664 -52.616  13.232  1.00  0.00     0.222 C 
HETATM    3  O   UNL     1     -40.094 -53.603  12.771  1.00  0.00    -0.273 OA
HETATM    4  H   UNL     1     -42.472 -51.719  13.673  1.00  0.00     0.162 HD
ENDROOT
BRANCH   1   5
HETATM    5  C   UNL     1     -42.858 -53.772  13.141  1.00  0.00     0.100 C 
HETATM    6  C   UNL     1     -43.160 -54.522  14.437  1.00  0.00     0.034 C 
BRANCH   5   7
HETATM    7  C   UNL     1     -44.124 -53.364  12.366  1.00  0.00     0.172 C 
BRANCH   7   8
HETATM    8  N   UNL     1     -45.179 -52.813  13.193  1.00  0.00    -0.302 N 
HETATM    9  C   UNL     1     -45.277 -51.536  13.671  1.00  0.00     0.111 A 
HETATM   10  C   UNL     1     -46.411 -51.502  14.447  1.00  0.00     0.037 A 
HETATM   11  C   UNL     1     -46.926 -52.811  14.384  1.00  0.00     0.108 A 
HETATM   12  N   UNL     1     -46.172 -53.615  13.628  1.00  0.00    -0.310 N 
ATOM     13  HN  UNL     1     -46.315 -54.605  13.427  1.00  0.00     0.186 HD
ENDBRANCH   7   8
ENDBRANCH   5   7
ENDBRANCH   1   5
BRANCH   2  14
HETATM   14  C   UNL     1     -39.906 -51.322  13.515  1.00  0.00     0.081 C 
HETATM   15  C   UNL     1     -40.257 -50.172  12.556  1.00  0.00     0.018 C 
HETATM   16  C   UNL     1     -39.202 -49.750  11.533  1.00  0.00     0.027 C 
HETATM   17  C   UNL     1     -37.790 -50.046  11.905  1.00  0.00    -0.031 C 
HETATM   18  C   UNL     1     -37.442 -50.878  12.891  1.00  0.00    -0.030 C 
HETATM   19  C   UNL     1     -38.416 -51.616  13.748  1.00  0.00     0.041 C 
ENDBRANCH   2  14
TORSDOF 4
ENDMDL
