MODEL 1
REMARK VINA RESULT:      -5.4      0.000      0.000
REMARK  3 active torsions:
REMARK  status: ('A' for Active; 'I' for Inactive)
REMARK    1  A    between atoms: C_2  and  N_3 
REMARK    2  A    between atoms: C_2  and  C_13 
REMARK       I    between atoms: N_3  and  C_4 
REMARK       I    between atoms: C_4  and  N_6 
REMARK    3  A    between atoms: N_6  and  C_7 
ROOT
HETATM    1  N   UNL     1     -40.022 -49.824  11.027  1.00  0.00    -0.336 N 
HETATM    2  C   UNL     1     -40.882 -48.744  11.108  1.00  0.00     0.322 C 
HETATM    3  O   UNL     1     -40.963 -48.064  12.123  1.00  0.00    -0.247 OA
HETATM    4  N   UNL     1     -41.531 -48.537   9.915  1.00  0.00    -0.289 N 
HETATM    5  H   UNL     1     -40.368 -50.616  10.500  1.00  0.00     0.164 HD
HETATM    6  H   UNL     1     -41.144 -48.968   9.091  1.00  0.00     0.172 HD
ENDROOT
BRANCH   1   7
HETATM    7  C   UNL     1     -39.171 -50.169  12.174  1.00  0.00     0.111 C 
HETATM    8  C   UNL     1     -37.780 -50.531  11.653  1.00  0.00     0.035 C 
BRANCH   7   9
HETATM    9  C   UNL     1     -39.823 -51.277  13.028  1.00  0.00     0.143 C 
HETATM   10  C   UNL     1     -38.914 -51.910  14.079  1.00  0.00     0.036 C 
HETATM   11  C   UNL     1     -39.285 -53.381  14.075  1.00  0.00     0.029 C 
HETATM   12  C   UNL     1     -40.428 -53.486  13.089  1.00  0.00     0.168 C 
HETATM   13  O   UNL     1     -40.275 -52.371  12.203  1.00  0.00    -0.384 OA
ENDBRANCH   7   9
ENDBRANCH   1   7
BRANCH   4  14
HETATM   14  C   UNL     1     -42.384 -47.496   9.643  1.00  0.00     0.152 A 
HETATM   15  N   UNL     1     -42.283 -46.341  10.264  1.00  0.00    -0.346 N 
HETATM   16  C   UNL     1     -43.289 -45.495   9.832  1.00  0.00     0.097 A 
ATOM     17  HN  UNL     1     -41.574 -46.105  10.958  1.00  0.00     0.167 HD
HETATM   18  C   UNL     1     -44.108 -46.003   8.848  1.00  0.00     0.070 A 
HETATM   19  S   UNL     1     -43.600 -47.588   8.448  1.00  0.00    -0.064 SA
ENDBRANCH   4  14
TORSDOF 3
ENDMDL
MODEL 2
REMARK VINA RESULT:      -5.4      2.799      6.608
REMARK  3 active torsions:
REMARK  status: ('A' for Active; 'I' for Inactive)
REMARK    1  A    between atoms: C_2  and  N_3 
REMARK    2  A    between atoms: C_2  and  C_13 
REMARK       I    between atoms: N_3  and  C_4 
REMARK       I    between atoms: C_4  and  N_6 
REMARK    3  A    between atoms: N_6  and  C_7 
ROOT
HETATM    1  N   UNL     1     -41.387 -48.304  10.189  1.00  0.00    -0.336 N 
HETATM    2  C   UNL     1     -41.436 -49.198  11.242  1.00  0.00     0.322 C 
HETATM    3  O   UNL     1     -42.111 -48.976  12.239  1.00  0.00    -0.247 OA
HETATM    4  N   UNL     1     -40.708 -50.330  10.966  1.00  0.00    -0.289 N 
HETATM    5  H   UNL     1     -40.488 -48.223   9.731  1.00  0.00     0.164 HD
HETATM    6  H   UNL     1     -40.469 -50.509  10.004  1.00  0.00     0.172 HD
ENDROOT
BRANCH   1   7
HETATM    7  C   UNL     1     -42.165 -47.059  10.249  1.00  0.00     0.111 C 
HETATM    8  C   UNL     1     -43.198 -47.079   9.123  1.00  0.00     0.035 C 
BRANCH   7   9
HETATM    9  C   UNL     1     -41.234 -45.827  10.216  1.00  0.00     0.143 C 
HETATM   10  C   UNL     1     -40.007 -45.913  11.120  1.00  0.00     0.036 C 
HETATM   11  C   UNL     1     -39.835 -44.511  11.673  1.00  0.00     0.029 C 
HETATM   12  C   UNL     1     -40.916 -43.697  10.997  1.00  0.00     0.168 C 
HETATM   13  O   UNL     1     -41.934 -44.636  10.633  1.00  0.00    -0.384 OA
ENDBRANCH   7   9
ENDBRANCH   1   7
BRANCH   4  14
HETATM   14  C   UNL     1     -40.627 -51.440  11.770  1.00  0.00     0.152 A 
HETATM   15  N   UNL     1     -41.218 -52.571  11.446  1.00  0.00    -0.346 N 
HETATM   16  C   UNL     1     -41.012 -53.502  12.448  1.00  0.00     0.097 A 
ATOM     17  HN  UNL     1     -41.746 -52.735  10.590  1.00  0.00     0.167 HD
HETATM   18  C   UNL     1     -40.222 -53.081  13.496  1.00  0.00     0.070 A 
HETATM   19  S   UNL     1     -39.717 -51.470  13.214  1.00  0.00    -0.064 SA
ENDBRANCH   4  14
TORSDOF 3
ENDMDL
MODEL 3
REMARK VINA RESULT:      -5.3      2.658      3.379
REMARK  3 active torsions:
REMARK  status: ('A' for Active; 'I' for Inactive)
REMARK    1  A    between atoms: C_2  and  N_3 
REMARK    2  A    between atoms: C_2  and  C_13 
REMARK       I    between atoms: N_3  and  C_4 
REMARK       I    between atoms: C_4  and  N_6 
REMARK    3  A    between atoms: N_6  and  C_7 
ROOT
HETATM    1  N   UNL     1     -42.070 -51.345  11.971  1.00  0.00    -0.336 N 
HETATM    2  C   UNL     1     -41.633 -50.043  12.137  1.00  0.00     0.322 C 
HETATM    3  O   UNL     1     -41.061 -49.685  13.158  1.00  0.00    -0.247 OA
HETATM    4  N   UNL     1     -41.870 -49.294  11.010  1.00  0.00    -0.289 N 
HETATM    5  H   UNL     1     -42.946 -51.448  11.475  1.00  0.00     0.164 HD
HETATM    6  H   UNL     1     -42.058 -49.787  10.152  1.00  0.00     0.172 HD
ENDROOT
BRANCH   1   7
HETATM    7  C   UNL     1     -41.839 -52.335  13.032  1.00  0.00     0.111 C 
HETATM    8  C   UNL     1     -40.919 -53.425  12.486  1.00  0.00     0.035 C 
BRANCH   7   9
HETATM    9  C   UNL     1     -43.178 -52.870  13.584  1.00  0.00     0.143 C 
HETATM   10  C   UNL     1     -43.059 -54.016  14.585  1.00  0.00     0.036 C 
HETATM   11  C   UNL     1     -44.220 -54.935  14.261  1.00  0.00     0.029 C 
HETATM   12  C   UNL     1     -44.974 -54.227  13.157  1.00  0.00     0.168 C 
HETATM   13  O   UNL     1     -44.013 -53.375  12.522  1.00  0.00    -0.384 OA
ENDBRANCH   7   9
ENDBRANCH   1   7
BRANCH   4  14
HETATM   14  C   UNL     1     -41.479 -47.991  10.823  1.00  0.00     0.152 A 
HETATM   15  N   UNL     1     -40.239 -47.606  11.035  1.00  0.00    -0.346 N 
HETATM   16  C   UNL     1     -40.134 -46.244  10.815  1.00  0.00     0.097 A 
ATOM     17  HN  UNL     1     -39.473 -48.217  11.319  1.00  0.00     0.167 HD
HETATM   18  C   UNL     1     -41.287 -45.623  10.387  1.00  0.00     0.070 A 
HETATM   19  S   UNL     1     -42.540 -46.782  10.251  1.00  0.00    -0.064 SA
ENDBRANCH   4  14
TORSDOF 3
ENDMDL
MODEL 4
REMARK VINA RESULT:      -5.1      3.257      6.826
REMARK  3 active torsions:
REMARK  status: ('A' for Active; 'I' for Inactive)
REMARK    1  A    between atoms: C_2  and  N_3 
REMARK    2  A    between atoms: C_2  and  C_13 
REMARK       I    between atoms: N_3  and  C_4 
REMARK       I    between atoms: C_4  and  N_6 
REMARK    3  A    between atoms: N_6  and  C_7 
ROOT
HETATM    1  N   UNL     1     -43.146 -49.047  11.789  1.00  0.00    -0.336 N 
HETATM    2  C   UNL     1     -42.235 -50.034  12.119  1.00  0.00     0.322 C 
HETATM    3  O   UNL     1     -41.032 -49.812  12.143  1.00  0.00    -0.247 OA
HETATM    4  N   UNL     1     -42.873 -51.202  12.460  1.00  0.00    -0.289 N 
HETATM    5  H   UNL     1     -43.946 -49.357  11.252  1.00  0.00     0.164 HD
HETATM    6  H   UNL     1     -43.851 -51.149  12.694  1.00  0.00     0.172 HD
ENDROOT
BRANCH   1   7
HETATM    7  C   UNL     1     -42.673 -47.693  11.467  1.00  0.00     0.111 C 
HETATM    8  C   UNL     1     -42.989 -46.777  12.649  1.00  0.00     0.035 C 
BRANCH   7   9
HETATM    9  C   UNL     1     -43.267 -47.207  10.128  1.00  0.00     0.143 C 
HETATM   10  C   UNL     1     -44.772 -47.405   9.970  1.00  0.00     0.036 C 
HETATM   11  C   UNL     1     -44.961 -47.797   8.518  1.00  0.00     0.029 C 
HETATM   12  C   UNL     1     -43.575 -47.724   7.917  1.00  0.00     0.168 C 
HETATM   13  O   UNL     1     -42.670 -47.903   9.013  1.00  0.00    -0.384 OA
ENDBRANCH   7   9
ENDBRANCH   1   7
BRANCH   4  14
HETATM   14  C   UNL     1     -42.257 -52.340  12.919  1.00  0.00     0.152 A 
HETATM   15  N   UNL     1     -41.404 -53.010  12.174  1.00  0.00    -0.346 N 
HETATM   16  C   UNL     1     -40.973 -54.131  12.862  1.00  0.00     0.097 A 
ATOM     17  HN  UNL     1     -41.107 -52.745  11.236  1.00  0.00     0.167 HD
HETATM   18  C   UNL     1     -41.465 -54.267  14.141  1.00  0.00     0.070 A 
HETATM   19  S   UNL     1     -42.497 -52.948  14.496  1.00  0.00    -0.064 SA
ENDBRANCH   4  14
TORSDOF 3
ENDMDL
MODEL 5
REMARK VINA RESULT:      -4.9      1.477      1.669
REMARK  3 active torsions:
REMARK  status: ('A' for Active; 'I' for Inactive)
REMARK    1  A    between atoms: C_2  and  N_3 
REMARK    2  A    between atoms: C_2  and  C_13 
REMARK       I    between atoms: N_3  and  C_4 
REMARK       I    between atoms: C_4  and  N_6 
REMARK    3  A    between atoms: N_6  and  C_7 
ROOT
HETATM    1  N   UNL     1     -39.381 -50.529  12.023  1.00  0.00    -0.336 N 
HETATM    2  C   UNL     1     -40.003 -49.295  12.080  1.00  0.00     0.322 C 
HETATM    3  O   UNL     1     -39.926 -48.585  13.074  1.00  0.00    -0.247 OA
HETATM    4  N   UNL     1     -40.617 -48.994  10.888  1.00  0.00    -0.289 N 
HETATM    5  H   UNL     1     -39.890 -51.248  11.525  1.00  0.00     0.164 HD
HETATM    6  H   UNL     1     -40.340 -49.519  10.074  1.00  0.00     0.172 HD
ENDROOT
BRANCH   1   7
HETATM    7  C   UNL     1     -38.598 -51.007  13.170  1.00  0.00     0.111 C 
HETATM    8  C   UNL     1     -37.176 -51.304  12.695  1.00  0.00     0.035 C 
BRANCH   7   9
HETATM    9  C   UNL     1     -39.291 -52.209  13.847  1.00  0.00     0.143 C 
HETATM   10  C   UNL     1     -39.262 -52.205  15.373  1.00  0.00     0.036 C 
HETATM   11  C   UNL     1     -39.061 -53.657  15.760  1.00  0.00     0.029 C 
HETATM   12  C   UNL     1     -39.066 -54.409  14.447  1.00  0.00     0.168 C 
HETATM   13  O   UNL     1     -38.673 -53.453  13.456  1.00  0.00    -0.384 OA
ENDBRANCH   7   9
ENDBRANCH   1   7
BRANCH   4  14
HETATM   14  C   UNL     1     -41.246 -47.810  10.593  1.00  0.00     0.152 A 
HETATM   15  N   UNL     1     -40.584 -46.675  10.531  1.00  0.00    -0.346 N 
HETATM   16  C   UNL     1     -41.465 -45.642  10.263  1.00  0.00     0.097 A 
ATOM     17  HN  UNL     1     -39.578 -46.571  10.661  1.00  0.00     0.167 HD
HETATM   18  C   UNL     1     -42.777 -46.016  10.072  1.00  0.00     0.070 A 
HETATM   19  S   UNL     1     -42.911 -47.715  10.229  1.00  0.00    -0.064 SA
ENDBRANCH   4  14
TORSDOF 3
ENDMDL
MODEL 6
REMARK VINA RESULT:      -4.9      3.780      4.495
REMARK  3 active torsions:
REMARK  status: ('A' for Active; 'I' for Inactive)
REMARK    1  A    between atoms: C_2  and  N_3 
REMARK    2  A    between atoms: C_2  and  C_13 
REMARK       I    between atoms: N_3  and  C_4 
REMARK       I    between atoms: C_4  and  N_6 
REMARK    3  A    between atoms: N_6  and  C_7 
ROOT
HETATM    1  N   UNL     1     -43.060 -51.154  12.354  1.00  0.00    -0.336 N 
HETATM    2  C   UNL     1     -42.385 -49.956  12.497  1.00  0.00     0.322 C 
HETATM    3  O   UNL     1     -41.870 -49.633  13.559  1.00  0.00    -0.247 OA
HETATM    4  N   UNL     1     -42.335 -49.271  11.307  1.00  0.00    -0.289 N 
HETATM    5  H   UNL     1     -43.877 -51.124  11.758  1.00  0.00     0.164 HD
HETATM    6  H   UNL     1     -42.523 -49.787  10.462  1.00  0.00     0.172 HD
ENDROOT
BRANCH   1   7
HETATM    7  C   UNL     1     -43.159 -52.078  13.493  1.00  0.00     0.111 C 
HETATM    8  C   UNL     1     -42.262 -53.284  13.217  1.00  0.00     0.035 C 
BRANCH   7   9
HETATM    9  C   UNL     1     -44.631 -52.449  13.773  1.00  0.00     0.143 C 
HETATM   10  C   UNL     1     -45.662 -51.424  13.309  1.00  0.00     0.036 C 
HETATM   11  C   UNL     1     -46.724 -51.426  14.391  1.00  0.00     0.029 C 
HETATM   12  C   UNL     1     -46.282 -52.499  15.361  1.00  0.00     0.168 C 
HETATM   13  O   UNL     1     -44.864 -52.614  15.187  1.00  0.00    -0.384 OA
ENDBRANCH   7   9
ENDBRANCH   1   7
BRANCH   4  14
HETATM   14  C   UNL     1     -41.665 -48.091  11.095  1.00  0.00     0.152 A 
HETATM   15  N   UNL     1     -40.369 -47.990  11.291  1.00  0.00    -0.346 N 
HETATM   16  C   UNL     1     -39.966 -46.689  11.046  1.00  0.00     0.097 A 
ATOM     17  HN  UNL     1     -39.755 -48.751  11.579  1.00  0.00     0.167 HD
HETATM   18  C   UNL     1     -40.956 -45.832  10.617  1.00  0.00     0.070 A 
HETATM   19  S   UNL     1     -42.437 -46.685  10.510  1.00  0.00    -0.064 SA
ENDBRANCH   4  14
TORSDOF 3
ENDMDL
MODEL 7
REMARK VINA RESULT:      -4.7      3.572      5.563
REMARK  3 active torsions:
REMARK  status: ('A' for Active; 'I' for Inactive)
REMARK    1  A    between atoms: C_2  and  N_3 
REMARK    2  A    between atoms: C_2  and  C_13 
REMARK       I    between atoms: N_3  and  C_4 
REMARK       I    between atoms: C_4  and  N_6 
REMARK    3  A    between atoms: N_6  and  C_7 
ROOT
HETATM    1  N   UNL     1     -41.380 -50.128  11.532  1.00  0.00    -0.336 N 
HETATM    2  C   UNL     1     -42.309 -50.723  12.366  1.00  0.00     0.322 C 
HETATM    3  O   UNL     1     -42.893 -50.086  13.233  1.00  0.00    -0.247 OA
HETATM    4  N   UNL     1     -42.504 -52.041  12.029  1.00  0.00    -0.289 N 
HETATM    5  H   UNL     1     -40.586 -50.705  11.285  1.00  0.00     0.164 HD
HETATM    6  H   UNL     1     -42.197 -52.341  11.118  1.00  0.00     0.172 HD
ENDROOT
BRANCH   1   7
HETATM    7  C   UNL     1     -41.084 -48.695  11.672  1.00  0.00     0.111 C 
HETATM    8  C   UNL     1     -41.569 -47.976  10.414  1.00  0.00     0.035 C 
BRANCH   7   9
HETATM    9  C   UNL     1     -39.588 -48.471  11.978  1.00  0.00     0.143 C 
HETATM   10  C   UNL     1     -38.647 -49.561  11.470  1.00  0.00     0.036 C 
HETATM   11  C   UNL     1     -37.600 -49.706  12.557  1.00  0.00     0.029 C 
HETATM   12  C   UNL     1     -37.954 -48.645  13.576  1.00  0.00     0.168 C 
HETATM   13  O   UNL     1     -39.354 -48.396  13.400  1.00  0.00    -0.384 OA
ENDBRANCH   7   9
ENDBRANCH   1   7
BRANCH   4  14
HETATM   14  C   UNL     1     -43.421 -52.883  12.607  1.00  0.00     0.152 A 
HETATM   15  N   UNL     1     -44.712 -52.754  12.386  1.00  0.00    -0.346 N 
HETATM   16  C   UNL     1     -45.403 -53.698  13.123  1.00  0.00     0.097 A 
ATOM     17  HN  UNL     1     -45.137 -52.064  11.766  1.00  0.00     0.167 HD
HETATM   18  C   UNL     1     -44.623 -54.566  13.855  1.00  0.00     0.070 A 
HETATM   19  S   UNL     1     -42.971 -54.192  13.607  1.00  0.00    -0.064 SA
ENDBRANCH   4  14
TORSDOF 3
ENDMDL
MODEL 8
REMARK VINA RESULT:      -4.7      4.985      6.570
REMARK  3 active torsions:
REMARK  status: ('A' for Active; 'I' for Inactive)
REMARK    1  A    between atoms: C_2  and  N_3 
REMARK    2  A    between atoms: C_2  and  C_13 
REMARK       I    between atoms: N_3  and  C_4 
REMARK       I    between atoms: C_4  and  N_6 
REMARK    3  A    between atoms: N_6  and  C_7 
ROOT
HETATM    1  N   UNL     1     -44.846 -51.348  12.838  1.00  0.00    -0.336 N 
HETATM    2  C   UNL     1     -43.523 -51.749  12.794  1.00  0.00     0.322 C 
HETATM    3  O   UNL     1     -43.214 -52.926  12.663  1.00  0.00    -0.247 OA
HETATM    4  N   UNL     1     -42.676 -50.668  12.847  1.00  0.00    -0.289 N 
HETATM    5  H   UNL     1     -45.047 -50.584  13.470  1.00  0.00     0.164 HD
HETATM    6  H   UNL     1     -43.063 -49.761  12.641  1.00  0.00     0.172 HD
ENDROOT
BRANCH   1   7
HETATM    7  C   UNL     1     -45.917 -52.347  12.714  1.00  0.00     0.111 C 
HETATM    8  C   UNL     1     -46.891 -51.880  11.633  1.00  0.00     0.035 C 
BRANCH   7   9
HETATM    9  C   UNL     1     -46.584 -52.609  14.081  1.00  0.00     0.143 C 
HETATM   10  C   UNL     1     -46.995 -51.360  14.857  1.00  0.00     0.036 C 
HETATM   11  C   UNL     1     -46.695 -51.689  16.307  1.00  0.00     0.029 C 
HETATM   12  C   UNL     1     -46.209 -53.122  16.283  1.00  0.00     0.168 C 
HETATM   13  O   UNL     1     -45.698 -53.332  14.961  1.00  0.00    -0.384 OA
ENDBRANCH   7   9
ENDBRANCH   1   7
BRANCH   4  14
HETATM   14  C   UNL     1     -41.309 -50.722  12.738  1.00  0.00     0.152 A 
HETATM   15  N   UNL     1     -40.583 -51.485  13.526  1.00  0.00    -0.346 N 
HETATM   16  C   UNL     1     -39.243 -51.313  13.229  1.00  0.00     0.097 A 
ATOM     17  HN  UNL     1     -40.951 -52.107  14.246  1.00  0.00     0.167 HD
HETATM   18  C   UNL     1     -38.972 -50.460  12.182  1.00  0.00     0.070 A 
HETATM   19  S   UNL     1     -40.443 -49.858  11.546  1.00  0.00    -0.064 SA
ENDBRANCH   4  14
TORSDOF 3
ENDMDL
MODEL 9
REMARK VINA RESULT:      -4.7      2.145      2.345
REMARK  3 active torsions:
REMARK  status: ('A' for Active; 'I' for Inactive)
REMARK    1  A    between atoms: C_2  and  N_3 
REMARK    2  A    between atoms: C_2  and  C_13 
REMARK       I    between atoms: N_3  and  C_4 
REMARK       I    between atoms: C_4  and  N_6 
REMARK    3  A    between atoms: N_6  and  C_7 
ROOT
HETATM    1  N   UNL     1     -39.333 -48.942  11.234  1.00  0.00    -0.336 N 
HETATM    2  C   UNL     1     -39.780 -47.729  11.724  1.00  0.00     0.322 C 
HETATM    3  O   UNL     1     -39.738 -47.466  12.918  1.00  0.00    -0.247 OA
HETATM    4  N   UNL     1     -40.183 -46.901  10.703  1.00  0.00    -0.289 N 
HETATM    5  H   UNL     1     -39.865 -49.321  10.461  1.00  0.00     0.164 HD
HETATM    6  H   UNL     1     -39.875 -47.125   9.771  1.00  0.00     0.172 HD
ENDROOT
BRANCH   1   7
HETATM    7  C   UNL     1     -38.782 -49.945  12.156  1.00  0.00     0.111 C 
HETATM    8  C   UNL     1     -37.439 -50.423  11.606  1.00  0.00     0.035 C 
BRANCH   7   9
HETATM    9  C   UNL     1     -39.795 -51.084  12.398  1.00  0.00     0.143 C 
HETATM   10  C   UNL     1     -40.860 -50.797  13.452  1.00  0.00     0.036 C 
HETATM   11  C   UNL     1     -41.050 -52.114  14.180  1.00  0.00     0.029 C 
HETATM   12  C   UNL     1     -40.148 -53.087  13.453  1.00  0.00     0.168 C 
HETATM   13  O   UNL     1     -39.130 -52.285  12.842  1.00  0.00    -0.384 OA
ENDBRANCH   7   9
ENDBRANCH   1   7
BRANCH   4  14
HETATM   14  C   UNL     1     -40.597 -45.600  10.850  1.00  0.00     0.152 A 
HETATM   15  N   UNL     1     -39.751 -44.595  10.788  1.00  0.00    -0.346 N 
HETATM   16  C   UNL     1     -40.426 -43.409  11.012  1.00  0.00     0.097 A 
ATOM     17  HN  UNL     1     -38.751 -44.678  10.602  1.00  0.00     0.167 HD
HETATM   18  C   UNL     1     -41.787 -43.526  11.191  1.00  0.00     0.070 A 
HETATM   19  S   UNL     1     -42.236 -45.173  11.068  1.00  0.00    -0.064 SA
ENDBRANCH   4  14
TORSDOF 3
ENDMDL
