MODEL 1
REMARK VINA RESULT:      -5.9      0.000      0.000
REMARK  4 active torsions:
REMARK  status: ('A' for Active; 'I' for Inactive)
REMARK    1  A    between atoms: O_2  and  C_3 
REMARK    2  A    between atoms: C_6  and  N_7 
REMARK       I    between atoms: N_7  and  C_8 
REMARK       I    between atoms: C_8  and  N_10 
REMARK    3  A    between atoms: N_10  and  C_11 
REMARK    4  A    between atoms: C_11  and  C_12 
ROOT
HETATM    1  N   UNL     1     -40.492 -50.819  11.316  1.00  0.00    -0.308 N 
HETATM    2  C   UNL     1     -41.273 -49.689  11.400  1.00  0.00     0.320 C 
HETATM    3  O   UNL     1     -41.971 -49.365  12.354  1.00  0.00    -0.247 OA
HETATM    4  N   UNL     1     -41.211 -48.902  10.267  1.00  0.00    -0.342 N 
HETATM    5  H   UNL     1     -39.881 -50.902  10.517  1.00  0.00     0.170 HD
HETATM    6  H   UNL     1     -40.354 -48.938   9.739  1.00  0.00     0.164 HD
ENDROOT
BRANCH   1   7
HETATM    7  C   UNL     1     -40.418 -51.828  12.306  1.00  0.00     0.051 A 
HETATM    8  C   UNL     1     -41.189 -52.990  12.276  1.00  0.00     0.035 A 
HETATM    9  C   UNL     1     -41.064 -53.941  13.287  1.00  0.00     0.058 A 
HETATM   10  C   UNL     1     -40.163 -53.708  14.306  1.00  0.00     0.141 A 
HETATM   11  N   UNL     1     -39.389 -52.603  14.381  1.00  0.00    -0.345 N 
HETATM   12  C   UNL     1     -39.532 -51.699  13.375  1.00  0.00     0.119 A 
ATOM     13  HN  UNL     1     -38.735 -52.456  15.149  1.00  0.00     0.167 HD
BRANCH  10  14
HETATM   14  O   UNL     1     -40.078 -54.700  15.260  1.00  0.00    -0.341 OA
HETATM   15  C   UNL     1     -38.759 -55.187  15.458  1.00  0.00     0.211 C 
ENDBRANCH  10  14
ENDBRANCH   1   7
BRANCH   4  16
HETATM   16  C   UNL     1     -41.910 -47.628  10.331  1.00  0.00     0.130 C 
BRANCH  16  17
HETATM   17  C   UNL     1     -43.172 -47.572   9.486  1.00  0.00     0.033 C 
HETATM   18  C   UNL     1     -43.402 -46.231   8.799  1.00  0.00     0.038 C 
HETATM   19  C   UNL     1     -44.913 -46.011   8.838  1.00  0.00     0.272 C 
HETATM   20  N   UNL     1     -45.508 -47.163   9.533  1.00  0.00     0.084 N 
HETATM   21  C   UNL     1     -46.049 -48.139   8.588  1.00  0.00     0.309 C 
HETATM   22  C   UNL     1     -44.424 -47.733  10.343  1.00  0.00     0.278 C 
ENDBRANCH  16  17
ENDBRANCH   4  16
TORSDOF 4
ENDMDL
MODEL 2
REMARK VINA RESULT:      -5.6      2.887      7.087
REMARK  4 active torsions:
REMARK  status: ('A' for Active; 'I' for Inactive)
REMARK    1  A    between atoms: O_2  and  C_3 
REMARK    2  A    between atoms: C_6  and  N_7 
REMARK       I    between atoms: N_7  and  C_8 
REMARK       I    between atoms: C_8  and  N_10 
REMARK    3  A    between atoms: N_10  and  C_11 
REMARK    4  A    between atoms: C_11  and  C_12 
ROOT
HETATM    1  N   UNL     1     -40.887 -50.725  11.035  1.00  0.00    -0.308 N 
HETATM    2  C   UNL     1     -41.030 -51.525  12.146  1.00  0.00     0.320 C 
HETATM    3  O   UNL     1     -41.072 -51.141  13.309  1.00  0.00    -0.247 OA
HETATM    4  N   UNL     1     -41.127 -52.868  11.837  1.00  0.00    -0.342 N 
HETATM    5  H   UNL     1     -40.983 -51.164  10.131  1.00  0.00     0.170 HD
HETATM    6  H   UNL     1     -41.525 -53.097  10.941  1.00  0.00     0.164 HD
ENDROOT
BRANCH   1   7
HETATM    7  C   UNL     1     -40.704 -49.322  11.066  1.00  0.00     0.051 A 
HETATM    8  C   UNL     1     -39.644 -48.701  11.726  1.00  0.00     0.035 A 
HETATM    9  C   UNL     1     -39.527 -47.312  11.716  1.00  0.00     0.058 A 
HETATM   10  C   UNL     1     -40.475 -46.575  11.036  1.00  0.00     0.141 A 
HETATM   11  N   UNL     1     -41.518 -47.125  10.376  1.00  0.00    -0.345 N 
HETATM   12  C   UNL     1     -41.598 -48.482  10.402  1.00  0.00     0.119 A 
ATOM     13  HN  UNL     1     -42.206 -46.553   9.886  1.00  0.00     0.167 HD
BRANCH  10  14
HETATM   14  O   UNL     1     -40.285 -45.209  11.051  1.00  0.00    -0.341 OA
HETATM   15  C   UNL     1     -39.454 -44.740  10.000  1.00  0.00     0.211 C 
ENDBRANCH  10  14
ENDBRANCH   1   7
BRANCH   4  16
HETATM   16  C   UNL     1     -41.406 -53.763  12.949  1.00  0.00     0.130 C 
BRANCH  16  17
HETATM   17  C   UNL     1     -42.805 -53.620  13.522  1.00  0.00     0.033 C 
HETATM   18  C   UNL     1     -43.167 -54.683  14.554  1.00  0.00     0.038 C 
HETATM   19  C   UNL     1     -44.643 -54.992  14.314  1.00  0.00     0.272 C 
HETATM   20  N   UNL     1     -45.091 -54.159  13.187  1.00  0.00     0.084 N 
HETATM   21  C   UNL     1     -45.799 -52.965  13.650  1.00  0.00     0.309 C 
HETATM   22  C   UNL     1     -43.871 -53.815  12.447  1.00  0.00     0.278 C 
ENDBRANCH  16  17
ENDBRANCH   4  16
TORSDOF 4
ENDMDL
MODEL 3
REMARK VINA RESULT:      -5.6      3.583      6.971
REMARK  4 active torsions:
REMARK  status: ('A' for Active; 'I' for Inactive)
REMARK    1  A    between atoms: O_2  and  C_3 
REMARK    2  A    between atoms: C_6  and  N_7 
REMARK       I    between atoms: N_7  and  C_8 
REMARK       I    between atoms: C_8  and  N_10 
REMARK    3  A    between atoms: N_10  and  C_11 
REMARK    4  A    between atoms: C_11  and  C_12 
ROOT
HETATM    1  N   UNL     1     -41.902 -49.481  11.063  1.00  0.00    -0.308 N 
HETATM    2  C   UNL     1     -42.015 -50.087  12.294  1.00  0.00     0.320 C 
HETATM    3  O   UNL     1     -41.809 -49.557  13.379  1.00  0.00    -0.247 OA
HETATM    4  N   UNL     1     -42.398 -51.411  12.212  1.00  0.00    -0.342 N 
HETATM    5  H   UNL     1     -42.212 -50.004  10.257  1.00  0.00     0.170 HD
HETATM    6  H   UNL     1     -42.963 -51.669  11.419  1.00  0.00     0.164 HD
ENDROOT
BRANCH   1   7
HETATM    7  C   UNL     1     -41.466 -48.150  10.853  1.00  0.00     0.051 A 
HETATM    8  C   UNL     1     -40.263 -47.650  11.349  1.00  0.00     0.035 A 
HETATM    9  C   UNL     1     -39.898 -46.327  11.104  1.00  0.00     0.058 A 
HETATM   10  C   UNL     1     -40.748 -45.535  10.358  1.00  0.00     0.141 A 
HETATM   11  N   UNL     1     -41.921 -45.970   9.850  1.00  0.00    -0.345 N 
HETATM   12  C   UNL     1     -42.244 -47.267  10.104  1.00  0.00     0.119 A 
ATOM     13  HN  UNL     1     -42.532 -45.360   9.306  1.00  0.00     0.167 HD
BRANCH  10  14
HETATM   14  O   UNL     1     -40.314 -44.245  10.138  1.00  0.00    -0.341 OA
HETATM   15  C   UNL     1     -40.459 -43.397  11.268  1.00  0.00     0.211 C 
ENDBRANCH  10  14
ENDBRANCH   1   7
BRANCH   4  16
HETATM   16  C   UNL     1     -42.660 -52.083  13.475  1.00  0.00     0.130 C 
BRANCH  16  17
HETATM   17  C   UNL     1     -44.128 -52.392  13.717  1.00  0.00     0.033 C 
HETATM   18  C   UNL     1     -44.881 -52.850  12.474  1.00  0.00     0.038 C 
HETATM   19  C   UNL     1     -46.274 -52.237  12.597  1.00  0.00     0.272 C 
HETATM   20  N   UNL     1     -46.303 -51.452  13.841  1.00  0.00     0.084 N 
HETATM   21  C   UNL     1     -46.938 -52.195  14.929  1.00  0.00     0.309 C 
HETATM   22  C   UNL     1     -44.898 -51.145  14.140  1.00  0.00     0.278 C 
ENDBRANCH  16  17
ENDBRANCH   4  16
TORSDOF 4
ENDMDL
MODEL 4
REMARK VINA RESULT:      -5.5      3.776      5.639
REMARK  4 active torsions:
REMARK  status: ('A' for Active; 'I' for Inactive)
REMARK    1  A    between atoms: O_2  and  C_3 
REMARK    2  A    between atoms: C_6  and  N_7 
REMARK       I    between atoms: N_7  and  C_8 
REMARK       I    between atoms: C_8  and  N_10 
REMARK    3  A    between atoms: N_10  and  C_11 
REMARK    4  A    between atoms: C_11  and  C_12 
ROOT
HETATM    1  N   UNL     1     -41.666 -52.373  11.839  1.00  0.00    -0.308 N 
HETATM    2  C   UNL     1     -41.462 -51.017  11.960  1.00  0.00     0.320 C 
HETATM    3  O   UNL     1     -42.075 -50.261  12.704  1.00  0.00    -0.247 OA
HETATM    4  N   UNL     1     -40.461 -50.544  11.135  1.00  0.00    -0.342 N 
HETATM    5  H   UNL     1     -41.012 -52.892  11.271  1.00  0.00     0.170 HD
HETATM    6  H   UNL     1     -39.725 -51.191  10.902  1.00  0.00     0.164 HD
ENDROOT
BRANCH   1   7
HETATM    7  C   UNL     1     -42.668 -53.105  12.520  1.00  0.00     0.051 A 
HETATM    8  C   UNL     1     -44.021 -53.041  12.191  1.00  0.00     0.035 A 
HETATM    9  C   UNL     1     -44.954 -53.790  12.906  1.00  0.00     0.058 A 
HETATM   10  C   UNL     1     -44.507 -54.593  13.935  1.00  0.00     0.141 A 
HETATM   11  N   UNL     1     -43.208 -54.696  14.292  1.00  0.00    -0.345 N 
HETATM   12  C   UNL     1     -42.324 -53.957  13.570  1.00  0.00     0.119 A 
ATOM     13  HN  UNL     1     -42.908 -55.296  15.061  1.00  0.00     0.167 HD
BRANCH  10  14
HETATM   14  O   UNL     1     -45.482 -55.320  14.585  1.00  0.00    -0.341 OA
HETATM   15  C   UNL     1     -46.639 -54.561  14.902  1.00  0.00     0.211 C 
ENDBRANCH  10  14
ENDBRANCH   1   7
BRANCH   4  16
HETATM   16  C   UNL     1     -40.102 -49.144  11.297  1.00  0.00     0.130 C 
BRANCH  16  17
HETATM   17  C   UNL     1     -38.895 -48.915  12.190  1.00  0.00     0.033 C 
HETATM   18  C   UNL     1     -38.043 -50.158  12.416  1.00  0.00     0.038 C 
HETATM   19  C   UNL     1     -37.572 -50.067  13.866  1.00  0.00     0.272 C 
HETATM   20  N   UNL     1     -38.147 -48.841  14.441  1.00  0.00     0.084 N 
HETATM   21  C   UNL     1     -37.177 -47.746  14.446  1.00  0.00     0.309 C 
HETATM   22  C   UNL     1     -39.314 -48.530  13.606  1.00  0.00     0.278 C 
ENDBRANCH  16  17
ENDBRANCH   4  16
TORSDOF 4
ENDMDL
MODEL 5
REMARK VINA RESULT:      -5.5      2.483      7.557
REMARK  4 active torsions:
REMARK  status: ('A' for Active; 'I' for Inactive)
REMARK    1  A    between atoms: O_2  and  C_3 
REMARK    2  A    between atoms: C_6  and  N_7 
REMARK       I    between atoms: N_7  and  C_8 
REMARK       I    between atoms: C_8  and  N_10 
REMARK    3  A    between atoms: N_10  and  C_11 
REMARK    4  A    between atoms: C_11  and  C_12 
ROOT
HETATM    1  N   UNL     1     -41.602 -49.318  10.667  1.00  0.00    -0.308 N 
HETATM    2  C   UNL     1     -41.161 -50.029  11.760  1.00  0.00     0.320 C 
HETATM    3  O   UNL     1     -40.981 -49.581  12.886  1.00  0.00    -0.247 OA
HETATM    4  N   UNL     1     -40.923 -51.360  11.480  1.00  0.00    -0.342 N 
HETATM    5  H   UNL     1     -41.815 -49.839   9.829  1.00  0.00     0.170 HD
HETATM    6  H   UNL     1     -41.472 -51.772  10.743  1.00  0.00     0.164 HD
ENDROOT
BRANCH   1   7
HETATM    7  C   UNL     1     -41.862 -47.927  10.657  1.00  0.00     0.051 A 
HETATM    8  C   UNL     1     -40.869 -46.960  10.811  1.00  0.00     0.035 A 
HETATM    9  C   UNL     1     -41.198 -45.606  10.793  1.00  0.00     0.058 A 
HETATM   10  C   UNL     1     -42.520 -45.250  10.614  1.00  0.00     0.141 A 
HETATM   11  N   UNL     1     -43.519 -46.144  10.456  1.00  0.00    -0.345 N 
HETATM   12  C   UNL     1     -43.162 -47.457  10.474  1.00  0.00     0.119 A 
ATOM     13  HN  UNL     1     -44.488 -45.851  10.331  1.00  0.00     0.167 HD
BRANCH  10  14
HETATM   14  O   UNL     1     -42.769 -43.894  10.586  1.00  0.00    -0.341 OA
HETATM   15  C   UNL     1     -41.854 -43.133  11.361  1.00  0.00     0.211 C 
ENDBRANCH  10  14
ENDBRANCH   1   7
BRANCH   4  16
HETATM   16  C   UNL     1     -40.575 -52.203  12.613  1.00  0.00     0.130 C 
BRANCH  16  17
HETATM   17  C   UNL     1     -41.691 -53.134  13.056  1.00  0.00     0.033 C 
HETATM   18  C   UNL     1     -43.013 -52.910  12.332  1.00  0.00     0.038 C 
HETATM   19  C   UNL     1     -44.095 -53.136  13.386  1.00  0.00     0.272 C 
HETATM   20  N   UNL     1     -43.417 -53.453  14.653  1.00  0.00     0.084 N 
HETATM   21  C   UNL     1     -43.394 -54.894  14.902  1.00  0.00     0.309 C 
HETATM   22  C   UNL     1     -42.062 -52.903  14.518  1.00  0.00     0.278 C 
ENDBRANCH  16  17
ENDBRANCH   4  16
TORSDOF 4
ENDMDL
MODEL 6
REMARK VINA RESULT:      -5.5      2.200      3.224
REMARK  4 active torsions:
REMARK  status: ('A' for Active; 'I' for Inactive)
REMARK    1  A    between atoms: O_2  and  C_3 
REMARK    2  A    between atoms: C_6  and  N_7 
REMARK       I    between atoms: N_7  and  C_8 
REMARK       I    between atoms: C_8  and  N_10 
REMARK    3  A    between atoms: N_10  and  C_11 
REMARK    4  A    between atoms: C_11  and  C_12 
ROOT
HETATM    1  N   UNL     1     -40.596 -50.294  11.027  1.00  0.00    -0.308 N 
HETATM    2  C   UNL     1     -41.491 -49.256  11.159  1.00  0.00     0.320 C 
HETATM    3  O   UNL     1     -42.269 -49.090  12.092  1.00  0.00    -0.247 OA
HETATM    4  N   UNL     1     -41.447 -48.365  10.105  1.00  0.00    -0.342 N 
HETATM    5  H   UNL     1     -39.937 -50.244  10.265  1.00  0.00     0.170 HD
HETATM    6  H   UNL     1     -40.563 -48.271   9.630  1.00  0.00     0.164 HD
ENDROOT
BRANCH   1   7
HETATM    7  C   UNL     1     -40.475 -51.378  11.929  1.00  0.00     0.051 A 
HETATM    8  C   UNL     1     -39.577 -51.392  12.995  1.00  0.00     0.035 A 
HETATM    9  C   UNL     1     -39.511 -52.496  13.844  1.00  0.00     0.058 A 
HETATM   10  C   UNL     1     -40.355 -53.562  13.606  1.00  0.00     0.141 A 
HETATM   11  N   UNL     1     -41.246 -53.598  12.592  1.00  0.00    -0.345 N 
HETATM   12  C   UNL     1     -41.287 -52.503  11.787  1.00  0.00     0.119 A 
ATOM     13  HN  UNL     1     -41.854 -54.403  12.439  1.00  0.00     0.167 HD
BRANCH  10  14
HETATM   14  O   UNL     1     -40.249 -54.610  14.497  1.00  0.00    -0.341 OA
HETATM   15  C   UNL     1     -38.989 -54.675  15.149  1.00  0.00     0.211 C 
ENDBRANCH  10  14
ENDBRANCH   1   7
BRANCH   4  16
HETATM   16  C   UNL     1     -42.274 -47.175  10.234  1.00  0.00     0.130 C 
BRANCH  16  17
HETATM   17  C   UNL     1     -41.485 -45.895  10.448  1.00  0.00     0.033 C 
HETATM   18  C   UNL     1     -40.029 -46.119  10.838  1.00  0.00     0.038 C 
HETATM   19  C   UNL     1     -39.705 -45.014  11.842  1.00  0.00     0.272 C 
HETATM   20  N   UNL     1     -40.926 -44.215  12.028  1.00  0.00     0.084 N 
HETATM   21  C   UNL     1     -40.891 -42.989  11.231  1.00  0.00     0.309 C 
HETATM   22  C   UNL     1     -42.032 -45.094  11.626  1.00  0.00     0.278 C 
ENDBRANCH  16  17
ENDBRANCH   4  16
TORSDOF 4
ENDMDL
MODEL 7
REMARK VINA RESULT:      -5.4      3.121      4.233
REMARK  4 active torsions:
REMARK  status: ('A' for Active; 'I' for Inactive)
REMARK    1  A    between atoms: O_2  and  C_3 
REMARK    2  A    between atoms: C_6  and  N_7 
REMARK       I    between atoms: N_7  and  C_8 
REMARK       I    between atoms: C_8  and  N_10 
REMARK    3  A    between atoms: N_10  and  C_11 
REMARK    4  A    between atoms: C_11  and  C_12 
ROOT
HETATM    1  N   UNL     1     -42.260 -52.304  11.752  1.00  0.00    -0.308 N 
HETATM    2  C   UNL     1     -41.597 -51.141  12.073  1.00  0.00     0.320 C 
HETATM    3  O   UNL     1     -41.621 -50.575  13.160  1.00  0.00    -0.247 OA
HETATM    4  N   UNL     1     -40.861 -50.630  11.023  1.00  0.00    -0.342 N 
HETATM    5  H   UNL     1     -42.060 -52.720  10.855  1.00  0.00     0.170 HD
HETATM    6  H   UNL     1     -40.510 -51.294  10.351  1.00  0.00     0.164 HD
ENDROOT
BRANCH   1   7
HETATM    7  C   UNL     1     -43.134 -53.004  12.619  1.00  0.00     0.051 A 
HETATM    8  C   UNL     1     -42.696 -53.932  13.562  1.00  0.00     0.035 A 
HETATM    9  C   UNL     1     -43.614 -54.586  14.383  1.00  0.00     0.058 A 
HETATM   10  C   UNL     1     -44.954 -54.287  14.243  1.00  0.00     0.141 A 
HETATM   11  N   UNL     1     -45.431 -53.393  13.350  1.00  0.00    -0.345 N 
HETATM   12  C   UNL     1     -44.508 -52.770  12.569  1.00  0.00     0.119 A 
ATOM     13  HN  UNL     1     -46.429 -53.197  13.266  1.00  0.00     0.167 HD
BRANCH  10  14
HETATM   14  O   UNL     1     -45.802 -54.955  15.101  1.00  0.00    -0.341 OA
HETATM   15  C   UNL     1     -46.101 -54.229  16.284  1.00  0.00     0.211 C 
ENDBRANCH  10  14
ENDBRANCH   1   7
BRANCH   4  16
HETATM   16  C   UNL     1     -40.032 -49.472  11.322  1.00  0.00     0.130 C 
BRANCH  16  17
HETATM   17  C   UNL     1     -40.813 -48.180  11.487  1.00  0.00     0.033 C 
HETATM   18  C   UNL     1     -41.855 -47.939  10.401  1.00  0.00     0.038 C 
HETATM   19  C   UNL     1     -41.831 -46.434  10.144  1.00  0.00     0.272 C 
HETATM   20  N   UNL     1     -40.809 -45.852  11.028  1.00  0.00     0.084 N 
HETATM   21  C   UNL     1     -41.407 -45.263  12.226  1.00  0.00     0.309 C 
HETATM   22  C   UNL     1     -39.905 -46.960  11.361  1.00  0.00     0.278 C 
ENDBRANCH  16  17
ENDBRANCH   4  16
TORSDOF 4
ENDMDL
MODEL 8
REMARK VINA RESULT:      -5.0      4.282      4.669
REMARK  4 active torsions:
REMARK  status: ('A' for Active; 'I' for Inactive)
REMARK    1  A    between atoms: O_2  and  C_3 
REMARK    2  A    between atoms: C_6  and  N_7 
REMARK       I    between atoms: N_7  and  C_8 
REMARK       I    between atoms: C_8  and  N_10 
REMARK    3  A    between atoms: N_10  and  C_11 
REMARK    4  A    between atoms: C_11  and  C_12 
ROOT
HETATM    1  N   UNL     1     -43.866 -51.232  13.038  1.00  0.00    -0.308 N 
HETATM    2  C   UNL     1     -43.091 -50.099  12.927  1.00  0.00     0.320 C 
HETATM    3  O   UNL     1     -43.026 -49.188  13.744  1.00  0.00    -0.247 OA
HETATM    4  N   UNL     1     -42.349 -50.063  11.763  1.00  0.00    -0.342 N 
HETATM    5  H   UNL     1     -43.734 -51.954  12.345  1.00  0.00     0.170 HD
HETATM    6  H   UNL     1     -42.082 -50.951  11.369  1.00  0.00     0.164 HD
ENDROOT
BRANCH   1   7
HETATM    7  C   UNL     1     -44.768 -51.495  14.097  1.00  0.00     0.051 A 
HETATM    8  C   UNL     1     -46.144 -51.294  14.000  1.00  0.00     0.035 A 
HETATM    9  C   UNL     1     -46.973 -51.574  15.085  1.00  0.00     0.058 A 
HETATM   10  C   UNL     1     -46.401 -52.057  16.245  1.00  0.00     0.141 A 
HETATM   11  N   UNL     1     -45.076 -52.274  16.391  1.00  0.00    -0.345 N 
HETATM   12  C   UNL     1     -44.297 -51.995  15.311  1.00  0.00     0.119 A 
ATOM     13  HN  UNL     1     -44.681 -52.627  17.263  1.00  0.00     0.167 HD
BRANCH  10  14
HETATM   14  O   UNL     1     -47.282 -52.331  17.269  1.00  0.00    -0.341 OA
HETATM   15  C   UNL     1     -46.645 -52.707  18.481  1.00  0.00     0.211 C 
ENDBRANCH  10  14
ENDBRANCH   1   7
BRANCH   4  16
HETATM   16  C   UNL     1     -41.410 -48.959  11.634  1.00  0.00     0.130 C 
BRANCH  16  17
HETATM   17  C   UNL     1     -41.773 -47.964  10.545  1.00  0.00     0.033 C 
HETATM   18  C   UNL     1     -41.100 -46.604  10.695  1.00  0.00     0.038 C 
HETATM   19  C   UNL     1     -42.143 -45.584  10.244  1.00  0.00     0.272 C 
HETATM   20  N   UNL     1     -43.357 -46.329   9.875  1.00  0.00     0.084 N 
HETATM   21  C   UNL     1     -43.454 -46.515   8.427  1.00  0.00     0.309 C 
HETATM   22  C   UNL     1     -43.257 -47.612  10.582  1.00  0.00     0.278 C 
ENDBRANCH  16  17
ENDBRANCH   4  16
TORSDOF 4
ENDMDL
MODEL 9
REMARK VINA RESULT:      -4.9      4.363      7.753
REMARK  4 active torsions:
REMARK  status: ('A' for Active; 'I' for Inactive)
REMARK    1  A    between atoms: O_2  and  C_3 
REMARK    2  A    between atoms: C_6  and  N_7 
REMARK       I    between atoms: N_7  and  C_8 
REMARK       I    between atoms: C_8  and  N_10 
REMARK    3  A    between atoms: N_10  and  C_11 
REMARK    4  A    between atoms: C_11  and  C_12 
ROOT
HETATM    1  N   UNL     1     -39.706 -52.502  13.403  1.00  0.00    -0.308 N 
HETATM    2  C   UNL     1     -39.286 -51.313  13.955  1.00  0.00     0.320 C 
HETATM    3  O   UNL     1     -40.011 -50.419  14.378  1.00  0.00    -0.247 OA
HETATM    4  N   UNL     1     -37.911 -51.192  13.999  1.00  0.00    -0.342 N 
HETATM    5  H   UNL     1     -39.000 -53.195  13.201  1.00  0.00     0.170 HD
HETATM    6  H   UNL     1     -37.385 -52.048  14.074  1.00  0.00     0.164 HD
ENDROOT
BRANCH   1   7
HETATM    7  C   UNL     1     -41.058 -52.858  13.180  1.00  0.00     0.051 A 
HETATM    8  C   UNL     1     -41.781 -53.694  14.029  1.00  0.00     0.035 A 
HETATM    9  C   UNL     1     -43.110 -54.004  13.745  1.00  0.00     0.058 A 
HETATM   10  C   UNL     1     -43.688 -53.460  12.616  1.00  0.00     0.141 A 
HETATM   11  N   UNL     1     -43.035 -52.642  11.763  1.00  0.00    -0.345 N 
HETATM   12  C   UNL     1     -41.742 -52.356  12.072  1.00  0.00     0.119 A 
ATOM     13  HN  UNL     1     -43.488 -52.259  10.932  1.00  0.00     0.167 HD
BRANCH  10  14
HETATM   14  O   UNL     1     -45.010 -53.793  12.409  1.00  0.00    -0.341 OA
HETATM   15  C   UNL     1     -45.901 -52.698  12.559  1.00  0.00     0.211 C 
ENDBRANCH  10  14
ENDBRANCH   1   7
BRANCH   4  16
HETATM   16  C   UNL     1     -37.391 -50.018  14.683  1.00  0.00     0.130 C 
BRANCH  16  17
HETATM   17  C   UNL     1     -36.970 -50.276  16.120  1.00  0.00     0.033 C 
HETATM   18  C   UNL     1     -37.807 -49.534  17.156  1.00  0.00     0.038 C 
HETATM   19  C   UNL     1     -36.824 -49.128  18.253  1.00  0.00     0.272 C 
HETATM   20  N   UNL     1     -35.491 -49.599  17.847  1.00  0.00     0.084 N 
HETATM   21  C   UNL     1     -35.140 -50.854  18.512  1.00  0.00     0.309 C 
HETATM   22  C   UNL     1     -35.560 -49.757  16.389  1.00  0.00     0.278 C 
ENDBRANCH  16  17
ENDBRANCH   4  16
TORSDOF 4
ENDMDL
