MODEL 1
REMARK VINA RESULT:      -5.1      0.000      0.000
REMARK  5 active torsions:
REMARK  status: ('A' for Active; 'I' for Inactive)
REMARK    1  A    between atoms: S_2  and  C_3 
REMARK    2  A    between atoms: C_8  and  N_9 
REMARK    3  A    between atoms: N_9  and  S_10 
REMARK    4  A    between atoms: S_10  and  C_13 
REMARK    5  A    between atoms: C_13  and  C_14 
ROOT
HETATM    1  N   UNL     1     -43.798 -50.731  12.657  1.00  0.00    -0.313 N 
HETATM    2  H   UNL     1     -44.328 -50.803  11.781  1.00  0.00     0.172 HD
ENDROOT
BRANCH   1   3
HETATM    3  C   UNL     1     -44.606 -51.048  13.864  1.00  0.00     0.106 C 
HETATM    4  C   UNL     1     -43.987 -52.242  14.658  1.00  0.00     0.070 C 
HETATM    5  C   UNL     1     -44.793 -52.399  15.960  1.00  0.00     0.017 C 
HETATM    6  C   UNL     1     -46.288 -52.610  15.715  1.00  0.00     0.001 C 
HETATM    7  C   UNL     1     -46.881 -51.514  14.837  1.00  0.00     0.002 C 
HETATM    8  C   UNL     1     -46.086 -51.291  13.554  1.00  0.00     0.027 C 
BRANCH   4   9
HETATM    9  S   UNL     1     -43.927 -53.799  13.650  1.00  0.00    -0.167 SA
HETATM   10  C   UNL     1     -43.185 -54.956  14.838  1.00  0.00     0.090 C 
ENDBRANCH   4   9
ENDBRANCH   1   3
BRANCH   1  11
HETATM   11  S   UNL     1     -42.779 -49.382  12.625  1.00  0.00     0.232 S 
HETATM   12  O   UNL     1     -43.440 -48.425  11.759  1.00  0.00    -0.206 OA
HETATM   13  O   UNL     1     -42.475 -49.026  13.991  1.00  0.00    -0.206 OA
BRANCH  11  14
HETATM   14  C   UNL     1     -41.294 -49.973  11.787  1.00  0.00     0.222 C 
BRANCH  14  15
HETATM   15  C   UNL     1     -40.914 -51.337  12.232  1.00  0.00     0.050 A 
HETATM   16  C   UNL     1     -40.352 -51.756  13.462  1.00  0.00     0.054 A 
HETATM   17  C   UNL     1     -40.233 -53.115  13.332  1.00  0.00     0.169 A 
HETATM   18  O   UNL     1     -40.652 -53.491  12.099  1.00  0.00    -0.250 OA
HETATM   19  N   UNL     1     -41.064 -52.375  11.395  1.00  0.00    -0.265 N 
ATOM     20  HN  UNL     1     -41.411 -52.346  10.437  1.00  0.00     0.194 HD
ENDBRANCH  14  15
ENDBRANCH  11  14
ENDBRANCH   1  11
TORSDOF 5
ENDMDL
MODEL 2
REMARK VINA RESULT:      -5.1      3.117      5.937
REMARK  5 active torsions:
REMARK  status: ('A' for Active; 'I' for Inactive)
REMARK    1  A    between atoms: S_2  and  C_3 
REMARK    2  A    between atoms: C_8  and  N_9 
REMARK    3  A    between atoms: N_9  and  S_10 
REMARK    4  A    between atoms: S_10  and  C_13 
REMARK    5  A    between atoms: C_13  and  C_14 
ROOT
HETATM    1  N   UNL     1     -42.694 -49.411  11.643  1.00  0.00    -0.313 N 
HETATM    2  H   UNL     1     -42.415 -49.978  10.834  1.00  0.00     0.172 HD
ENDROOT
BRANCH   1   3
HETATM    3  C   UNL     1     -42.095 -48.051  11.644  1.00  0.00     0.106 C 
HETATM    4  C   UNL     1     -43.040 -47.018  10.951  1.00  0.00     0.070 C 
HETATM    5  C   UNL     1     -42.417 -45.624  11.133  1.00  0.00     0.017 C 
HETATM    6  C   UNL     1     -40.992 -45.530  10.584  1.00  0.00     0.001 C 
HETATM    7  C   UNL     1     -40.087 -46.611  11.161  1.00  0.00     0.002 C 
HETATM    8  C   UNL     1     -40.687 -48.009  11.044  1.00  0.00     0.027 C 
BRANCH   4   9
HETATM    9  S   UNL     1     -43.359 -47.443   9.172  1.00  0.00    -0.167 SA
HETATM   10  C   UNL     1     -45.174 -47.496   9.146  1.00  0.00     0.090 C 
ENDBRANCH   4   9
ENDBRANCH   1   3
BRANCH   1  11
HETATM   11  S   UNL     1     -42.714 -50.352  13.048  1.00  0.00     0.232 S 
HETATM   12  O   UNL     1     -41.584 -49.892  13.831  1.00  0.00    -0.206 OA
HETATM   13  O   UNL     1     -44.046 -50.288  13.601  1.00  0.00    -0.206 OA
BRANCH  11  14
HETATM   14  C   UNL     1     -42.358 -52.021  12.463  1.00  0.00     0.222 C 
BRANCH  14  15
HETATM   15  C   UNL     1     -43.481 -52.953  12.733  1.00  0.00     0.050 A 
HETATM   16  C   UNL     1     -43.517 -54.099  13.565  1.00  0.00     0.054 A 
HETATM   17  C   UNL     1     -44.804 -54.555  13.453  1.00  0.00     0.169 A 
HETATM   18  O   UNL     1     -45.489 -53.773  12.585  1.00  0.00    -0.250 OA
HETATM   19  N   UNL     1     -44.657 -52.774  12.114  1.00  0.00    -0.265 N 
ATOM     20  HN  UNL     1     -44.890 -52.049  11.435  1.00  0.00     0.194 HD
ENDBRANCH  14  15
ENDBRANCH  11  14
ENDBRANCH   1  11
TORSDOF 5
ENDMDL
MODEL 3
REMARK VINA RESULT:      -5.1      2.471      3.726
REMARK  5 active torsions:
REMARK  status: ('A' for Active; 'I' for Inactive)
REMARK    1  A    between atoms: S_2  and  C_3 
REMARK    2  A    between atoms: C_8  and  N_9 
REMARK    3  A    between atoms: N_9  and  S_10 
REMARK    4  A    between atoms: S_10  and  C_13 
REMARK    5  A    between atoms: C_13  and  C_14 
ROOT
HETATM    1  N   UNL     1     -41.671 -52.020  13.859  1.00  0.00    -0.313 N 
HETATM    2  H   UNL     1     -41.419 -51.803  14.829  1.00  0.00     0.172 HD
ENDROOT
BRANCH   1   3
HETATM    3  C   UNL     1     -42.557 -53.207  13.730  1.00  0.00     0.106 C 
HETATM    4  C   UNL     1     -43.897 -52.834  13.018  1.00  0.00     0.070 C 
HETATM    5  C   UNL     1     -44.679 -54.139  12.791  1.00  0.00     0.017 C 
HETATM    6  C   UNL     1     -44.934 -54.915  14.085  1.00  0.00     0.001 C 
HETATM    7  C   UNL     1     -43.645 -55.179  14.853  1.00  0.00     0.002 C 
HETATM    8  C   UNL     1     -42.812 -53.918  15.062  1.00  0.00     0.027 C 
BRANCH   4   9
HETATM    9  S   UNL     1     -44.864 -51.563  13.963  1.00  0.00    -0.167 SA
HETATM   10  C   UNL     1     -46.449 -51.600  13.076  1.00  0.00     0.090 C 
ENDBRANCH   4   9
ENDBRANCH   1   3
BRANCH   1  11
HETATM   11  S   UNL     1     -40.335 -51.821  12.840  1.00  0.00     0.232 S 
HETATM   12  O   UNL     1     -40.410 -52.916  11.894  1.00  0.00    -0.206 OA
HETATM   13  O   UNL     1     -40.343 -50.457  12.365  1.00  0.00    -0.206 OA
BRANCH  11  14
HETATM   14  C   UNL     1     -38.916 -52.099  13.919  1.00  0.00     0.222 C 
BRANCH  14  15
HETATM   15  C   UNL     1     -38.967 -53.433  14.567  1.00  0.00     0.050 A 
HETATM   16  C   UNL     1     -39.162 -53.761  15.931  1.00  0.00     0.054 A 
HETATM   17  C   UNL     1     -39.141 -55.131  15.954  1.00  0.00     0.169 A 
HETATM   18  O   UNL     1     -38.907 -55.602  14.705  1.00  0.00    -0.250 OA
HETATM   19  N   UNL     1     -38.778 -54.537  13.831  1.00  0.00    -0.265 N 
ATOM     20  HN  UNL     1     -38.580 -54.584  12.832  1.00  0.00     0.194 HD
ENDBRANCH  14  15
ENDBRANCH  11  14
ENDBRANCH   1  11
TORSDOF 5
ENDMDL
MODEL 4
REMARK VINA RESULT:      -5.0      2.428      3.963
REMARK  5 active torsions:
REMARK  status: ('A' for Active; 'I' for Inactive)
REMARK    1  A    between atoms: S_2  and  C_3 
REMARK    2  A    between atoms: C_8  and  N_9 
REMARK    3  A    between atoms: N_9  and  S_10 
REMARK    4  A    between atoms: S_10  and  C_13 
REMARK    5  A    between atoms: C_13  and  C_14 
ROOT
HETATM    1  N   UNL     1     -42.365 -51.445  12.096  1.00  0.00    -0.313 N 
HETATM    2  H   UNL     1     -42.721 -51.502  11.135  1.00  0.00     0.172 HD
ENDROOT
BRANCH   1   3
HETATM    3  C   UNL     1     -43.070 -52.350  13.041  1.00  0.00     0.106 C 
HETATM    4  C   UNL     1     -42.057 -53.091  13.971  1.00  0.00     0.070 C 
HETATM    5  C   UNL     1     -42.874 -53.881  15.009  1.00  0.00     0.017 C 
HETATM    6  C   UNL     1     -43.863 -54.859  14.372  1.00  0.00     0.001 C 
HETATM    7  C   UNL     1     -44.779 -54.169  13.368  1.00  0.00     0.002 C 
HETATM    8  C   UNL     1     -44.013 -53.335  12.346  1.00  0.00     0.027 C 
BRANCH   4   9
HETATM    9  S   UNL     1     -40.877 -54.157  13.015  1.00  0.00    -0.167 SA
HETATM   10  C   UNL     1     -39.556 -54.400  14.238  1.00  0.00     0.090 C 
ENDBRANCH   4   9
ENDBRANCH   1   3
BRANCH   1  11
HETATM   11  S   UNL     1     -42.038 -49.838  12.513  1.00  0.00     0.232 S 
HETATM   12  O   UNL     1     -43.329 -49.178  12.525  1.00  0.00    -0.206 OA
HETATM   13  O   UNL     1     -41.225 -49.849  13.705  1.00  0.00    -0.206 OA
BRANCH  11  14
HETATM   14  C   UNL     1     -41.091 -49.206  11.113  1.00  0.00     0.222 C 
BRANCH  14  15
HETATM   15  C   UNL     1     -41.724 -48.006  10.513  1.00  0.00     0.050 A 
HETATM   16  C   UNL     1     -41.439 -46.637  10.732  1.00  0.00     0.054 A 
HETATM   17  C   UNL     1     -42.307 -45.975   9.903  1.00  0.00     0.169 A 
HETATM   18  O   UNL     1     -43.092 -46.873   9.260  1.00  0.00    -0.250 OA
HETATM   19  N   UNL     1     -42.742 -48.152   9.653  1.00  0.00    -0.265 N 
ATOM     20  HN  UNL     1     -43.171 -49.026   9.351  1.00  0.00     0.194 HD
ENDBRANCH  14  15
ENDBRANCH  11  14
ENDBRANCH   1  11
TORSDOF 5
ENDMDL
MODEL 5
REMARK VINA RESULT:      -5.0      2.369      3.083
REMARK  5 active torsions:
REMARK  status: ('A' for Active; 'I' for Inactive)
REMARK    1  A    between atoms: S_2  and  C_3 
REMARK    2  A    between atoms: C_8  and  N_9 
REMARK    3  A    between atoms: N_9  and  S_10 
REMARK    4  A    between atoms: S_10  and  C_13 
REMARK    5  A    between atoms: C_13  and  C_14 
ROOT
HETATM    1  N   UNL     1     -42.948 -53.201  13.172  1.00  0.00    -0.313 N 
HETATM    2  H   UNL     1     -43.141 -53.916  12.462  1.00  0.00     0.172 HD
ENDROOT
BRANCH   1   3
HETATM    3  C   UNL     1     -44.105 -52.305  13.436  1.00  0.00     0.106 C 
HETATM    4  C   UNL     1     -44.446 -52.261  14.960  1.00  0.00     0.070 C 
HETATM    5  C   UNL     1     -45.544 -51.202  15.158  1.00  0.00     0.017 C 
HETATM    6  C   UNL     1     -46.793 -51.470  14.316  1.00  0.00     0.001 C 
HETATM    7  C   UNL     1     -46.457 -51.637  12.839  1.00  0.00     0.002 C 
HETATM    8  C   UNL     1     -45.339 -52.646  12.597  1.00  0.00     0.027 C 
BRANCH   4   9
HETATM    9  S   UNL     1     -44.921 -53.930  15.620  1.00  0.00    -0.167 SA
HETATM   10  C   UNL     1     -45.598 -53.482  17.245  1.00  0.00     0.090 C 
ENDBRANCH   4   9
ENDBRANCH   1   3
BRANCH   1  11
HETATM   11  S   UNL     1     -41.391 -52.572  12.973  1.00  0.00     0.232 S 
HETATM   12  O   UNL     1     -40.919 -52.292  14.315  1.00  0.00    -0.206 OA
HETATM   13  O   UNL     1     -40.654 -53.480  12.126  1.00  0.00    -0.206 OA
BRANCH  11  14
HETATM   14  C   UNL     1     -41.657 -51.002  12.125  1.00  0.00     0.222 C 
BRANCH  14  15
HETATM   15  C   UNL     1     -40.403 -50.215  12.011  1.00  0.00     0.050 A 
HETATM   16  C   UNL     1     -40.227 -48.811  11.956  1.00  0.00     0.054 A 
HETATM   17  C   UNL     1     -38.869 -48.646  11.877  1.00  0.00     0.169 A 
HETATM   18  O   UNL     1     -38.266 -49.859  11.842  1.00  0.00    -0.250 OA
HETATM   19  N   UNL     1     -39.227 -50.851  11.907  1.00  0.00    -0.265 N 
ATOM     20  HN  UNL     1     -39.073 -51.858  11.882  1.00  0.00     0.194 HD
ENDBRANCH  14  15
ENDBRANCH  11  14
ENDBRANCH   1  11
TORSDOF 5
ENDMDL
MODEL 6
REMARK VINA RESULT:      -4.9      2.601      3.168
REMARK  5 active torsions:
REMARK  status: ('A' for Active; 'I' for Inactive)
REMARK    1  A    between atoms: S_2  and  C_3 
REMARK    2  A    between atoms: C_8  and  N_9 
REMARK    3  A    between atoms: N_9  and  S_10 
REMARK    4  A    between atoms: S_10  and  C_13 
REMARK    5  A    between atoms: C_13  and  C_14 
ROOT
HETATM    1  N   UNL     1     -46.649 -52.507  14.301  1.00  0.00    -0.313 N 
HETATM    2  H   UNL     1     -47.613 -52.634  13.972  1.00  0.00     0.172 HD
ENDROOT
BRANCH   1   3
HETATM    3  C   UNL     1     -46.537 -51.586  15.462  1.00  0.00     0.106 C 
HETATM    4  C   UNL     1     -45.304 -51.947  16.351  1.00  0.00     0.070 C 
HETATM    5  C   UNL     1     -45.178 -50.859  17.431  1.00  0.00     0.017 C 
HETATM    6  C   UNL     1     -46.445 -50.704  18.274  1.00  0.00     0.001 C 
HETATM    7  C   UNL     1     -47.678 -50.472  17.410  1.00  0.00     0.002 C 
HETATM    8  C   UNL     1     -47.820 -51.503  16.294  1.00  0.00     0.027 C 
BRANCH   4   9
HETATM    9  S   UNL     1     -45.427 -53.659  17.056  1.00  0.00    -0.167 SA
HETATM   10  C   UNL     1     -43.754 -54.290  16.734  1.00  0.00     0.090 C 
ENDBRANCH   4   9
ENDBRANCH   1   3
BRANCH   1  11
HETATM   11  S   UNL     1     -45.587 -52.386  12.990  1.00  0.00     0.232 S 
HETATM   12  O   UNL     1     -46.406 -52.607  11.814  1.00  0.00    -0.206 OA
HETATM   13  O   UNL     1     -44.851 -51.152  13.132  1.00  0.00    -0.206 OA
BRANCH  11  14
HETATM   14  C   UNL     1     -44.483 -53.799  13.187  1.00  0.00     0.222 C 
BRANCH  14  15
HETATM   15  C   UNL     1     -43.084 -53.464  12.824  1.00  0.00     0.050 A 
HETATM   16  C   UNL     1     -41.875 -53.866  13.443  1.00  0.00     0.054 A 
HETATM   17  C   UNL     1     -40.897 -53.284  12.680  1.00  0.00     0.169 A 
HETATM   18  O   UNL     1     -41.467 -52.547  11.696  1.00  0.00    -0.250 OA
HETATM   19  N   UNL     1     -42.844 -52.641  11.793  1.00  0.00    -0.265 N 
ATOM     20  HN  UNL     1     -43.534 -52.179  11.202  1.00  0.00     0.194 HD
ENDBRANCH  14  15
ENDBRANCH  11  14
ENDBRANCH   1  11
TORSDOF 5
ENDMDL
MODEL 7
REMARK VINA RESULT:      -4.8      2.786      4.125
REMARK  5 active torsions:
REMARK  status: ('A' for Active; 'I' for Inactive)
REMARK    1  A    between atoms: S_2  and  C_3 
REMARK    2  A    between atoms: C_8  and  N_9 
REMARK    3  A    between atoms: N_9  and  S_10 
REMARK    4  A    between atoms: S_10  and  C_13 
REMARK    5  A    between atoms: C_13  and  C_14 
ROOT
HETATM    1  N   UNL     1     -41.381 -53.686  14.536  1.00  0.00    -0.313 N 
HETATM    2  H   UNL     1     -41.224 -54.265  15.368  1.00  0.00     0.172 HD
ENDROOT
BRANCH   1   3
HETATM    3  C   UNL     1     -42.701 -53.921  13.894  1.00  0.00     0.106 C 
HETATM    4  C   UNL     1     -43.382 -52.573  13.496  1.00  0.00     0.070 C 
HETATM    5  C   UNL     1     -44.658 -52.913  12.707  1.00  0.00     0.017 C 
HETATM    6  C   UNL     1     -45.620 -53.813  13.486  1.00  0.00     0.001 C 
HETATM    7  C   UNL     1     -44.935 -55.079  13.987  1.00  0.00     0.002 C 
HETATM    8  C   UNL     1     -43.638 -54.791  14.737  1.00  0.00     0.027 C 
BRANCH   4   9
HETATM    9  S   UNL     1     -43.706 -51.490  14.967  1.00  0.00    -0.167 SA
HETATM   10  C   UNL     1     -42.412 -50.231  14.766  1.00  0.00     0.090 C 
ENDBRANCH   4   9
ENDBRANCH   1   3
BRANCH   1  11
HETATM   11  S   UNL     1     -39.970 -53.584  13.609  1.00  0.00     0.232 S 
HETATM   12  O   UNL     1     -39.188 -54.749  13.976  1.00  0.00    -0.206 OA
HETATM   13  O   UNL     1     -40.360 -53.384  12.233  1.00  0.00    -0.206 OA
BRANCH  11  14
HETATM   14  C   UNL     1     -39.134 -52.116  14.242  1.00  0.00     0.222 C 
BRANCH  14  15
HETATM   15  C   UNL     1     -38.709 -51.206  13.150  1.00  0.00     0.050 A 
HETATM   16  C   UNL     1     -37.404 -50.883  12.708  1.00  0.00     0.054 A 
HETATM   17  C   UNL     1     -37.606 -50.020  11.663  1.00  0.00     0.169 A 
HETATM   18  O   UNL     1     -38.934 -49.801  11.507  1.00  0.00    -0.250 OA
HETATM   19  N   UNL     1     -39.633 -50.530  12.452  1.00  0.00    -0.265 N 
ATOM     20  HN  UNL     1     -40.643 -50.549  12.589  1.00  0.00     0.194 HD
ENDBRANCH  14  15
ENDBRANCH  11  14
ENDBRANCH   1  11
TORSDOF 5
ENDMDL
MODEL 8
REMARK VINA RESULT:      -4.7      5.272      6.840
REMARK  5 active torsions:
REMARK  status: ('A' for Active; 'I' for Inactive)
REMARK    1  A    between atoms: S_2  and  C_3 
REMARK    2  A    between atoms: C_8  and  N_9 
REMARK    3  A    between atoms: N_9  and  S_10 
REMARK    4  A    between atoms: S_10  and  C_13 
REMARK    5  A    between atoms: C_13  and  C_14 
ROOT
HETATM    1  N   UNL     1     -39.902 -47.633  12.891  1.00  0.00    -0.313 N 
HETATM    2  H   UNL     1     -39.292 -47.032  13.457  1.00  0.00     0.172 HD
ENDROOT
BRANCH   1   3
HETATM    3  C   UNL     1     -39.305 -48.959  12.584  1.00  0.00     0.106 C 
HETATM    4  C   UNL     1     -39.186 -49.835  13.872  1.00  0.00     0.070 C 
HETATM    5  C   UNL     1     -38.707 -51.231  13.440  1.00  0.00     0.017 C 
HETATM    6  C   UNL     1     -37.388 -51.198  12.666  1.00  0.00     0.001 C 
HETATM    7  C   UNL     1     -37.451 -50.250  11.475  1.00  0.00     0.002 C 
HETATM    8  C   UNL     1     -37.966 -48.864  11.848  1.00  0.00     0.027 C 
BRANCH   4   9
HETATM    9  S   UNL     1     -38.090 -49.056  15.151  1.00  0.00    -0.167 SA
HETATM   10  C   UNL     1     -37.867 -50.438  16.308  1.00  0.00     0.090 C 
ENDBRANCH   4   9
ENDBRANCH   1   3
BRANCH   1  11
HETATM   11  S   UNL     1     -40.674 -46.729  11.688  1.00  0.00     0.232 S 
HETATM   12  O   UNL     1     -41.448 -45.730  12.400  1.00  0.00    -0.206 OA
HETATM   13  O   UNL     1     -39.671 -46.317  10.735  1.00  0.00    -0.206 OA
BRANCH  11  14
HETATM   14  C   UNL     1     -41.819 -47.898  10.927  1.00  0.00     0.222 C 
BRANCH  14  15
HETATM   15  C   UNL     1     -42.773 -47.222  10.013  1.00  0.00     0.050 A 
HETATM   16  C   UNL     1     -44.134 -47.517   9.760  1.00  0.00     0.054 A 
HETATM   17  C   UNL     1     -44.522 -46.565   8.854  1.00  0.00     0.169 A 
HETATM   18  O   UNL     1     -43.464 -45.776   8.545  1.00  0.00    -0.250 OA
HETATM   19  N   UNL     1     -42.356 -46.196   9.257  1.00  0.00    -0.265 N 
ATOM     20  HN  UNL     1     -41.415 -45.806   9.216  1.00  0.00     0.194 HD
ENDBRANCH  14  15
ENDBRANCH  11  14
ENDBRANCH   1  11
TORSDOF 5
ENDMDL
MODEL 9
REMARK VINA RESULT:      -4.6      2.438      3.616
REMARK  5 active torsions:
REMARK  status: ('A' for Active; 'I' for Inactive)
REMARK    1  A    between atoms: S_2  and  C_3 
REMARK    2  A    between atoms: C_8  and  N_9 
REMARK    3  A    between atoms: N_9  and  S_10 
REMARK    4  A    between atoms: S_10  and  C_13 
REMARK    5  A    between atoms: C_13  and  C_14 
ROOT
HETATM    1  N   UNL     1     -43.560 -50.621  12.513  1.00  0.00    -0.313 N 
HETATM    2  H   UNL     1     -44.032 -50.628  11.602  1.00  0.00     0.172 HD
ENDROOT
BRANCH   1   3
HETATM    3  C   UNL     1     -44.458 -50.967  13.646  1.00  0.00     0.106 C 
HETATM    4  C   UNL     1     -43.859 -52.128  14.504  1.00  0.00     0.070 C 
HETATM    5  C   UNL     1     -44.769 -52.314  15.730  1.00  0.00     0.017 C 
HETATM    6  C   UNL     1     -46.226 -52.593  15.356  1.00  0.00     0.001 C 
HETATM    7  C   UNL     1     -46.787 -51.531  14.418  1.00  0.00     0.002 C 
HETATM    8  C   UNL     1     -45.891 -51.279  13.209  1.00  0.00     0.027 C 
BRANCH   4   9
HETATM    9  S   UNL     1     -43.640 -53.686  13.520  1.00  0.00    -0.167 SA
HETATM   10  C   UNL     1     -43.165 -54.858  14.824  1.00  0.00     0.090 C 
ENDBRANCH   4   9
ENDBRANCH   1   3
BRANCH   1  11
HETATM   11  S   UNL     1     -42.495 -49.311  12.619  1.00  0.00     0.232 S 
HETATM   12  O   UNL     1     -42.784 -48.687  13.896  1.00  0.00    -0.206 OA
HETATM   13  O   UNL     1     -41.166 -49.801  12.341  1.00  0.00    -0.206 OA
BRANCH  11  14
HETATM   14  C   UNL     1     -43.038 -48.197  11.307  1.00  0.00     0.222 C 
BRANCH  14  15
HETATM   15  C   UNL     1     -42.077 -47.087  11.090  1.00  0.00     0.050 A 
HETATM   16  C   UNL     1     -42.231 -45.704  11.349  1.00  0.00     0.054 A 
HETATM   17  C   UNL     1     -41.028 -45.158  10.982  1.00  0.00     0.169 A 
HETATM   18  O   UNL     1     -40.218 -46.129  10.496  1.00  0.00    -0.250 OA
HETATM   19  N   UNL     1     -40.879 -47.343  10.544  1.00  0.00    -0.265 N 
ATOM     20  HN  UNL     1     -40.528 -48.247  10.229  1.00  0.00     0.194 HD
ENDBRANCH  14  15
ENDBRANCH  11  14
ENDBRANCH   1  11
TORSDOF 5
ENDMDL
