MODEL 1
REMARK VINA RESULT:      -6.6      0.000      0.000
REMARK  7 active torsions:
REMARK  status: ('A' for Active; 'I' for Inactive)
REMARK    1  A    between atoms: C_2  and  C_4 
REMARK    2  A    between atoms: C_7  and  C_10 
REMARK    3  A    between atoms: C_10  and  O_11 
REMARK    4  A    between atoms: C_10  and  C_12 
REMARK    5  A    between atoms: C_12  and  N_13 
REMARK    6  A    between atoms: C_14  and  C_15 
REMARK    7  A    between atoms: C_15  and  O_16 
ROOT
HETATM    1  N   UNL     1     -39.859 -50.755  12.593  1.00  0.00    -0.330 N 
HETATM    2  C   UNL     1     -38.683 -50.259  12.067  1.00  0.00     0.108 A 
HETATM    3  N   UNL     1     -38.896 -49.101  11.467  1.00  0.00    -0.342 N 
ATOM      4  HN  UNL     1     -38.199 -48.505  11.020  1.00  0.00     0.167 HD
HETATM    5  C   UNL     1     -40.245 -48.861  11.566  1.00  0.00     0.060 A 
HETATM    6  C   UNL     1     -40.997 -47.778  11.092  1.00  0.00     0.032 A 
HETATM    7  C   UNL     1     -42.378 -47.758  11.322  1.00  0.00     0.002 A 
HETATM    8  C   UNL     1     -42.998 -48.802  12.010  1.00  0.00     0.002 A 
HETATM    9  C   UNL     1     -42.260 -49.889  12.495  1.00  0.00     0.032 A 
HETATM   10  C   UNL     1     -40.878 -49.886  12.260  1.00  0.00     0.062 A 
ENDROOT
BRANCH   1  11
HETATM   11  C   UNL     1     -40.003 -51.882  13.497  1.00  0.00     0.167 C 
BRANCH  11  12
HETATM   12  C   UNL     1     -40.550 -53.167  12.855  1.00  0.00     0.169 C 
BRANCH  12  13
HETATM   13  C   UNL     1     -41.953 -53.549  13.307  1.00  0.00    -0.028 A 
HETATM   14  C   UNL     1     -42.119 -54.194  14.543  1.00  0.00     0.010 A 
HETATM   15  C   UNL     1     -43.395 -54.479  15.043  1.00  0.00     0.008 A 
HETATM   16  C   UNL     1     -44.544 -54.125  14.324  1.00  0.00    -0.055 A 
HETATM   17  C   UNL     1     -44.381 -53.533  13.069  1.00  0.00     0.008 A 
HETATM   18  C   UNL     1     -43.106 -53.256  12.566  1.00  0.00     0.010 A 
BRANCH  16  19
HETATM   19  C   UNL     1     -45.910 -54.271  14.973  1.00  0.00     0.010 C 
HETATM   20  C   UNL     1     -45.749 -54.132  16.491  1.00  0.00     0.015 C 
HETATM   21  C   UNL     1     -46.968 -53.289  14.462  1.00  0.00     0.015 C 
ENDBRANCH  16  19
ENDBRANCH  12  13
BRANCH  12  22
HETATM   22  O   UNL     1     -40.561 -53.025  11.430  1.00  0.00    -0.389 OA
HETATM   23  H   UNL     1     -41.351 -52.511  11.191  1.00  0.00     0.210 HD
ENDBRANCH  12  22
ENDBRANCH  11  12
ENDBRANCH   1  11
BRANCH   2  24
HETATM   24  C   UNL     1     -37.363 -50.943  12.145  1.00  0.00     0.240 C 
BRANCH  24  25
HETATM   25  O   UNL     1     -37.068 -51.509  10.874  1.00  0.00    -0.393 OA
HETATM   26  H   UNL     1     -37.702 -52.241  10.759  1.00  0.00     0.209 HD
ENDBRANCH  24  25
ENDBRANCH   2  24
TORSDOF 7
ENDMDL
MODEL 2
REMARK VINA RESULT:      -6.6      2.198      6.975
REMARK  7 active torsions:
REMARK  status: ('A' for Active; 'I' for Inactive)
REMARK    1  A    between atoms: C_2  and  C_4 
REMARK    2  A    between atoms: C_7  and  C_10 
REMARK    3  A    between atoms: C_10  and  O_11 
REMARK    4  A    between atoms: C_10  and  C_12 
REMARK    5  A    between atoms: C_12  and  N_13 
REMARK    6  A    between atoms: C_14  and  C_15 
REMARK    7  A    between atoms: C_15  and  O_16 
ROOT
HETATM    1  N   UNL     1     -42.538 -52.053  13.470  1.00  0.00    -0.330 N 
HETATM    2  C   UNL     1     -42.166 -53.370  13.285  1.00  0.00     0.108 A 
HETATM    3  N   UNL     1     -43.221 -54.163  13.346  1.00  0.00    -0.342 N 
ATOM      4  HN  UNL     1     -43.236 -55.174  13.215  1.00  0.00     0.167 HD
HETATM    5  C   UNL     1     -44.294 -53.350  13.619  1.00  0.00     0.060 A 
HETATM    6  C   UNL     1     -45.644 -53.683  13.793  1.00  0.00     0.032 A 
HETATM    7  C   UNL     1     -46.564 -52.663  14.067  1.00  0.00     0.002 A 
HETATM    8  C   UNL     1     -46.145 -51.336  14.168  1.00  0.00     0.002 A 
HETATM    9  C   UNL     1     -44.800 -50.986  13.991  1.00  0.00     0.032 A 
HETATM   10  C   UNL     1     -43.896 -52.021  13.713  1.00  0.00     0.062 A 
ENDROOT
BRANCH   1  11
HETATM   11  C   UNL     1     -41.712 -50.876  13.265  1.00  0.00     0.167 C 
BRANCH  11  12
HETATM   12  C   UNL     1     -41.691 -50.339  11.825  1.00  0.00     0.169 C 
BRANCH  12  13
HETATM   13  C   UNL     1     -41.309 -48.869  11.707  1.00  0.00    -0.028 A 
HETATM   14  C   UNL     1     -40.293 -48.361  12.533  1.00  0.00     0.010 A 
HETATM   15  C   UNL     1     -39.843 -47.043  12.394  1.00  0.00     0.008 A 
HETATM   16  C   UNL     1     -40.394 -46.193  11.425  1.00  0.00    -0.055 A 
HETATM   17  C   UNL     1     -41.443 -46.680  10.641  1.00  0.00     0.008 A 
HETATM   18  C   UNL     1     -41.898 -47.994  10.784  1.00  0.00     0.010 A 
BRANCH  16  19
HETATM   19  C   UNL     1     -39.760 -44.836  11.169  1.00  0.00     0.010 C 
HETATM   20  C   UNL     1     -39.239 -44.803   9.728  1.00  0.00     0.015 C 
HETATM   21  C   UNL     1     -40.685 -43.642  11.424  1.00  0.00     0.015 C 
ENDBRANCH  16  19
ENDBRANCH  12  13
BRANCH  12  22
HETATM   22  O   UNL     1     -40.772 -51.106  11.040  1.00  0.00    -0.389 OA
HETATM   23  H   UNL     1     -40.541 -50.578  10.257  1.00  0.00     0.210 HD
ENDBRANCH  12  22
ENDBRANCH  11  12
ENDBRANCH   1  11
BRANCH   2  24
HETATM   24  C   UNL     1     -40.768 -53.834  13.070  1.00  0.00     0.240 C 
BRANCH  24  25
HETATM   25  O   UNL     1     -40.462 -53.730  11.684  1.00  0.00    -0.393 OA
HETATM   26  H   UNL     1     -39.890 -54.494  11.484  1.00  0.00     0.209 HD
ENDBRANCH  24  25
ENDBRANCH   2  24
TORSDOF 7
ENDMDL
MODEL 3
REMARK VINA RESULT:      -6.5      2.160      2.721
REMARK  7 active torsions:
REMARK  status: ('A' for Active; 'I' for Inactive)
REMARK    1  A    between atoms: C_2  and  C_4 
REMARK    2  A    between atoms: C_7  and  C_10 
REMARK    3  A    between atoms: C_10  and  O_11 
REMARK    4  A    between atoms: C_10  and  C_12 
REMARK    5  A    between atoms: C_12  and  N_13 
REMARK    6  A    between atoms: C_14  and  C_15 
REMARK    7  A    between atoms: C_15  and  O_16 
ROOT
HETATM    1  N   UNL     1     -39.355 -49.439  12.358  1.00  0.00    -0.330 N 
HETATM    2  C   UNL     1     -37.986 -49.610  12.426  1.00  0.00     0.108 A 
HETATM    3  N   UNL     1     -37.456 -48.768  13.295  1.00  0.00    -0.342 N 
ATOM      4  HN  UNL     1     -36.473 -48.699  13.561  1.00  0.00     0.167 HD
HETATM    5  C   UNL     1     -38.494 -48.005  13.770  1.00  0.00     0.060 A 
HETATM    6  C   UNL     1     -38.480 -46.961  14.706  1.00  0.00     0.032 A 
HETATM    7  C   UNL     1     -39.685 -46.328  15.033  1.00  0.00     0.002 A 
HETATM    8  C   UNL     1     -40.882 -46.726  14.436  1.00  0.00     0.002 A 
HETATM    9  C   UNL     1     -40.914 -47.771  13.504  1.00  0.00     0.032 A 
HETATM   10  C   UNL     1     -39.698 -48.395  13.194  1.00  0.00     0.062 A 
ENDROOT
BRANCH   1  11
HETATM   11  C   UNL     1     -40.311 -50.303  11.688  1.00  0.00     0.167 C 
BRANCH  11  12
HETATM   12  C   UNL     1     -40.627 -51.615  12.423  1.00  0.00     0.169 C 
BRANCH  12  13
HETATM   13  C   UNL     1     -42.108 -51.838  12.704  1.00  0.00    -0.028 A 
HETATM   14  C   UNL     1     -42.884 -50.761  13.161  1.00  0.00     0.010 A 
HETATM   15  C   UNL     1     -44.266 -50.893  13.341  1.00  0.00     0.008 A 
HETATM   16  C   UNL     1     -44.914 -52.105  13.069  1.00  0.00    -0.055 A 
HETATM   17  C   UNL     1     -44.135 -53.194  12.667  1.00  0.00     0.008 A 
HETATM   18  C   UNL     1     -42.754 -53.064  12.494  1.00  0.00     0.010 A 
BRANCH  16  19
HETATM   19  C   UNL     1     -46.431 -52.166  13.089  1.00  0.00     0.010 C 
HETATM   20  C   UNL     1     -46.936 -51.405  14.320  1.00  0.00     0.015 C 
HETATM   21  C   UNL     1     -47.109 -51.632  11.823  1.00  0.00     0.015 C 
ENDBRANCH  16  19
ENDBRANCH  12  13
BRANCH  12  22
HETATM   22  O   UNL     1     -40.144 -52.724  11.658  1.00  0.00    -0.389 OA
HETATM   23  H   UNL     1     -40.103 -53.495  12.248  1.00  0.00     0.210 HD
ENDBRANCH  12  22
ENDBRANCH  11  12
ENDBRANCH   1  11
BRANCH   2  24
HETATM   24  C   UNL     1     -37.214 -50.591  11.615  1.00  0.00     0.240 C 
BRANCH  24  25
HETATM   25  O   UNL     1     -37.093 -51.799  12.356  1.00  0.00    -0.393 OA
HETATM   26  H   UNL     1     -37.724 -52.421  11.949  1.00  0.00     0.209 HD
ENDBRANCH  24  25
ENDBRANCH   2  24
TORSDOF 7
ENDMDL
MODEL 4
REMARK VINA RESULT:      -6.4      2.837      4.698
REMARK  7 active torsions:
REMARK  status: ('A' for Active; 'I' for Inactive)
REMARK    1  A    between atoms: C_2  and  C_4 
REMARK    2  A    between atoms: C_7  and  C_10 
REMARK    3  A    between atoms: C_10  and  O_11 
REMARK    4  A    between atoms: C_10  and  C_12 
REMARK    5  A    between atoms: C_12  and  N_13 
REMARK    6  A    between atoms: C_14  and  C_15 
REMARK    7  A    between atoms: C_15  and  O_16 
ROOT
HETATM    1  N   UNL     1     -41.416 -47.453  11.496  1.00  0.00    -0.330 N 
HETATM    2  C   UNL     1     -41.999 -46.908  10.368  1.00  0.00     0.108 A 
HETATM    3  N   UNL     1     -41.532 -45.691  10.148  1.00  0.00    -0.342 N 
ATOM      4  HN  UNL     1     -41.770 -45.075   9.370  1.00  0.00     0.167 HD
HETATM    5  C   UNL     1     -40.663 -45.423  11.176  1.00  0.00     0.060 A 
HETATM    6  C   UNL     1     -39.903 -44.272  11.427  1.00  0.00     0.032 A 
HETATM    7  C   UNL     1     -39.077 -44.237  12.556  1.00  0.00     0.002 A 
HETATM    8  C   UNL     1     -39.011 -45.329  13.423  1.00  0.00     0.002 A 
HETATM    9  C   UNL     1     -39.759 -46.489  13.183  1.00  0.00     0.032 A 
HETATM   10  C   UNL     1     -40.576 -46.506  12.044  1.00  0.00     0.062 A 
ENDROOT
BRANCH   1  11
HETATM   11  C   UNL     1     -41.505 -48.831  11.944  1.00  0.00     0.167 C 
BRANCH  11  12
HETATM   12  C   UNL     1     -40.336 -49.731  11.511  1.00  0.00     0.169 C 
BRANCH  12  13
HETATM   13  C   UNL     1     -40.273 -51.071  12.234  1.00  0.00    -0.028 A 
HETATM   14  C   UNL     1     -39.319 -51.253  13.249  1.00  0.00     0.010 A 
HETATM   15  C   UNL     1     -39.286 -52.431  14.004  1.00  0.00     0.008 A 
HETATM   16  C   UNL     1     -40.206 -53.462  13.770  1.00  0.00    -0.055 A 
HETATM   17  C   UNL     1     -41.121 -53.305  12.724  1.00  0.00     0.008 A 
HETATM   18  C   UNL     1     -41.149 -52.132  11.965  1.00  0.00     0.010 A 
BRANCH  16  19
HETATM   19  C   UNL     1     -40.270 -54.641  14.725  1.00  0.00     0.010 C 
HETATM   20  C   UNL     1     -38.857 -54.931  15.243  1.00  0.00     0.015 C 
HETATM   21  C   UNL     1     -41.236 -54.460  15.900  1.00  0.00     0.015 C 
ENDBRANCH  16  19
ENDBRANCH  12  13
BRANCH  12  22
HETATM   22  O   UNL     1     -40.418 -49.984  10.105  1.00  0.00    -0.389 OA
HETATM   23  H   UNL     1     -39.733 -50.637   9.882  1.00  0.00     0.210 HD
ENDBRANCH  12  22
ENDBRANCH  11  12
ENDBRANCH   1  11
BRANCH   2  24
HETATM   24  C   UNL     1     -43.025 -47.587   9.531  1.00  0.00     0.240 C 
BRANCH  24  25
HETATM   25  O   UNL     1     -42.368 -48.277   8.475  1.00  0.00    -0.393 OA
HETATM   26  H   UNL     1     -42.827 -49.133   8.396  1.00  0.00     0.209 HD
ENDBRANCH  24  25
ENDBRANCH   2  24
TORSDOF 7
ENDMDL
MODEL 5
REMARK VINA RESULT:      -6.3      2.368      5.860
REMARK  7 active torsions:
REMARK  status: ('A' for Active; 'I' for Inactive)
REMARK    1  A    between atoms: C_2  and  C_4 
REMARK    2  A    between atoms: C_7  and  C_10 
REMARK    3  A    between atoms: C_10  and  O_11 
REMARK    4  A    between atoms: C_10  and  C_12 
REMARK    5  A    between atoms: C_12  and  N_13 
REMARK    6  A    between atoms: C_14  and  C_15 
REMARK    7  A    between atoms: C_15  and  O_16 
ROOT
HETATM    1  N   UNL     1     -42.588 -52.252  13.930  1.00  0.00    -0.330 N 
HETATM    2  C   UNL     1     -42.291 -53.132  12.907  1.00  0.00     0.108 A 
HETATM    3  N   UNL     1     -43.378 -53.418  12.212  1.00  0.00    -0.342 N 
ATOM      4  HN  UNL     1     -43.439 -54.017  11.389  1.00  0.00     0.167 HD
HETATM    5  C   UNL     1     -44.409 -52.745  12.821  1.00  0.00     0.060 A 
HETATM    6  C   UNL     1     -45.771 -52.710  12.490  1.00  0.00     0.032 A 
HETATM    7  C   UNL     1     -46.639 -51.938  13.272  1.00  0.00     0.002 A 
HETATM    8  C   UNL     1     -46.159 -51.218  14.367  1.00  0.00     0.002 A 
HETATM    9  C   UNL     1     -44.800 -51.238  14.707  1.00  0.00     0.032 A 
HETATM   10  C   UNL     1     -43.947 -52.012  13.908  1.00  0.00     0.062 A 
ENDROOT
BRANCH   1  11
HETATM   11  C   UNL     1     -41.641 -51.542  14.771  1.00  0.00     0.167 C 
BRANCH  11  12
HETATM   12  C   UNL     1     -40.679 -50.607  14.022  1.00  0.00     0.169 C 
BRANCH  12  13
HETATM   13  C   UNL     1     -41.367 -49.530  13.192  1.00  0.00    -0.028 A 
HETATM   14  C   UNL     1     -41.125 -49.477  11.810  1.00  0.00     0.010 A 
HETATM   15  C   UNL     1     -41.807 -48.567  10.993  1.00  0.00     0.008 A 
HETATM   16  C   UNL     1     -42.751 -47.684  11.533  1.00  0.00    -0.055 A 
HETATM   17  C   UNL     1     -42.952 -47.697  12.916  1.00  0.00     0.008 A 
HETATM   18  C   UNL     1     -42.266 -48.600  13.733  1.00  0.00     0.010 A 
BRANCH  16  19
HETATM   19  C   UNL     1     -43.610 -46.844  10.604  1.00  0.00     0.010 C 
HETATM   20  C   UNL     1     -42.695 -46.124   9.607  1.00  0.00     0.015 C 
HETATM   21  C   UNL     1     -44.694 -47.626   9.855  1.00  0.00     0.015 C 
ENDBRANCH  16  19
ENDBRANCH  12  13
BRANCH  12  22
HETATM   22  O   UNL     1     -39.807 -49.964  14.957  1.00  0.00    -0.389 OA
HETATM   23  H   UNL     1     -40.184 -49.091  15.161  1.00  0.00     0.210 HD
ENDBRANCH  12  22
ENDBRANCH  11  12
ENDBRANCH   1  11
BRANCH   2  24
HETATM   24  C   UNL     1     -40.940 -53.697  12.640  1.00  0.00     0.240 C 
BRANCH  24  25
HETATM   25  O   UNL     1     -40.548 -53.334  11.322  1.00  0.00    -0.393 OA
HETATM   26  H   UNL     1     -41.006 -52.494  11.134  1.00  0.00     0.209 HD
ENDBRANCH  24  25
ENDBRANCH   2  24
TORSDOF 7
ENDMDL
MODEL 6
REMARK VINA RESULT:      -6.3      1.820      2.285
REMARK  7 active torsions:
REMARK  status: ('A' for Active; 'I' for Inactive)
REMARK    1  A    between atoms: C_2  and  C_4 
REMARK    2  A    between atoms: C_7  and  C_10 
REMARK    3  A    between atoms: C_10  and  O_11 
REMARK    4  A    between atoms: C_10  and  C_12 
REMARK    5  A    between atoms: C_12  and  N_13 
REMARK    6  A    between atoms: C_14  and  C_15 
REMARK    7  A    between atoms: C_15  and  O_16 
ROOT
HETATM    1  N   UNL     1     -40.781 -50.775  13.322  1.00  0.00    -0.330 N 
HETATM    2  C   UNL     1     -40.458 -49.665  12.566  1.00  0.00     0.108 A 
HETATM    3  N   UNL     1     -41.059 -48.589  13.041  1.00  0.00    -0.342 N 
ATOM      4  HN  UNL     1     -40.973 -47.635  12.692  1.00  0.00     0.167 HD
HETATM    5  C   UNL     1     -41.823 -49.015  14.100  1.00  0.00     0.060 A 
HETATM    6  C   UNL     1     -42.663 -48.280  14.948  1.00  0.00     0.032 A 
HETATM    7  C   UNL     1     -43.344 -48.947  15.973  1.00  0.00     0.002 A 
HETATM    8  C   UNL     1     -43.194 -50.324  16.147  1.00  0.00     0.002 A 
HETATM    9  C   UNL     1     -42.354 -51.072  15.312  1.00  0.00     0.032 A 
HETATM   10  C   UNL     1     -41.676 -50.384  14.296  1.00  0.00     0.062 A 
ENDROOT
BRANCH   1  11
HETATM   11  C   UNL     1     -40.164 -52.088  13.252  1.00  0.00     0.167 C 
BRANCH  11  12
HETATM   12  C   UNL     1     -40.938 -53.127  12.427  1.00  0.00     0.169 C 
BRANCH  12  13
HETATM   13  C   UNL     1     -42.301 -53.497  13.000  1.00  0.00    -0.028 A 
HETATM   14  C   UNL     1     -42.361 -54.314  14.141  1.00  0.00     0.010 A 
HETATM   15  C   UNL     1     -43.584 -54.602  14.758  1.00  0.00     0.008 A 
HETATM   16  C   UNL     1     -44.784 -54.080  14.255  1.00  0.00    -0.055 A 
HETATM   17  C   UNL     1     -44.731 -53.313  13.087  1.00  0.00     0.008 A 
HETATM   18  C   UNL     1     -43.511 -53.032  12.467  1.00  0.00     0.010 A 
BRANCH  16  19
HETATM   19  C   UNL     1     -46.067 -54.250  15.049  1.00  0.00     0.010 C 
HETATM   20  C   UNL     1     -45.742 -54.113  16.541  1.00  0.00     0.015 C 
HETATM   21  C   UNL     1     -47.190 -53.281  14.662  1.00  0.00     0.015 C 
ENDBRANCH  16  19
ENDBRANCH  12  13
BRANCH  12  22
HETATM   22  O   UNL     1     -41.129 -52.639  11.095  1.00  0.00    -0.389 OA
HETATM   23  H   UNL     1     -41.871 -52.010  11.115  1.00  0.00     0.210 HD
ENDBRANCH  12  22
ENDBRANCH  11  12
ENDBRANCH   1  11
BRANCH   2  24
HETATM   24  C   UNL     1     -39.573 -49.683  11.368  1.00  0.00     0.240 C 
BRANCH  24  25
HETATM   25  O   UNL     1     -40.363 -49.985  10.224  1.00  0.00    -0.393 OA
HETATM   26  H   UNL     1     -39.741 -50.341   9.563  1.00  0.00     0.209 HD
ENDBRANCH  24  25
ENDBRANCH   2  24
TORSDOF 7
ENDMDL
MODEL 7
REMARK VINA RESULT:      -6.1      2.276      4.514
REMARK  7 active torsions:
REMARK  status: ('A' for Active; 'I' for Inactive)
REMARK    1  A    between atoms: C_2  and  C_4 
REMARK    2  A    between atoms: C_7  and  C_10 
REMARK    3  A    between atoms: C_10  and  O_11 
REMARK    4  A    between atoms: C_10  and  C_12 
REMARK    5  A    between atoms: C_12  and  N_13 
REMARK    6  A    between atoms: C_14  and  C_15 
REMARK    7  A    between atoms: C_15  and  O_16 
ROOT
HETATM    1  N   UNL     1     -41.270 -52.131  13.382  1.00  0.00    -0.330 N 
HETATM    2  C   UNL     1     -39.922 -51.990  13.652  1.00  0.00     0.108 A 
HETATM    3  N   UNL     1     -39.514 -52.938  14.478  1.00  0.00    -0.342 N 
ATOM      4  HN  UNL     1     -38.564 -53.086  14.818  1.00  0.00     0.167 HD
HETATM    5  C   UNL     1     -40.626 -53.683  14.785  1.00  0.00     0.060 A 
HETATM    6  C   UNL     1     -40.750 -54.800  15.622  1.00  0.00     0.032 A 
HETATM    7  C   UNL     1     -42.007 -55.397  15.776  1.00  0.00     0.002 A 
HETATM    8  C   UNL     1     -43.122 -54.887  15.109  1.00  0.00     0.002 A 
HETATM    9  C   UNL     1     -43.014 -53.775  14.264  1.00  0.00     0.032 A 
HETATM   10  C   UNL     1     -41.746 -53.196  14.119  1.00  0.00     0.062 A 
ENDROOT
BRANCH   1  11
HETATM   11  C   UNL     1     -42.034 -51.426  12.368  1.00  0.00     0.167 C 
BRANCH  11  12
HETATM   12  C   UNL     1     -42.790 -50.186  12.869  1.00  0.00     0.169 C 
BRANCH  12  13
HETATM   13  C   UNL     1     -43.958 -50.493  13.797  1.00  0.00    -0.028 A 
HETATM   14  C   UNL     1     -45.113 -51.088  13.264  1.00  0.00     0.010 A 
HETATM   15  C   UNL     1     -46.173 -51.475  14.093  1.00  0.00     0.008 A 
HETATM   16  C   UNL     1     -46.110 -51.282  15.479  1.00  0.00    -0.055 A 
HETATM   17  C   UNL     1     -44.984 -50.639  16.005  1.00  0.00     0.008 A 
HETATM   18  C   UNL     1     -43.930 -50.246  15.177  1.00  0.00     0.010 A 
BRANCH  16  19
HETATM   19  C   UNL     1     -47.183 -51.881  16.371  1.00  0.00     0.010 C 
HETATM   20  C   UNL     1     -46.510 -52.782  17.412  1.00  0.00     0.015 C 
HETATM   21  C   UNL     1     -48.083 -50.854  17.065  1.00  0.00     0.015 C 
ENDBRANCH  16  19
ENDBRANCH  12  13
BRANCH  12  22
HETATM   22  O   UNL     1     -41.885 -49.317  13.559  1.00  0.00    -0.389 OA
HETATM   23  H   UNL     1     -41.707 -49.709  14.431  1.00  0.00     0.210 HD
ENDBRANCH  12  22
ENDBRANCH  11  12
ENDBRANCH   1  11
BRANCH   2  24
HETATM   24  C   UNL     1     -39.056 -50.909  13.108  1.00  0.00     0.240 C 
BRANCH  24  25
HETATM   25  O   UNL     1     -38.557 -51.320  11.841  1.00  0.00    -0.393 OA
HETATM   26  H   UNL     1     -37.788 -50.748  11.664  1.00  0.00     0.209 HD
ENDBRANCH  24  25
ENDBRANCH   2  24
TORSDOF 7
ENDMDL
MODEL 8
REMARK VINA RESULT:      -6.0      2.825      6.983
REMARK  7 active torsions:
REMARK  status: ('A' for Active; 'I' for Inactive)
REMARK    1  A    between atoms: C_2  and  C_4 
REMARK    2  A    between atoms: C_7  and  C_10 
REMARK    3  A    between atoms: C_10  and  O_11 
REMARK    4  A    between atoms: C_10  and  C_12 
REMARK    5  A    between atoms: C_12  and  N_13 
REMARK    6  A    between atoms: C_14  and  C_15 
REMARK    7  A    between atoms: C_15  and  O_16 
ROOT
HETATM    1  N   UNL     1     -41.494 -53.537  12.974  1.00  0.00    -0.330 N 
HETATM    2  C   UNL     1     -42.810 -53.665  13.373  1.00  0.00     0.108 A 
HETATM    3  N   UNL     1     -42.881 -54.246  14.558  1.00  0.00    -0.342 N 
ATOM      4  HN  UNL     1     -43.725 -54.437  15.097  1.00  0.00     0.167 HD
HETATM    5  C   UNL     1     -41.589 -54.542  14.916  1.00  0.00     0.060 A 
HETATM    6  C   UNL     1     -41.104 -55.168  16.073  1.00  0.00     0.032 A 
HETATM    7  C   UNL     1     -39.724 -55.359  16.212  1.00  0.00     0.002 A 
HETATM    8  C   UNL     1     -38.843 -54.937  15.216  1.00  0.00     0.002 A 
HETATM    9  C   UNL     1     -39.311 -54.305  14.056  1.00  0.00     0.032 A 
HETATM   10  C   UNL     1     -40.696 -54.118  13.938  1.00  0.00     0.062 A 
ENDROOT
BRANCH   1  11
HETATM   11  C   UNL     1     -40.995 -52.770  11.846  1.00  0.00     0.167 C 
BRANCH  11  12
HETATM   12  C   UNL     1     -40.899 -51.255  12.082  1.00  0.00     0.169 C 
BRANCH  12  13
HETATM   13  C   UNL     1     -39.744 -50.830  12.981  1.00  0.00    -0.028 A 
HETATM   14  C   UNL     1     -40.015 -50.451  14.306  1.00  0.00     0.010 A 
HETATM   15  C   UNL     1     -38.979 -50.145  15.195  1.00  0.00     0.008 A 
HETATM   16  C   UNL     1     -37.639 -50.210  14.788  1.00  0.00    -0.055 A 
HETATM   17  C   UNL     1     -37.370 -50.533  13.455  1.00  0.00     0.008 A 
HETATM   18  C   UNL     1     -38.405 -50.831  12.565  1.00  0.00     0.010 A 
BRANCH  16  19
HETATM   19  C   UNL     1     -36.533 -50.060  15.818  1.00  0.00     0.010 C 
HETATM   20  C   UNL     1     -36.257 -48.567  16.027  1.00  0.00     0.015 C 
HETATM   21  C   UNL     1     -36.817 -50.738  17.163  1.00  0.00     0.015 C 
ENDBRANCH  16  19
ENDBRANCH  12  13
BRANCH  12  22
HETATM   22  O   UNL     1     -40.762 -50.580  10.828  1.00  0.00    -0.389 OA
HETATM   23  H   UNL     1     -40.035 -51.005  10.342  1.00  0.00     0.210 HD
ENDBRANCH  12  22
ENDBRANCH  11  12
ENDBRANCH   1  11
BRANCH   2  24
HETATM   24  C   UNL     1     -43.986 -53.229  12.571  1.00  0.00     0.240 C 
BRANCH  24  25
HETATM   25  O   UNL     1     -44.861 -54.338  12.406  1.00  0.00    -0.393 OA
HETATM   26  H   UNL     1     -44.630 -54.963  13.118  1.00  0.00     0.209 HD
ENDBRANCH  24  25
ENDBRANCH   2  24
TORSDOF 7
ENDMDL
MODEL 9
REMARK VINA RESULT:      -6.0      2.138      3.198
REMARK  7 active torsions:
REMARK  status: ('A' for Active; 'I' for Inactive)
REMARK    1  A    between atoms: C_2  and  C_4 
REMARK    2  A    between atoms: C_7  and  C_10 
REMARK    3  A    between atoms: C_10  and  O_11 
REMARK    4  A    between atoms: C_10  and  C_12 
REMARK    5  A    between atoms: C_12  and  N_13 
REMARK    6  A    between atoms: C_14  and  C_15 
REMARK    7  A    between atoms: C_15  and  O_16 
ROOT
HETATM    1  N   UNL     1     -39.419 -50.337  13.221  1.00  0.00    -0.330 N 
HETATM    2  C   UNL     1     -38.077 -50.469  12.922  1.00  0.00     0.108 A 
HETATM    3  N   UNL     1     -37.355 -50.477  14.029  1.00  0.00    -0.342 N 
ATOM      4  HN  UNL     1     -36.343 -50.591  14.099  1.00  0.00     0.167 HD
HETATM    5  C   UNL     1     -38.239 -50.303  15.064  1.00  0.00     0.060 A 
HETATM    6  C   UNL     1     -37.997 -50.230  16.443  1.00  0.00     0.032 A 
HETATM    7  C   UNL     1     -39.079 -50.048  17.313  1.00  0.00     0.002 A 
HETATM    8  C   UNL     1     -40.378 -49.938  16.817  1.00  0.00     0.002 A 
HETATM    9  C   UNL     1     -40.638 -50.015  15.443  1.00  0.00     0.032 A 
HETATM   10  C   UNL     1     -39.542 -50.203  14.589  1.00  0.00     0.062 A 
ENDROOT
BRANCH   1  11
HETATM   11  C   UNL     1     -40.537 -50.498  12.308  1.00  0.00     0.167 C 
BRANCH  11  12
HETATM   12  C   UNL     1     -41.172 -51.897  12.297  1.00  0.00     0.169 C 
BRANCH  12  13
HETATM   13  C   UNL     1     -42.644 -51.923  12.688  1.00  0.00    -0.028 A 
HETATM   14  C   UNL     1     -43.367 -53.118  12.544  1.00  0.00     0.010 A 
HETATM   15  C   UNL     1     -44.694 -53.215  12.978  1.00  0.00     0.008 A 
HETATM   16  C   UNL     1     -45.339 -52.121  13.571  1.00  0.00    -0.055 A 
HETATM   17  C   UNL     1     -44.639 -50.915  13.665  1.00  0.00     0.008 A 
HETATM   18  C   UNL     1     -43.316 -50.815  13.224  1.00  0.00     0.010 A 
BRANCH  16  19
HETATM   19  C   UNL     1     -46.707 -52.309  14.204  1.00  0.00     0.010 C 
HETATM   20  C   UNL     1     -46.836 -53.763  14.670  1.00  0.00     0.015 C 
HETATM   21  C   UNL     1     -47.011 -51.354  15.363  1.00  0.00     0.015 C 
ENDBRANCH  16  19
ENDBRANCH  12  13
BRANCH  12  22
HETATM   22  O   UNL     1     -41.044 -52.474  10.993  1.00  0.00    -0.389 OA
HETATM   23  H   UNL     1     -41.575 -51.937  10.380  1.00  0.00     0.210 HD
ENDBRANCH  12  22
ENDBRANCH  11  12
ENDBRANCH   1  11
BRANCH   2  24
HETATM   24  C   UNL     1     -37.521 -50.566  11.545  1.00  0.00     0.240 C 
BRANCH  24  25
HETATM   25  O   UNL     1     -36.791 -51.782  11.433  1.00  0.00    -0.393 OA
HETATM   26  H   UNL     1     -35.882 -51.569  11.713  1.00  0.00     0.209 HD
ENDBRANCH  24  25
ENDBRANCH   2  24
TORSDOF 7
ENDMDL
