MODEL 1
REMARK VINA RESULT:      -6.3      0.000      0.000
REMARK  5 active torsions:
REMARK  status: ('A' for Active; 'I' for Inactive)
REMARK       I    between atoms: N_4  and  C_13 
REMARK    1  A    between atoms: N_7  and  C_8 
REMARK    2  A    between atoms: C_8  and  C_9 
REMARK       I    between atoms: C_13  and  N_15 
REMARK    3  A    between atoms: N_15  and  C_16 
REMARK    4  A    between atoms: C_16  and  C_17 
REMARK    5  A    between atoms: C_17  and  C_18 
ROOT
HETATM    1  C   UNL     1     -41.371 -50.517  13.676  1.00  0.00     0.044 C 
HETATM    2  C   UNL     1     -40.477 -51.443  12.834  1.00  0.00     0.237 C 
HETATM    3  C   UNL     1     -41.364 -52.362  11.945  1.00  0.00     0.163 C 
HETATM    4  N   UNL     1     -42.010 -53.412  12.742  1.00  0.00    -0.331 N 
HETATM    5  C   UNL     1     -41.061 -54.205  13.524  1.00  0.00     0.158 C 
HETATM    6  C   UNL     1     -40.166 -53.304  14.403  1.00  0.00     0.293 C 
HETATM    7  N   UNL     1     -39.496 -52.249  13.610  1.00  0.00     0.104 N 
HETATM    8  C   UNL     1     -43.357 -53.552  13.002  1.00  0.00     0.318 C 
HETATM    9  O   UNL     1     -43.795 -54.342  13.835  1.00  0.00    -0.247 OA
HETATM   10  N   UNL     1     -44.195 -52.737  12.280  1.00  0.00    -0.343 N 
HETATM   11  H   UNL     1     -43.885 -52.567  11.337  1.00  0.00     0.164 HD
ENDROOT
BRANCH  10  12
HETATM   12  C   UNL     1     -45.634 -52.887  12.456  1.00  0.00     0.129 C 
BRANCH  12  13
HETATM   13  C   UNL     1     -46.301 -51.584  12.891  1.00  0.00     0.060 C 
BRANCH  13  14
HETATM   14  C   UNL     1     -46.171 -51.327  14.368  1.00  0.00    -0.041 A 
HETATM   15  C   UNL     1     -47.220 -51.590  15.252  1.00  0.00     0.010 A 
HETATM   16  C   UNL     1     -47.057 -51.330  16.612  1.00  0.00     0.018 A 
HETATM   17  C   UNL     1     -45.846 -50.822  17.044  1.00  0.00     0.087 A 
HETATM   18  N   UNL     1     -44.805 -50.569  16.225  1.00  0.00    -0.375 N 
HETATM   19  C   UNL     1     -44.991 -50.830  14.910  1.00  0.00     0.094 A 
ATOM     20  HN  UNL     1     -43.922 -50.201  16.578  1.00  0.00     0.164 HD
ENDBRANCH  13  14
ENDBRANCH  12  13
ENDBRANCH  10  12
BRANCH   7  21
HETATM   21  C   UNL     1     -38.572 -51.423  14.428  1.00  0.00     0.389 C 
BRANCH  21  22
HETATM   22  C   UNL     1     -37.458 -50.608  13.722  1.00  0.00     0.413 C 
HETATM   23  F   UNL     1     -36.938 -51.231  12.642  1.00  0.00    -0.169 F 
HETATM   24  F   UNL     1     -37.930 -49.409  13.305  1.00  0.00    -0.169 F 
HETATM   25  F   UNL     1     -36.438 -50.360  14.578  1.00  0.00    -0.169 F 
ENDBRANCH  21  22
ENDBRANCH   7  21
TORSDOF 5
ENDMDL
MODEL 2
REMARK VINA RESULT:      -6.1      3.432      4.348
REMARK  5 active torsions:
REMARK  status: ('A' for Active; 'I' for Inactive)
REMARK       I    between atoms: N_4  and  C_13 
REMARK    1  A    between atoms: N_7  and  C_8 
REMARK    2  A    between atoms: C_8  and  C_9 
REMARK       I    between atoms: C_13  and  N_15 
REMARK    3  A    between atoms: N_15  and  C_16 
REMARK    4  A    between atoms: C_16  and  C_17 
REMARK    5  A    between atoms: C_17  and  C_18 
ROOT
HETATM    1  C   UNL     1     -41.748 -48.112  13.610  1.00  0.00     0.044 C 
HETATM    2  C   UNL     1     -41.201 -47.808  12.205  1.00  0.00     0.237 C 
HETATM    3  C   UNL     1     -41.496 -49.006  11.257  1.00  0.00     0.163 C 
HETATM    4  N   UNL     1     -40.618 -50.145  11.548  1.00  0.00    -0.331 N 
HETATM    5  C   UNL     1     -39.197 -49.797  11.518  1.00  0.00     0.158 C 
HETATM    6  C   UNL     1     -38.892 -48.601  12.447  1.00  0.00     0.293 C 
HETATM    7  N   UNL     1     -39.760 -47.439  12.155  1.00  0.00     0.104 N 
HETATM    8  C   UNL     1     -40.985 -51.372  12.059  1.00  0.00     0.318 C 
HETATM    9  O   UNL     1     -40.167 -52.199  12.455  1.00  0.00    -0.247 OA
HETATM   10  N   UNL     1     -42.335 -51.617  12.119  1.00  0.00    -0.343 N 
HETATM   11  H   UNL     1     -42.856 -51.222  11.352  1.00  0.00     0.164 HD
ENDROOT
BRANCH  10  12
HETATM   12  C   UNL     1     -42.787 -52.923  12.582  1.00  0.00     0.129 C 
BRANCH  12  13
HETATM   13  C   UNL     1     -44.230 -53.212  12.177  1.00  0.00     0.060 C 
BRANCH  13  14
HETATM   14  C   UNL     1     -45.216 -52.905  13.272  1.00  0.00    -0.041 A 
HETATM   15  C   UNL     1     -45.807 -51.645  13.392  1.00  0.00     0.010 A 
HETATM   16  C   UNL     1     -46.709 -51.402  14.426  1.00  0.00     0.018 A 
HETATM   17  C   UNL     1     -46.997 -52.433  15.303  1.00  0.00     0.087 A 
HETATM   18  N   UNL     1     -46.460 -53.666  15.211  1.00  0.00    -0.375 N 
HETATM   19  C   UNL     1     -45.586 -53.872  14.198  1.00  0.00     0.094 A 
ATOM     20  HN  UNL     1     -46.699 -54.405  15.871  1.00  0.00     0.164 HD
ENDBRANCH  13  14
ENDBRANCH  12  13
ENDBRANCH  10  12
BRANCH   7  21
HETATM   21  C   UNL     1     -39.427 -46.256  12.987  1.00  0.00     0.389 C 
BRANCH  21  22
HETATM   22  C   UNL     1     -39.516 -44.840  12.363  1.00  0.00     0.413 C 
HETATM   23  F   UNL     1     -40.693 -44.221  12.599  1.00  0.00    -0.169 F 
HETATM   24  F   UNL     1     -38.537 -44.039  12.846  1.00  0.00    -0.169 F 
HETATM   25  F   UNL     1     -39.354 -44.904  11.019  1.00  0.00    -0.169 F 
ENDBRANCH  21  22
ENDBRANCH   7  21
TORSDOF 5
ENDMDL
MODEL 3
REMARK VINA RESULT:      -5.9      4.183      6.862
REMARK  5 active torsions:
REMARK  status: ('A' for Active; 'I' for Inactive)
REMARK       I    between atoms: N_4  and  C_13 
REMARK    1  A    between atoms: N_7  and  C_8 
REMARK    2  A    between atoms: C_8  and  C_9 
REMARK       I    between atoms: C_13  and  N_15 
REMARK    3  A    between atoms: N_15  and  C_16 
REMARK    4  A    between atoms: C_16  and  C_17 
REMARK    5  A    between atoms: C_17  and  C_18 
ROOT
HETATM    1  C   UNL     1     -43.120 -50.495  13.511  1.00  0.00     0.044 C 
HETATM    2  C   UNL     1     -43.330 -51.393  14.742  1.00  0.00     0.237 C 
HETATM    3  C   UNL     1     -41.965 -51.651  15.442  1.00  0.00     0.163 C 
HETATM    4  N   UNL     1     -41.141 -52.590  14.673  1.00  0.00    -0.331 N 
HETATM    5  C   UNL     1     -41.824 -53.852  14.386  1.00  0.00     0.158 C 
HETATM    6  C   UNL     1     -43.186 -53.610  13.700  1.00  0.00     0.293 C 
HETATM    7  N   UNL     1     -44.035 -52.676  14.473  1.00  0.00     0.104 N 
HETATM    8  C   UNL     1     -39.955 -52.320  14.022  1.00  0.00     0.318 C 
HETATM    9  O   UNL     1     -39.430 -53.111  13.241  1.00  0.00    -0.247 OA
HETATM   10  N   UNL     1     -39.393 -51.094  14.284  1.00  0.00    -0.343 N 
HETATM   11  H   UNL     1     -39.522 -50.782  15.233  1.00  0.00     0.164 HD
ENDROOT
BRANCH  10  12
HETATM   12  C   UNL     1     -38.103 -50.777  13.684  1.00  0.00     0.129 C 
BRANCH  12  13
HETATM   13  C   UNL     1     -38.048 -49.344  13.160  1.00  0.00     0.060 C 
BRANCH  13  14
HETATM   14  C   UNL     1     -39.249 -48.980  12.328  1.00  0.00    -0.041 A 
HETATM   15  C   UNL     1     -39.984 -47.818  12.574  1.00  0.00     0.010 A 
HETATM   16  C   UNL     1     -41.093 -47.525  11.783  1.00  0.00     0.018 A 
HETATM   17  C   UNL     1     -41.426 -48.400  10.765  1.00  0.00     0.087 A 
HETATM   18  N   UNL     1     -40.732 -49.523  10.487  1.00  0.00    -0.375 N 
HETATM   19  C   UNL     1     -39.661 -49.784  11.272  1.00  0.00     0.094 A 
ATOM     20  HN  UNL     1     -41.001 -50.144   9.724  1.00  0.00     0.164 HD
ENDBRANCH  13  14
ENDBRANCH  12  13
ENDBRANCH  10  12
BRANCH   7  21
HETATM   21  C   UNL     1     -45.378 -52.493  13.867  1.00  0.00     0.389 C 
BRANCH  21  22
HETATM   22  C   UNL     1     -46.594 -52.219  14.787  1.00  0.00     0.413 C 
HETATM   23  F   UNL     1     -47.215 -51.049  14.525  1.00  0.00    -0.169 F 
HETATM   24  F   UNL     1     -47.519 -53.201  14.667  1.00  0.00    -0.169 F 
HETATM   25  F   UNL     1     -46.208 -52.191  16.086  1.00  0.00    -0.169 F 
ENDBRANCH  21  22
ENDBRANCH   7  21
TORSDOF 5
ENDMDL
MODEL 4
REMARK VINA RESULT:      -5.8      1.199      1.588
REMARK  5 active torsions:
REMARK  status: ('A' for Active; 'I' for Inactive)
REMARK       I    between atoms: N_4  and  C_13 
REMARK    1  A    between atoms: N_7  and  C_8 
REMARK    2  A    between atoms: C_8  and  C_9 
REMARK       I    between atoms: C_13  and  N_15 
REMARK    3  A    between atoms: N_15  and  C_16 
REMARK    4  A    between atoms: C_16  and  C_17 
REMARK    5  A    between atoms: C_17  and  C_18 
ROOT
HETATM    1  C   UNL     1     -41.728 -50.251  14.585  1.00  0.00     0.044 C 
HETATM    2  C   UNL     1     -40.887 -50.459  13.314  1.00  0.00     0.237 C 
HETATM    3  C   UNL     1     -41.801 -50.956  12.157  1.00  0.00     0.163 C 
HETATM    4  N   UNL     1     -42.188 -52.358  12.347  1.00  0.00    -0.331 N 
HETATM    5  C   UNL     1     -41.042 -53.251  12.524  1.00  0.00     0.158 C 
HETATM    6  C   UNL     1     -40.121 -52.764  13.663  1.00  0.00     0.293 C 
HETATM    7  N   UNL     1     -39.710 -51.354  13.477  1.00  0.00     0.104 N 
HETATM    8  C   UNL     1     -43.450 -52.847  12.610  1.00  0.00     0.318 C 
HETATM    9  O   UNL     1     -43.657 -54.010  12.947  1.00  0.00    -0.247 OA
HETATM   10  N   UNL     1     -44.480 -51.945  12.486  1.00  0.00    -0.343 N 
HETATM   11  H   UNL     1     -44.349 -51.276  11.745  1.00  0.00     0.164 HD
ENDROOT
BRANCH  10  12
HETATM   12  C   UNL     1     -45.846 -52.416  12.679  1.00  0.00     0.129 C 
BRANCH  12  13
HETATM   13  C   UNL     1     -46.595 -51.600  13.729  1.00  0.00     0.060 C 
BRANCH  13  14
HETATM   14  C   UNL     1     -46.152 -51.908  15.134  1.00  0.00    -0.041 A 
HETATM   15  C   UNL     1     -45.680 -50.909  15.989  1.00  0.00     0.010 A 
HETATM   16  C   UNL     1     -45.273 -51.243  17.280  1.00  0.00     0.018 A 
HETATM   17  C   UNL     1     -45.360 -52.565  17.676  1.00  0.00     0.087 A 
HETATM   18  N   UNL     1     -45.823 -53.554  16.887  1.00  0.00    -0.375 N 
HETATM   19  C   UNL     1     -46.210 -53.202  15.638  1.00  0.00     0.094 A 
ATOM     20  HN  UNL     1     -45.880 -54.518  17.213  1.00  0.00     0.164 HD
ENDBRANCH  13  14
ENDBRANCH  12  13
ENDBRANCH  10  12
BRANCH   7  21
HETATM   21  C   UNL     1     -38.761 -50.895  14.522  1.00  0.00     0.389 C 
BRANCH  21  22
HETATM   22  C   UNL     1     -37.377 -50.342  14.099  1.00  0.00     0.413 C 
HETATM   23  F   UNL     1     -36.480 -50.306  15.108  1.00  0.00    -0.169 F 
HETATM   24  F   UNL     1     -36.839 -51.096  13.111  1.00  0.00    -0.169 F 
HETATM   25  F   UNL     1     -37.497 -49.081  13.619  1.00  0.00    -0.169 F 
ENDBRANCH  21  22
ENDBRANCH   7  21
TORSDOF 5
ENDMDL
MODEL 5
REMARK VINA RESULT:      -5.6      2.123      2.937
REMARK  5 active torsions:
REMARK  status: ('A' for Active; 'I' for Inactive)
REMARK       I    between atoms: N_4  and  C_13 
REMARK    1  A    between atoms: N_7  and  C_8 
REMARK    2  A    between atoms: C_8  and  C_9 
REMARK       I    between atoms: C_13  and  N_15 
REMARK    3  A    between atoms: N_15  and  C_16 
REMARK    4  A    between atoms: C_16  and  C_17 
REMARK    5  A    between atoms: C_17  and  C_18 
ROOT
HETATM    1  C   UNL     1     -42.705 -50.541  12.896  1.00  0.00     0.044 C 
HETATM    2  C   UNL     1     -41.253 -50.870  12.514  1.00  0.00     0.237 C 
HETATM    3  C   UNL     1     -41.027 -52.408  12.583  1.00  0.00     0.163 C 
HETATM    4  N   UNL     1     -40.958 -52.875  13.973  1.00  0.00    -0.331 N 
HETATM    5  C   UNL     1     -39.953 -52.167  14.767  1.00  0.00     0.158 C 
HETATM    6  C   UNL     1     -40.158 -50.638  14.698  1.00  0.00     0.293 C 
HETATM    7  N   UNL     1     -40.215 -50.150  13.302  1.00  0.00     0.104 N 
HETATM    8  C   UNL     1     -41.860 -53.688  14.626  1.00  0.00     0.318 C 
HETATM    9  O   UNL     1     -41.831 -53.873  15.840  1.00  0.00    -0.247 OA
HETATM   10  N   UNL     1     -42.818 -54.277  13.835  1.00  0.00    -0.343 N 
HETATM   11  H   UNL     1     -42.488 -54.534  12.919  1.00  0.00     0.164 HD
ENDROOT
BRANCH  10  12
HETATM   12  C   UNL     1     -43.757 -55.205  14.453  1.00  0.00     0.129 C 
BRANCH  12  13
HETATM   13  C   UNL     1     -45.166 -55.066  13.881  1.00  0.00     0.060 C 
BRANCH  13  14
HETATM   14  C   UNL     1     -45.800 -53.740  14.208  1.00  0.00    -0.041 A 
HETATM   15  C   UNL     1     -45.961 -52.748  13.238  1.00  0.00     0.010 A 
HETATM   16  C   UNL     1     -46.547 -51.533  13.587  1.00  0.00     0.018 A 
HETATM   17  C   UNL     1     -46.961 -51.353  14.894  1.00  0.00     0.087 A 
HETATM   18  N   UNL     1     -46.836 -52.291  15.854  1.00  0.00    -0.375 N 
HETATM   19  C   UNL     1     -46.262 -53.461  15.488  1.00  0.00     0.094 A 
ATOM     20  HN  UNL     1     -47.158 -52.128  16.808  1.00  0.00     0.164 HD
ENDBRANCH  13  14
ENDBRANCH  12  13
ENDBRANCH  10  12
BRANCH   7  21
HETATM   21  C   UNL     1     -40.334 -48.673  13.220  1.00  0.00     0.389 C 
BRANCH  21  22
HETATM   22  C   UNL     1     -39.714 -47.928  12.010  1.00  0.00     0.413 C 
HETATM   23  F   UNL     1     -38.615 -48.535  11.511  1.00  0.00    -0.169 F 
HETATM   24  F   UNL     1     -40.609 -47.824  11.000  1.00  0.00    -0.169 F 
HETATM   25  F   UNL     1     -39.357 -46.669  12.360  1.00  0.00    -0.169 F 
ENDBRANCH  21  22
ENDBRANCH   7  21
TORSDOF 5
ENDMDL
MODEL 6
REMARK VINA RESULT:      -5.6      5.006      7.751
REMARK  5 active torsions:
REMARK  status: ('A' for Active; 'I' for Inactive)
REMARK       I    between atoms: N_4  and  C_13 
REMARK    1  A    between atoms: N_7  and  C_8 
REMARK    2  A    between atoms: C_8  and  C_9 
REMARK       I    between atoms: C_13  and  N_15 
REMARK    3  A    between atoms: N_15  and  C_16 
REMARK    4  A    between atoms: C_16  and  C_17 
REMARK    5  A    between atoms: C_17  and  C_18 
ROOT
HETATM    1  C   UNL     1     -43.159 -52.807  15.694  1.00  0.00     0.044 C 
HETATM    2  C   UNL     1     -43.639 -53.353  14.339  1.00  0.00     0.237 C 
HETATM    3  C   UNL     1     -42.633 -54.419  13.817  1.00  0.00     0.163 C 
HETATM    4  N   UNL     1     -41.397 -53.794  13.332  1.00  0.00    -0.331 N 
HETATM    5  C   UNL     1     -41.634 -52.765  12.319  1.00  0.00     0.158 C 
HETATM    6  C   UNL     1     -42.639 -51.705  12.820  1.00  0.00     0.293 C 
HETATM    7  N   UNL     1     -43.897 -52.320  13.300  1.00  0.00     0.104 N 
HETATM    8  C   UNL     1     -40.137 -53.899  13.882  1.00  0.00     0.318 C 
HETATM    9  O   UNL     1     -39.196 -53.192  13.530  1.00  0.00    -0.247 OA
HETATM   10  N   UNL     1     -39.992 -54.842  14.871  1.00  0.00    -0.343 N 
HETATM   11  H   UNL     1     -40.543 -55.673  14.727  1.00  0.00     0.164 HD
ENDROOT
BRANCH  10  12
HETATM   12  C   UNL     1     -38.667 -55.053  15.443  1.00  0.00     0.129 C 
BRANCH  12  13
HETATM   13  C   UNL     1     -38.687 -55.024  16.969  1.00  0.00     0.060 C 
BRANCH  13  14
HETATM   14  C   UNL     1     -38.520 -56.389  17.581  1.00  0.00    -0.041 A 
HETATM   15  C   UNL     1     -37.402 -56.713  18.354  1.00  0.00     0.010 A 
HETATM   16  C   UNL     1     -37.286 -57.992  18.895  1.00  0.00     0.018 A 
HETATM   17  C   UNL     1     -38.297 -58.904  18.651  1.00  0.00     0.087 A 
HETATM   18  N   UNL     1     -39.397 -58.625  17.924  1.00  0.00    -0.375 N 
HETATM   19  C   UNL     1     -39.483 -57.375  17.410  1.00  0.00     0.094 A 
ATOM     20  HN  UNL     1     -40.128 -59.319  17.769  1.00  0.00     0.164 HD
ENDBRANCH  13  14
ENDBRANCH  12  13
ENDBRANCH  10  12
BRANCH   7  21
HETATM   21  C   UNL     1     -44.904 -51.309  13.712  1.00  0.00     0.389 C 
BRANCH  21  22
HETATM   22  C   UNL     1     -46.408 -51.598  13.476  1.00  0.00     0.413 C 
HETATM   23  F   UNL     1     -46.856 -51.174  12.274  1.00  0.00    -0.169 F 
HETATM   24  F   UNL     1     -46.660 -52.926  13.552  1.00  0.00    -0.169 F 
HETATM   25  F   UNL     1     -47.162 -50.993  14.426  1.00  0.00    -0.169 F 
ENDBRANCH  21  22
ENDBRANCH   7  21
TORSDOF 5
ENDMDL
MODEL 7
REMARK VINA RESULT:      -5.4      4.735      6.773
REMARK  5 active torsions:
REMARK  status: ('A' for Active; 'I' for Inactive)
REMARK       I    between atoms: N_4  and  C_13 
REMARK    1  A    between atoms: N_7  and  C_8 
REMARK    2  A    between atoms: C_8  and  C_9 
REMARK       I    between atoms: C_13  and  N_15 
REMARK    3  A    between atoms: N_15  and  C_16 
REMARK    4  A    between atoms: C_16  and  C_17 
REMARK    5  A    between atoms: C_17  and  C_18 
ROOT
HETATM    1  C   UNL     1     -43.810 -51.283  14.457  1.00  0.00     0.044 C 
HETATM    2  C   UNL     1     -43.139 -52.297  15.398  1.00  0.00     0.237 C 
HETATM    3  C   UNL     1     -41.593 -52.226  15.230  1.00  0.00     0.163 C 
HETATM    4  N   UNL     1     -41.165 -52.841  13.968  1.00  0.00    -0.331 N 
HETATM    5  C   UNL     1     -41.642 -54.215  13.809  1.00  0.00     0.158 C 
HETATM    6  C   UNL     1     -43.173 -54.303  13.985  1.00  0.00     0.293 C 
HETATM    7  N   UNL     1     -43.619 -53.699  15.260  1.00  0.00     0.104 N 
HETATM    8  C   UNL     1     -40.606 -52.207  12.879  1.00  0.00     0.318 C 
HETATM    9  O   UNL     1     -40.456 -52.761  11.792  1.00  0.00    -0.247 OA
HETATM   10  N   UNL     1     -40.234 -50.899  13.072  1.00  0.00    -0.343 N 
HETATM   11  H   UNL     1     -39.879 -50.708  13.995  1.00  0.00     0.164 HD
ENDROOT
BRANCH  10  12
HETATM   12  C   UNL     1     -39.571 -50.195  11.981  1.00  0.00     0.129 C 
BRANCH  12  13
HETATM   13  C   UNL     1     -39.534 -48.685  12.206  1.00  0.00     0.060 C 
BRANCH  13  14
HETATM   14  C   UNL     1     -40.546 -47.946  11.372  1.00  0.00    -0.041 A 
HETATM   15  C   UNL     1     -41.746 -48.543  10.978  1.00  0.00     0.010 A 
HETATM   16  C   UNL     1     -42.650 -47.823  10.199  1.00  0.00     0.018 A 
HETATM   17  C   UNL     1     -42.328 -46.525   9.847  1.00  0.00     0.087 A 
HETATM   18  N   UNL     1     -41.188 -45.909  10.220  1.00  0.00    -0.375 N 
HETATM   19  C   UNL     1     -40.328 -46.632  10.975  1.00  0.00     0.094 A 
ATOM     20  HN  UNL     1     -40.985 -44.948   9.949  1.00  0.00     0.164 HD
ENDBRANCH  13  14
ENDBRANCH  12  13
ENDBRANCH  10  12
BRANCH   7  21
HETATM   21  C   UNL     1     -45.080 -53.845  15.479  1.00  0.00     0.389 C 
BRANCH  21  22
HETATM   22  C   UNL     1     -45.987 -54.252  14.291  1.00  0.00     0.413 C 
HETATM   23  F   UNL     1     -45.705 -53.590  13.147  1.00  0.00    -0.169 F 
HETATM   24  F   UNL     1     -45.871 -55.575  14.028  1.00  0.00    -0.169 F 
HETATM   25  F   UNL     1     -47.289 -54.016  14.585  1.00  0.00    -0.169 F 
ENDBRANCH  21  22
ENDBRANCH   7  21
TORSDOF 5
ENDMDL
MODEL 8
REMARK VINA RESULT:      -5.3     16.943     18.623
REMARK  5 active torsions:
REMARK  status: ('A' for Active; 'I' for Inactive)
REMARK       I    between atoms: N_4  and  C_13 
REMARK    1  A    between atoms: N_7  and  C_8 
REMARK    2  A    between atoms: C_8  and  C_9 
REMARK       I    between atoms: C_13  and  N_15 
REMARK    3  A    between atoms: N_15  and  C_16 
REMARK    4  A    between atoms: C_16  and  C_17 
REMARK    5  A    between atoms: C_17  and  C_18 
ROOT
HETATM    1  C   UNL     1     -50.957 -51.056  -2.776  1.00  0.00     0.044 C 
HETATM    2  C   UNL     1     -50.528 -51.892  -1.559  1.00  0.00     0.237 C 
HETATM    3  C   UNL     1     -49.248 -51.275  -0.923  1.00  0.00     0.163 C 
HETATM    4  N   UNL     1     -48.063 -51.537  -1.748  1.00  0.00    -0.331 N 
HETATM    5  C   UNL     1     -47.866 -52.958  -2.035  1.00  0.00     0.158 C 
HETATM    6  C   UNL     1     -49.133 -53.586  -2.657  1.00  0.00     0.293 C 
HETATM    7  N   UNL     1     -50.334 -53.343  -1.828  1.00  0.00     0.104 N 
HETATM    8  C   UNL     1     -47.309 -50.615  -2.442  1.00  0.00     0.318 C 
HETATM    9  O   UNL     1     -46.453 -50.937  -3.262  1.00  0.00    -0.247 OA
HETATM   10  N   UNL     1     -47.582 -49.295  -2.175  1.00  0.00    -0.343 N 
HETATM   11  H   UNL     1     -47.828 -49.116  -1.214  1.00  0.00     0.164 HD
ENDROOT
BRANCH  10  12
HETATM   12  C   UNL     1     -46.771 -48.271  -2.821  1.00  0.00     0.129 C 
BRANCH  12  13
HETATM   13  C   UNL     1     -46.003 -47.421  -1.812  1.00  0.00     0.060 C 
BRANCH  13  14
HETATM   14  C   UNL     1     -44.517 -47.427  -2.056  1.00  0.00    -0.041 A 
HETATM   15  C   UNL     1     -43.637 -46.720  -1.232  1.00  0.00     0.010 A 
HETATM   16  C   UNL     1     -42.270 -46.748  -1.500  1.00  0.00     0.018 A 
HETATM   17  C   UNL     1     -41.826 -47.491  -2.578  1.00  0.00     0.087 A 
HETATM   18  N   UNL     1     -42.641 -48.198  -3.386  1.00  0.00    -0.375 N 
HETATM   19  C   UNL     1     -43.964 -48.152  -3.104  1.00  0.00     0.094 A 
ATOM     20  HN  UNL     1     -42.279 -48.741  -4.170  1.00  0.00     0.164 HD
ENDBRANCH  13  14
ENDBRANCH  12  13
ENDBRANCH  10  12
BRANCH   7  21
HETATM   21  C   UNL     1     -51.546 -54.007  -2.372  1.00  0.00     0.389 C 
BRANCH  21  22
HETATM   22  C   UNL     1     -52.744 -54.286  -1.431  1.00  0.00     0.413 C 
HETATM   23  F   UNL     1     -53.399 -55.432  -1.718  1.00  0.00    -0.169 F 
HETATM   24  F   UNL     1     -52.335 -54.370  -0.142  1.00  0.00    -0.169 F 
HETATM   25  F   UNL     1     -53.646 -53.277  -1.498  1.00  0.00    -0.169 F 
ENDBRANCH  21  22
ENDBRANCH   7  21
TORSDOF 5
ENDMDL
MODEL 9
REMARK VINA RESULT:      -5.3      4.955      8.005
REMARK  5 active torsions:
REMARK  status: ('A' for Active; 'I' for Inactive)
REMARK       I    between atoms: N_4  and  C_13 
REMARK    1  A    between atoms: N_7  and  C_8 
REMARK    2  A    between atoms: C_8  and  C_9 
REMARK       I    between atoms: C_13  and  N_15 
REMARK    3  A    between atoms: N_15  and  C_16 
REMARK    4  A    between atoms: C_16  and  C_17 
REMARK    5  A    between atoms: C_17  and  C_18 
ROOT
HETATM    1  C   UNL     1     -42.968 -52.711  16.218  1.00  0.00     0.044 C 
HETATM    2  C   UNL     1     -43.709 -53.453  15.094  1.00  0.00     0.237 C 
HETATM    3  C   UNL     1     -42.821 -54.613  14.557  1.00  0.00     0.163 C 
HETATM    4  N   UNL     1     -41.715 -54.104  13.739  1.00  0.00    -0.331 N 
HETATM    5  C   UNL     1     -42.161 -53.243  12.643  1.00  0.00     0.158 C 
HETATM    6  C   UNL     1     -43.052 -52.092  13.160  1.00  0.00     0.293 C 
HETATM    7  N   UNL     1     -44.181 -52.592  13.975  1.00  0.00     0.104 N 
HETATM    8  C   UNL     1     -40.369 -54.152  14.033  1.00  0.00     0.318 C 
HETATM    9  O   UNL     1     -39.524 -53.533  13.389  1.00  0.00    -0.247 OA
HETATM   10  N   UNL     1     -40.018 -54.930  15.110  1.00  0.00    -0.343 N 
HETATM   11  H   UNL     1     -40.580 -55.759  15.215  1.00  0.00     0.164 HD
ENDROOT
BRANCH  10  12
HETATM   12  C   UNL     1     -38.604 -55.080  15.429  1.00  0.00     0.129 C 
BRANCH  12  13
HETATM   13  C   UNL     1     -38.383 -55.890  16.705  1.00  0.00     0.060 C 
BRANCH  13  14
HETATM   14  C   UNL     1     -37.225 -55.384  17.523  1.00  0.00    -0.041 A 
HETATM   15  C   UNL     1     -37.335 -54.242  18.320  1.00  0.00     0.010 A 
HETATM   16  C   UNL     1     -36.235 -53.806  19.055  1.00  0.00     0.018 A 
HETATM   17  C   UNL     1     -35.061 -54.533  18.976  1.00  0.00     0.087 A 
HETATM   18  N   UNL     1     -34.919 -55.647  18.231  1.00  0.00    -0.375 N 
HETATM   19  C   UNL     1     -36.004 -56.047  17.526  1.00  0.00     0.094 A 
ATOM     20  HN  UNL     1     -34.040 -56.164  18.200  1.00  0.00     0.164 HD
ENDBRANCH  13  14
ENDBRANCH  12  13
ENDBRANCH  10  12
BRANCH   7  21
HETATM   21  C   UNL     1     -45.091 -51.504  14.415  1.00  0.00     0.389 C 
BRANCH  21  22
HETATM   22  C   UNL     1     -46.619 -51.666  14.213  1.00  0.00     0.413 C 
HETATM   23  F   UNL     1     -47.034 -52.951  14.250  1.00  0.00    -0.169 F 
HETATM   24  F   UNL     1     -47.304 -50.996  15.170  1.00  0.00    -0.169 F 
HETATM   25  F   UNL     1     -46.997 -51.152  13.018  1.00  0.00    -0.169 F 
ENDBRANCH  21  22
ENDBRANCH   7  21
TORSDOF 5
ENDMDL
