MODEL 1
REMARK VINA RESULT:      -6.5      0.000      0.000
REMARK  5 active torsions:
REMARK  status: ('A' for Active; 'I' for Inactive)
REMARK    1  A    between atoms: C_2  and  N_3 
REMARK    2  A    between atoms: C_2  and  C_17 
REMARK       I    between atoms: N_3  and  C_4 
REMARK       I    between atoms: C_4  and  N_6 
REMARK    3  A    between atoms: N_6  and  C_7 
REMARK    4  A    between atoms: C_7  and  C_8 
REMARK    5  A    between atoms: C_8  and  C_9 
REMARK       I    between atoms: C_17  and  N_19 
ROOT
HETATM    1  N   UNL     1     -42.759 -50.457  12.224  1.00  0.00    -0.330 N 
HETATM    2  C   UNL     1     -42.967 -49.116  12.341  1.00  0.00     0.316 C 
HETATM    3  O   UNL     1     -43.190 -48.563  13.413  1.00  0.00    -0.247 OA
HETATM    4  N   UNL     1     -42.867 -48.447  11.157  1.00  0.00    -0.343 N 
HETATM    5  H   UNL     1     -42.498 -50.881  11.344  1.00  0.00     0.165 HD
HETATM    6  H   UNL     1     -43.171 -48.972  10.350  1.00  0.00     0.164 HD
ENDROOT
BRANCH   1   7
HETATM    7  C   UNL     1     -42.723 -51.276  13.425  1.00  0.00     0.174 C 
HETATM    8  C   UNL     1     -41.287 -51.638  13.793  1.00  0.00     0.042 C 
BRANCH   7   9
HETATM    9  C   UNL     1     -43.557 -52.562  13.273  1.00  0.00     0.242 C 
HETATM   10  O   UNL     1     -42.983 -53.600  12.928  1.00  0.00    -0.271 OA
HETATM   11  N   UNL     1     -44.905 -52.498  13.643  1.00  0.00    -0.346 N 
HETATM   12  C   UNL     1     -45.641 -51.236  13.830  1.00  0.00     0.126 C 
HETATM   13  C   UNL     1     -45.759 -53.694  13.840  1.00  0.00     0.083 C 
HETATM   14  C   UNL     1     -46.192 -51.140  15.245  1.00  0.00     0.020 C 
HETATM   15  C   UNL     1     -47.091 -52.332  15.535  1.00  0.00     0.004 C 
HETATM   16  C   UNL     1     -46.351 -53.644  15.267  1.00  0.00     0.025 C 
HETATM   17  C   UNL     1     -45.134 -55.071  13.615  1.00  0.00     0.032 C 
ENDBRANCH   7   9
ENDBRANCH   1   7
BRANCH   4  18
HETATM   18  C   UNL     1     -43.095 -47.010  11.137  1.00  0.00     0.129 C 
BRANCH  18  19
HETATM   19  C   UNL     1     -43.385 -46.478   9.726  1.00  0.00     0.059 C 
BRANCH  19  20
HETATM   20  C   UNL     1     -44.522 -47.207   9.053  1.00  0.00    -0.048 A 
HETATM   21  C   UNL     1     -45.803 -47.105   9.607  1.00  0.00     0.024 A 
HETATM   22  C   UNL     1     -46.850 -47.789   9.012  1.00  0.00     0.088 A 
HETATM   23  N   UNL     1     -46.712 -48.558   7.914  1.00  0.00    -0.375 N 
HETATM   24  C   UNL     1     -45.470 -48.642   7.389  1.00  0.00     0.094 A 
ATOM     25  HN  UNL     1     -47.504 -49.050   7.501  1.00  0.00     0.164 HD
HETATM   26  C   UNL     1     -44.347 -47.989   7.897  1.00  0.00    -0.040 A 
HETATM   27  C   UNL     1     -43.014 -48.203   7.240  1.00  0.00     0.050 C 
ENDBRANCH  19  20
ENDBRANCH  18  19
ENDBRANCH   4  18
TORSDOF 5
ENDMDL
MODEL 2
REMARK VINA RESULT:      -6.5      3.297      7.319
REMARK  5 active torsions:
REMARK  status: ('A' for Active; 'I' for Inactive)
REMARK    1  A    between atoms: C_2  and  N_3 
REMARK    2  A    between atoms: C_2  and  C_17 
REMARK       I    between atoms: N_3  and  C_4 
REMARK       I    between atoms: C_4  and  N_6 
REMARK    3  A    between atoms: N_6  and  C_7 
REMARK    4  A    between atoms: C_7  and  C_8 
REMARK    5  A    between atoms: C_8  and  C_9 
REMARK       I    between atoms: C_17  and  N_19 
ROOT
HETATM    1  N   UNL     1     -42.454 -51.714  12.084  1.00  0.00    -0.330 N 
HETATM    2  C   UNL     1     -42.935 -52.577  13.022  1.00  0.00     0.316 C 
HETATM    3  O   UNL     1     -42.762 -52.422  14.227  1.00  0.00    -0.247 OA
HETATM    4  N   UNL     1     -43.657 -53.606  12.493  1.00  0.00    -0.343 N 
HETATM    5  H   UNL     1     -42.676 -51.817  11.103  1.00  0.00     0.165 HD
HETATM    6  H   UNL     1     -43.343 -53.917  11.585  1.00  0.00     0.164 HD
ENDROOT
BRANCH   1   7
HETATM    7  C   UNL     1     -41.764 -50.510  12.517  1.00  0.00     0.174 C 
HETATM    8  C   UNL     1     -42.533 -49.262  12.095  1.00  0.00     0.042 C 
BRANCH   7   9
HETATM    9  C   UNL     1     -40.326 -50.440  11.969  1.00  0.00     0.242 C 
HETATM   10  O   UNL     1     -40.148 -49.989  10.833  1.00  0.00    -0.271 OA
HETATM   11  N   UNL     1     -39.290 -50.794  12.842  1.00  0.00    -0.346 N 
HETATM   12  C   UNL     1     -39.499 -51.540  14.095  1.00  0.00     0.126 C 
HETATM   13  C   UNL     1     -37.861 -50.502  12.580  1.00  0.00     0.083 C 
HETATM   14  C   UNL     1     -39.000 -50.737  15.287  1.00  0.00     0.020 C 
HETATM   15  C   UNL     1     -37.529 -50.396  15.105  1.00  0.00     0.004 C 
HETATM   16  C   UNL     1     -37.300 -49.689  13.768  1.00  0.00     0.025 C 
HETATM   17  C   UNL     1     -37.498 -49.787  11.278  1.00  0.00     0.032 C 
ENDBRANCH   7   9
ENDBRANCH   1   7
BRANCH   4  18
HETATM   18  C   UNL     1     -44.205 -54.616  13.386  1.00  0.00     0.129 C 
BRANCH  18  19
HETATM   19  C   UNL     1     -45.714 -54.446  13.613  1.00  0.00     0.059 C 
BRANCH  19  20
HETATM   20  C   UNL     1     -46.029 -53.451  14.703  1.00  0.00    -0.048 A 
HETATM   21  C   UNL     1     -45.934 -53.868  16.036  1.00  0.00     0.024 A 
HETATM   22  C   UNL     1     -46.244 -52.970  17.044  1.00  0.00     0.088 A 
HETATM   23  N   UNL     1     -46.635 -51.701  16.821  1.00  0.00    -0.375 N 
HETATM   24  C   UNL     1     -46.718 -51.314  15.529  1.00  0.00     0.094 A 
ATOM     25  HN  UNL     1     -46.857 -51.065  17.587  1.00  0.00     0.164 HD
HETATM   26  C   UNL     1     -46.420 -52.127  14.435  1.00  0.00    -0.040 A 
HETATM   27  C   UNL     1     -46.594 -51.583  13.047  1.00  0.00     0.050 C 
ENDBRANCH  19  20
ENDBRANCH  18  19
ENDBRANCH   4  18
TORSDOF 5
ENDMDL
MODEL 3
REMARK VINA RESULT:      -6.4      2.399      3.617
REMARK  5 active torsions:
REMARK  status: ('A' for Active; 'I' for Inactive)
REMARK    1  A    between atoms: C_2  and  N_3 
REMARK    2  A    between atoms: C_2  and  C_17 
REMARK       I    between atoms: N_3  and  C_4 
REMARK       I    between atoms: C_4  and  N_6 
REMARK    3  A    between atoms: N_6  and  C_7 
REMARK    4  A    between atoms: C_7  and  C_8 
REMARK    5  A    between atoms: C_8  and  C_9 
REMARK       I    between atoms: C_17  and  N_19 
ROOT
HETATM    1  N   UNL     1     -42.212 -51.071  12.206  1.00  0.00    -0.330 N 
HETATM    2  C   UNL     1     -42.374 -49.724  12.085  1.00  0.00     0.316 C 
HETATM    3  O   UNL     1     -42.808 -49.016  12.988  1.00  0.00    -0.247 OA
HETATM    4  N   UNL     1     -41.971 -49.237  10.876  1.00  0.00    -0.343 N 
HETATM    5  H   UNL     1     -41.778 -51.623  11.479  1.00  0.00     0.165 HD
HETATM    6  H   UNL     1     -42.108 -49.868  10.101  1.00  0.00     0.164 HD
ENDROOT
BRANCH   1   7
HETATM    7  C   UNL     1     -42.494 -51.706  13.483  1.00  0.00     0.174 C 
HETATM    8  C   UNL     1     -41.208 -52.186  14.147  1.00  0.00     0.042 C 
BRANCH   7   9
HETATM    9  C   UNL     1     -43.472 -52.887  13.338  1.00  0.00     0.242 C 
HETATM   10  O   UNL     1     -43.018 -53.995  13.035  1.00  0.00    -0.271 OA
HETATM   11  N   UNL     1     -44.812 -52.653  13.665  1.00  0.00    -0.346 N 
HETATM   12  C   UNL     1     -45.397 -51.308  13.799  1.00  0.00     0.126 C 
HETATM   13  C   UNL     1     -45.808 -53.733  13.866  1.00  0.00     0.083 C 
HETATM   14  C   UNL     1     -45.970 -51.108  15.195  1.00  0.00     0.020 C 
HETATM   15  C   UNL     1     -47.013 -52.176  15.486  1.00  0.00     0.004 C 
HETATM   16  C   UNL     1     -46.428 -53.574  15.273  1.00  0.00     0.025 C 
HETATM   17  C   UNL     1     -45.347 -55.181  13.693  1.00  0.00     0.032 C 
ENDBRANCH   7   9
ENDBRANCH   1   7
BRANCH   4  18
HETATM   18  C   UNL     1     -42.115 -47.814  10.606  1.00  0.00     0.129 C 
BRANCH  18  19
HETATM   19  C   UNL     1     -40.819 -47.030  10.860  1.00  0.00     0.059 C 
BRANCH  19  20
HETATM   20  C   UNL     1     -41.077 -45.598  11.264  1.00  0.00    -0.048 A 
HETATM   21  C   UNL     1     -42.119 -45.335  12.161  1.00  0.00     0.024 A 
HETATM   22  C   UNL     1     -42.380 -44.023  12.521  1.00  0.00     0.088 A 
HETATM   23  N   UNL     1     -41.683 -42.968  12.057  1.00  0.00    -0.375 N 
HETATM   24  C   UNL     1     -40.678 -43.240  11.195  1.00  0.00     0.094 A 
ATOM     25  HN  UNL     1     -41.902 -42.013  12.341  1.00  0.00     0.164 HD
HETATM   26  C   UNL     1     -40.319 -44.520  10.773  1.00  0.00    -0.040 A 
HETATM   27  C   UNL     1     -39.206 -44.680   9.778  1.00  0.00     0.050 C 
ENDBRANCH  19  20
ENDBRANCH  18  19
ENDBRANCH   4  18
TORSDOF 5
ENDMDL
MODEL 4
REMARK VINA RESULT:      -6.2      3.497      7.633
REMARK  5 active torsions:
REMARK  status: ('A' for Active; 'I' for Inactive)
REMARK    1  A    between atoms: C_2  and  N_3 
REMARK    2  A    between atoms: C_2  and  C_17 
REMARK       I    between atoms: N_3  and  C_4 
REMARK       I    between atoms: C_4  and  N_6 
REMARK    3  A    between atoms: N_6  and  C_7 
REMARK    4  A    between atoms: C_7  and  C_8 
REMARK    5  A    between atoms: C_8  and  C_9 
REMARK       I    between atoms: C_17  and  N_19 
ROOT
HETATM    1  N   UNL     1     -38.976 -51.126  12.817  1.00  0.00    -0.330 N 
HETATM    2  C   UNL     1     -40.121 -51.849  12.669  1.00  0.00     0.316 C 
HETATM    3  O   UNL     1     -41.046 -51.499  11.942  1.00  0.00    -0.247 OA
HETATM    4  N   UNL     1     -40.122 -53.013  13.378  1.00  0.00    -0.343 N 
HETATM    5  H   UNL     1     -38.195 -51.472  13.357  1.00  0.00     0.165 HD
HETATM    6  H   UNL     1     -39.618 -52.975  14.252  1.00  0.00     0.164 HD
ENDROOT
BRANCH   1   7
HETATM    7  C   UNL     1     -38.794 -49.919  12.027  1.00  0.00     0.174 C 
HETATM    8  C   UNL     1     -37.488 -49.976  11.240  1.00  0.00     0.042 C 
BRANCH   7   9
HETATM    9  C   UNL     1     -38.815 -48.649  12.899  1.00  0.00     0.242 C 
HETATM   10  O   UNL     1     -37.886 -48.461  13.690  1.00  0.00    -0.271 OA
HETATM   11  N   UNL     1     -39.841 -47.727  12.663  1.00  0.00    -0.346 N 
HETATM   12  C   UNL     1     -41.062 -48.042  11.901  1.00  0.00     0.126 C 
HETATM   13  C   UNL     1     -39.838 -46.343  13.193  1.00  0.00     0.083 C 
HETATM   14  C   UNL     1     -41.196 -47.122  10.697  1.00  0.00     0.020 C 
HETATM   15  C   UNL     1     -41.208 -45.670  11.151  1.00  0.00     0.004 C 
HETATM   16  C   UNL     1     -39.978 -45.362  12.007  1.00  0.00     0.025 C 
HETATM   17  C   UNL     1     -38.655 -45.904  14.057  1.00  0.00     0.032 C 
ENDBRANCH   7   9
ENDBRANCH   1   7
BRANCH   4  18
HETATM   18  C   UNL     1     -41.299 -53.868  13.330  1.00  0.00     0.129 C 
BRANCH  18  19
HETATM   19  C   UNL     1     -42.168 -53.747  14.590  1.00  0.00     0.059 C 
BRANCH  19  20
HETATM   20  C   UNL     1     -43.646 -53.775  14.281  1.00  0.00    -0.048 A 
HETATM   21  C   UNL     1     -44.284 -55.017  14.182  1.00  0.00     0.024 A 
HETATM   22  C   UNL     1     -45.634 -55.056  13.875  1.00  0.00     0.088 A 
HETATM   23  N   UNL     1     -46.385 -53.958  13.666  1.00  0.00    -0.375 N 
HETATM   24  C   UNL     1     -45.754 -52.767  13.770  1.00  0.00     0.094 A 
ATOM     25  HN  UNL     1     -47.377 -54.022  13.441  1.00  0.00     0.164 HD
HETATM   26  C   UNL     1     -44.405 -52.608  14.084  1.00  0.00    -0.040 A 
HETATM   27  C   UNL     1     -43.819 -51.226  14.127  1.00  0.00     0.050 C 
ENDBRANCH  19  20
ENDBRANCH  18  19
ENDBRANCH   4  18
TORSDOF 5
ENDMDL
MODEL 5
REMARK VINA RESULT:      -6.2      2.931      7.983
REMARK  5 active torsions:
REMARK  status: ('A' for Active; 'I' for Inactive)
REMARK    1  A    between atoms: C_2  and  N_3 
REMARK    2  A    between atoms: C_2  and  C_17 
REMARK       I    between atoms: N_3  and  C_4 
REMARK       I    between atoms: C_4  and  N_6 
REMARK    3  A    between atoms: N_6  and  C_7 
REMARK    4  A    between atoms: C_7  and  C_8 
REMARK    5  A    between atoms: C_8  and  C_9 
REMARK       I    between atoms: C_17  and  N_19 
ROOT
HETATM    1  N   UNL     1     -41.443 -48.616  10.474  1.00  0.00    -0.330 N 
HETATM    2  C   UNL     1     -41.386 -49.548  11.467  1.00  0.00     0.316 C 
HETATM    3  O   UNL     1     -42.050 -49.473  12.495  1.00  0.00    -0.247 OA
HETATM    4  N   UNL     1     -40.548 -50.587  11.187  1.00  0.00    -0.343 N 
HETATM    5  H   UNL     1     -40.948 -48.738   9.601  1.00  0.00     0.165 HD
HETATM    6  H   UNL     1     -39.741 -50.340  10.633  1.00  0.00     0.164 HD
ENDROOT
BRANCH   1   7
HETATM    7  C   UNL     1     -42.384 -47.514  10.590  1.00  0.00     0.174 C 
HETATM    8  C   UNL     1     -43.284 -47.436   9.362  1.00  0.00     0.042 C 
BRANCH   7   9
HETATM    9  C   UNL     1     -41.670 -46.164  10.794  1.00  0.00     0.242 C 
HETATM   10  O   UNL     1     -41.196 -45.593   9.807  1.00  0.00    -0.271 OA
HETATM   11  N   UNL     1     -41.697 -45.613  12.080  1.00  0.00    -0.346 N 
HETATM   12  C   UNL     1     -42.048 -46.379  13.289  1.00  0.00     0.126 C 
HETATM   13  C   UNL     1     -41.328 -44.209  12.379  1.00  0.00     0.083 C 
HETATM   14  C   UNL     1     -43.250 -45.759  13.987  1.00  0.00     0.020 C 
HETATM   15  C   UNL     1     -42.956 -44.308  14.338  1.00  0.00     0.004 C 
HETATM   16  C   UNL     1     -42.516 -43.530  13.096  1.00  0.00     0.025 C 
HETATM   17  C   UNL     1     -40.880 -43.319  11.219  1.00  0.00     0.032 C 
ENDBRANCH   7   9
ENDBRANCH   1   7
BRANCH   4  18
HETATM   18  C   UNL     1     -40.374 -51.639  12.177  1.00  0.00     0.129 C 
BRANCH  18  19
HETATM   19  C   UNL     1     -41.248 -52.869  11.892  1.00  0.00     0.059 C 
BRANCH  19  20
HETATM   20  C   UNL     1     -41.644 -53.604  13.150  1.00  0.00    -0.048 A 
HETATM   21  C   UNL     1     -40.642 -53.955  14.062  1.00  0.00     0.024 A 
HETATM   22  C   UNL     1     -40.991 -54.650  15.208  1.00  0.00     0.088 A 
HETATM   23  N   UNL     1     -42.252 -55.015  15.507  1.00  0.00    -0.375 N 
HETATM   24  C   UNL     1     -43.208 -54.664  14.618  1.00  0.00     0.094 A 
ATOM     25  HN  UNL     1     -42.475 -55.527  16.359  1.00  0.00     0.164 HD
HETATM   26  C   UNL     1     -42.975 -53.955  13.439  1.00  0.00    -0.040 A 
HETATM   27  C   UNL     1     -44.124 -53.666  12.517  1.00  0.00     0.050 C 
ENDBRANCH  19  20
ENDBRANCH  18  19
ENDBRANCH   4  18
TORSDOF 5
ENDMDL
MODEL 6
REMARK VINA RESULT:      -6.1      2.433      7.468
REMARK  5 active torsions:
REMARK  status: ('A' for Active; 'I' for Inactive)
REMARK    1  A    between atoms: C_2  and  N_3 
REMARK    2  A    between atoms: C_2  and  C_17 
REMARK       I    between atoms: N_3  and  C_4 
REMARK       I    between atoms: C_4  and  N_6 
REMARK    3  A    between atoms: N_6  and  C_7 
REMARK    4  A    between atoms: C_7  and  C_8 
REMARK    5  A    between atoms: C_8  and  C_9 
REMARK       I    between atoms: C_17  and  N_19 
ROOT
HETATM    1  N   UNL     1     -42.509 -48.895  11.196  1.00  0.00    -0.330 N 
HETATM    2  C   UNL     1     -42.654 -49.796  12.207  1.00  0.00     0.316 C 
HETATM    3  O   UNL     1     -43.316 -49.572  13.215  1.00  0.00    -0.247 OA
HETATM    4  N   UNL     1     -42.025 -50.982  11.970  1.00  0.00    -0.343 N 
HETATM    5  H   UNL     1     -42.026 -49.129  10.339  1.00  0.00     0.165 HD
HETATM    6  H   UNL     1     -41.173 -50.907  11.434  1.00  0.00     0.164 HD
ENDROOT
BRANCH   1   7
HETATM    7  C   UNL     1     -43.224 -47.631  11.266  1.00  0.00     0.174 C 
HETATM    8  C   UNL     1     -44.238 -47.517  10.133  1.00  0.00     0.042 C 
BRANCH   7   9
HETATM    9  C   UNL     1     -42.268 -46.423  11.226  1.00  0.00     0.242 C 
HETATM   10  O   UNL     1     -41.818 -46.062  10.134  1.00  0.00    -0.271 OA
HETATM   11  N   UNL     1     -42.050 -45.738  12.427  1.00  0.00    -0.346 N 
HETATM   12  C   UNL     1     -42.388 -46.288  13.752  1.00  0.00     0.126 C 
HETATM   13  C   UNL     1     -41.411 -44.404  12.506  1.00  0.00     0.083 C 
HETATM   14  C   UNL     1     -43.375 -45.382  14.473  1.00  0.00     0.020 C 
HETATM   15  C   UNL     1     -42.795 -43.982  14.605  1.00  0.00     0.004 C 
HETATM   16  C   UNL     1     -42.373 -43.441  13.238  1.00  0.00     0.025 C 
HETATM   17  C   UNL     1     -40.952 -43.746  11.205  1.00  0.00     0.032 C 
ENDBRANCH   7   9
ENDBRANCH   1   7
BRANCH   4  18
HETATM   18  C   UNL     1     -42.079 -52.025  12.984  1.00  0.00     0.129 C 
BRANCH  18  19
HETATM   19  C   UNL     1     -42.830 -53.276  12.506  1.00  0.00     0.059 C 
BRANCH  19  20
HETATM   20  C   UNL     1     -44.201 -53.401  13.124  1.00  0.00    -0.048 A 
HETATM   21  C   UNL     1     -45.232 -52.591  12.633  1.00  0.00     0.024 A 
HETATM   22  C   UNL     1     -46.488 -52.680  13.208  1.00  0.00     0.088 A 
HETATM   23  N   UNL     1     -46.788 -53.511  14.224  1.00  0.00    -0.375 N 
HETATM   24  C   UNL     1     -45.783 -54.290  14.684  1.00  0.00     0.094 A 
ATOM     25  HN  UNL     1     -47.725 -53.552  14.626  1.00  0.00     0.164 HD
HETATM   26  C   UNL     1     -44.484 -54.292  14.175  1.00  0.00    -0.040 A 
HETATM   27  C   UNL     1     -43.450 -55.178  14.807  1.00  0.00     0.050 C 
ENDBRANCH  19  20
ENDBRANCH  18  19
ENDBRANCH   4  18
TORSDOF 5
ENDMDL
MODEL 7
REMARK VINA RESULT:      -6.1      3.505      4.597
REMARK  5 active torsions:
REMARK  status: ('A' for Active; 'I' for Inactive)
REMARK    1  A    between atoms: C_2  and  N_3 
REMARK    2  A    between atoms: C_2  and  C_17 
REMARK       I    between atoms: N_3  and  C_4 
REMARK       I    between atoms: C_4  and  N_6 
REMARK    3  A    between atoms: N_6  and  C_7 
REMARK    4  A    between atoms: C_7  and  C_8 
REMARK    5  A    between atoms: C_8  and  C_9 
REMARK       I    between atoms: C_17  and  N_19 
ROOT
HETATM    1  N   UNL     1     -39.594 -48.976  11.374  1.00  0.00    -0.330 N 
HETATM    2  C   UNL     1     -39.666 -47.641  11.634  1.00  0.00     0.316 C 
HETATM    3  O   UNL     1     -39.341 -47.149  12.710  1.00  0.00    -0.247 OA
HETATM    4  N   UNL     1     -40.097 -46.905  10.571  1.00  0.00    -0.343 N 
HETATM    5  H   UNL     1     -39.789 -49.351  10.455  1.00  0.00     0.165 HD
HETATM    6  H   UNL     1     -40.764 -47.375   9.976  1.00  0.00     0.164 HD
ENDROOT
BRANCH   1   7
HETATM    7  C   UNL     1     -39.040 -49.865  12.382  1.00  0.00     0.174 C 
HETATM    8  C   UNL     1     -37.663 -50.370  11.964  1.00  0.00     0.042 C 
BRANCH   7   9
HETATM    9  C   UNL     1     -39.965 -51.064  12.666  1.00  0.00     0.242 C 
HETATM   10  O   UNL     1     -40.546 -51.599  11.717  1.00  0.00    -0.271 OA
HETATM   11  N   UNL     1     -40.005 -51.545  13.980  1.00  0.00    -0.346 N 
HETATM   12  C   UNL     1     -39.508 -50.787  15.142  1.00  0.00     0.126 C 
HETATM   13  C   UNL     1     -40.598 -52.850  14.358  1.00  0.00     0.083 C 
HETATM   14  C   UNL     1     -38.413 -51.562  15.860  1.00  0.00     0.020 C 
HETATM   15  C   UNL     1     -38.938 -52.923  16.293  1.00  0.00     0.004 C 
HETATM   16  C   UNL     1     -39.525 -53.679  15.100  1.00  0.00     0.025 C 
HETATM   17  C   UNL     1     -41.210 -53.711  13.253  1.00  0.00     0.032 C 
ENDBRANCH   7   9
ENDBRANCH   1   7
BRANCH   4  18
HETATM   18  C   UNL     1     -40.246 -45.465  10.723  1.00  0.00     0.129 C 
BRANCH  18  19
HETATM   19  C   UNL     1     -41.697 -45.048  11.005  1.00  0.00     0.059 C 
BRANCH  19  20
HETATM   20  C   UNL     1     -42.701 -46.034  10.460  1.00  0.00    -0.048 A 
HETATM   21  C   UNL     1     -43.044 -45.957   9.105  1.00  0.00     0.024 A 
HETATM   22  C   UNL     1     -43.983 -46.840   8.598  1.00  0.00     0.088 A 
HETATM   23  N   UNL     1     -44.594 -47.786   9.337  1.00  0.00    -0.375 N 
HETATM   24  C   UNL     1     -44.248 -47.850  10.642  1.00  0.00     0.094 A 
ATOM     25  HN  UNL     1     -45.282 -48.422   8.933  1.00  0.00     0.164 HD
HETATM   26  C   UNL     1     -43.309 -47.021  11.256  1.00  0.00    -0.040 A 
HETATM   27  C   UNL     1     -43.048 -47.171  12.727  1.00  0.00     0.050 C 
ENDBRANCH  19  20
ENDBRANCH  18  19
ENDBRANCH   4  18
TORSDOF 5
ENDMDL
MODEL 8
REMARK VINA RESULT:      -6.1      2.964      7.111
REMARK  5 active torsions:
REMARK  status: ('A' for Active; 'I' for Inactive)
REMARK    1  A    between atoms: C_2  and  N_3 
REMARK    2  A    between atoms: C_2  and  C_17 
REMARK       I    between atoms: N_3  and  C_4 
REMARK       I    between atoms: C_4  and  N_6 
REMARK    3  A    between atoms: N_6  and  C_7 
REMARK    4  A    between atoms: C_7  and  C_8 
REMARK    5  A    between atoms: C_8  and  C_9 
REMARK       I    between atoms: C_17  and  N_19 
ROOT
HETATM    1  N   UNL     1     -42.096 -50.852  11.753  1.00  0.00    -0.330 N 
HETATM    2  C   UNL     1     -42.553 -51.725  12.693  1.00  0.00     0.316 C 
HETATM    3  O   UNL     1     -42.627 -51.448  13.886  1.00  0.00    -0.247 OA
HETATM    4  N   UNL     1     -42.955 -52.920  12.173  1.00  0.00    -0.343 N 
HETATM    5  H   UNL     1     -42.119 -51.072  10.767  1.00  0.00     0.165 HD
HETATM    6  H   UNL     1     -42.433 -53.223  11.364  1.00  0.00     0.164 HD
ENDROOT
BRANCH   1   7
HETATM    7  C   UNL     1     -41.743 -49.500  12.155  1.00  0.00     0.174 C 
HETATM    8  C   UNL     1     -41.827 -48.542  10.971  1.00  0.00     0.042 C 
BRANCH   7   9
HETATM    9  C   UNL     1     -40.335 -49.431  12.776  1.00  0.00     0.242 C 
HETATM   10  O   UNL     1     -39.437 -50.119  12.281  1.00  0.00    -0.271 OA
HETATM   11  N   UNL     1     -40.133 -48.502  13.804  1.00  0.00    -0.346 N 
HETATM   12  C   UNL     1     -41.230 -47.855  14.545  1.00  0.00     0.126 C 
HETATM   13  C   UNL     1     -38.794 -48.102  14.297  1.00  0.00     0.083 C 
HETATM   14  C   UNL     1     -41.155 -46.342  14.401  1.00  0.00     0.020 C 
HETATM   15  C   UNL     1     -39.806 -45.839  14.893  1.00  0.00     0.004 C 
HETATM   16  C   UNL     1     -38.666 -46.567  14.178  1.00  0.00     0.025 C 
HETATM   17  C   UNL     1     -37.566 -48.750  13.655  1.00  0.00     0.032 C 
ENDBRANCH   7   9
ENDBRANCH   1   7
BRANCH   4  18
HETATM   18  C   UNL     1     -43.441 -53.954  13.074  1.00  0.00     0.129 C 
BRANCH  18  19
HETATM   19  C   UNL     1     -44.971 -54.084  13.055  1.00  0.00     0.059 C 
BRANCH  19  20
HETATM   20  C   UNL     1     -45.636 -53.271  14.139  1.00  0.00    -0.048 A 
HETATM   21  C   UNL     1     -45.535 -53.714  15.463  1.00  0.00     0.024 A 
HETATM   22  C   UNL     1     -46.162 -52.989  16.463  1.00  0.00     0.088 A 
HETATM   23  N   UNL     1     -46.872 -51.866  16.240  1.00  0.00    -0.375 N 
HETATM   24  C   UNL     1     -46.956 -51.451  14.957  1.00  0.00     0.094 A 
ATOM     25  HN  UNL     1     -47.322 -51.356  17.000  1.00  0.00     0.164 HD
HETATM   26  C   UNL     1     -46.357 -52.093  13.873  1.00  0.00    -0.040 A 
HETATM   27  C   UNL     1     -46.565 -51.547  12.490  1.00  0.00     0.050 C 
ENDBRANCH  19  20
ENDBRANCH  18  19
ENDBRANCH   4  18
TORSDOF 5
ENDMDL
MODEL 9
REMARK VINA RESULT:      -6.1      3.135      7.463
REMARK  5 active torsions:
REMARK  status: ('A' for Active; 'I' for Inactive)
REMARK    1  A    between atoms: C_2  and  N_3 
REMARK    2  A    between atoms: C_2  and  C_17 
REMARK       I    between atoms: N_3  and  C_4 
REMARK       I    between atoms: C_4  and  N_6 
REMARK    3  A    between atoms: N_6  and  C_7 
REMARK    4  A    between atoms: C_7  and  C_8 
REMARK    5  A    between atoms: C_8  and  C_9 
REMARK       I    between atoms: C_17  and  N_19 
ROOT
HETATM    1  N   UNL     1     -42.394 -50.492  12.093  1.00  0.00    -0.330 N 
HETATM    2  C   UNL     1     -42.645 -51.609  12.830  1.00  0.00     0.316 C 
HETATM    3  O   UNL     1     -42.427 -51.681  14.035  1.00  0.00    -0.247 OA
HETATM    4  N   UNL     1     -43.197 -52.624  12.105  1.00  0.00    -0.343 N 
HETATM    5  H   UNL     1     -42.656 -50.427  11.119  1.00  0.00     0.165 HD
HETATM    6  H   UNL     1     -42.891 -52.669  11.144  1.00  0.00     0.164 HD
ENDROOT
BRANCH   1   7
HETATM    7  C   UNL     1     -41.912 -49.295  12.764  1.00  0.00     0.174 C 
HETATM    8  C   UNL     1     -42.988 -48.713  13.675  1.00  0.00     0.042 C 
BRANCH   7   9
HETATM    9  C   UNL     1     -41.447 -48.220  11.763  1.00  0.00     0.242 C 
HETATM   10  O   UNL     1     -42.123 -48.025  10.749  1.00  0.00    -0.271 OA
HETATM   11  N   UNL     1     -40.334 -47.450  12.122  1.00  0.00    -0.346 N 
HETATM   12  C   UNL     1     -39.398 -47.820  13.198  1.00  0.00     0.126 C 
HETATM   13  C   UNL     1     -39.944 -46.199  11.428  1.00  0.00     0.083 C 
HETATM   14  C   UNL     1     -39.350 -46.736  14.264  1.00  0.00     0.020 C 
HETATM   15  C   UNL     1     -38.948 -45.409  13.638  1.00  0.00     0.004 C 
HETATM   16  C   UNL     1     -39.874 -45.061  12.471  1.00  0.00     0.025 C 
HETATM   17  C   UNL     1     -40.797 -45.734  10.248  1.00  0.00     0.032 C 
ENDBRANCH   7   9
ENDBRANCH   1   7
BRANCH   4  18
HETATM   18  C   UNL     1     -43.491 -53.886  12.767  1.00  0.00     0.129 C 
BRANCH  18  19
HETATM   19  C   UNL     1     -44.998 -54.133  12.927  1.00  0.00     0.059 C 
BRANCH  19  20
HETATM   20  C   UNL     1     -45.603 -53.323  14.047  1.00  0.00    -0.048 A 
HETATM   21  C   UNL     1     -45.434 -53.771  15.362  1.00  0.00     0.024 A 
HETATM   22  C   UNL     1     -46.006 -53.050  16.397  1.00  0.00     0.088 A 
HETATM   23  N   UNL     1     -46.723 -51.924  16.216  1.00  0.00    -0.375 N 
HETATM   24  C   UNL     1     -46.873 -51.502  14.941  1.00  0.00     0.094 A 
ATOM     25  HN  UNL     1     -47.132 -51.416  17.000  1.00  0.00     0.164 HD
HETATM   26  C   UNL     1     -46.334 -52.142  13.824  1.00  0.00    -0.040 A 
HETATM   27  C   UNL     1     -46.612 -51.589  12.456  1.00  0.00     0.050 C 
ENDBRANCH  19  20
ENDBRANCH  18  19
ENDBRANCH   4  18
TORSDOF 5
ENDMDL
