MODEL 1
REMARK VINA RESULT:      -6.0      0.000      0.000
REMARK  5 active torsions:
REMARK  status: ('A' for Active; 'I' for Inactive)
REMARK    1  A    between atoms: C_2  and  N_3 
REMARK    2  A    between atoms: C_2  and  C_18 
REMARK       I    between atoms: N_3  and  C_4 
REMARK    3  A    between atoms: C_4  and  C_6 
REMARK    4  A    between atoms: C_6  and  N_7 
REMARK    5  A    between atoms: C_9  and  C_14 
ROOT
HETATM    1  N   UNL     1     -43.146 -47.622  10.564  1.00  0.00    -0.315 N 
HETATM    2  C   UNL     1     -44.364 -48.165  10.180  1.00  0.00     0.110 A 
HETATM    3  C   UNL     1     -45.201 -47.514   9.348  1.00  0.00     0.063 A 
HETATM    4  C   UNL     1     -44.801 -46.209   8.848  1.00  0.00     0.023 A 
HETATM    5  C   UNL     1     -43.621 -45.672   9.180  1.00  0.00     0.075 A 
HETATM    6  C   UNL     1     -42.691 -46.399  10.084  1.00  0.00     0.247 A 
HETATM    7  O   UNL     1     -41.606 -45.902  10.370  1.00  0.00    -0.268 OA
ENDROOT
BRANCH   1   8
HETATM    8  C   UNL     1     -42.272 -48.354  11.482  1.00  0.00     0.234 C 
BRANCH   8   9
HETATM    9  C   UNL     1     -42.981 -48.708  12.793  1.00  0.00     0.236 C 
HETATM   10  N   UNL     1     -43.399 -50.021  12.901  1.00  0.00    -0.355 N 
HETATM   11  H   UNL     1     -43.381 -50.620  12.085  1.00  0.00     0.162 HD
HETATM   12  O   UNL     1     -43.146 -47.876  13.685  1.00  0.00    -0.272 OA
BRANCH  10  13
HETATM   13  C   UNL     1     -44.059 -50.509  14.101  1.00  0.00     0.084 C 
HETATM   14  C   UNL     1     -43.035 -51.024  15.113  1.00  0.00     0.032 C 
BRANCH  13  15
HETATM   15  C   UNL     1     -45.038 -51.598  13.737  1.00  0.00     0.008 A 
HETATM   16  C   UNL     1     -46.147 -51.358  12.742  1.00  0.00     0.007 A 
HETATM   17  C   UNL     1     -46.471 -51.484  14.202  1.00  0.00     0.007 A 
ENDBRANCH  13  15
ENDBRANCH  10  13
ENDBRANCH   8   9
ENDBRANCH   1   8
BRANCH   3  18
HETATM   18  C   UNL     1     -46.527 -48.090   8.936  1.00  0.00     0.418 C 
HETATM   19  F   UNL     1     -46.525 -48.568   7.663  1.00  0.00    -0.166 F 
HETATM   20  F   UNL     1     -46.902 -49.119   9.737  1.00  0.00    -0.166 F 
HETATM   21  F   UNL     1     -47.516 -47.162   8.999  1.00  0.00    -0.166 F 
ENDBRANCH   3  18
TORSDOF 5
ENDMDL
MODEL 2
REMARK VINA RESULT:      -6.0      2.556      3.687
REMARK  5 active torsions:
REMARK  status: ('A' for Active; 'I' for Inactive)
REMARK    1  A    between atoms: C_2  and  N_3 
REMARK    2  A    between atoms: C_2  and  C_18 
REMARK       I    between atoms: N_3  and  C_4 
REMARK    3  A    between atoms: C_4  and  C_6 
REMARK    4  A    between atoms: C_6  and  N_7 
REMARK    5  A    between atoms: C_9  and  C_14 
ROOT
HETATM    1  N   UNL     1     -43.348 -47.062  10.735  1.00  0.00    -0.315 N 
HETATM    2  C   UNL     1     -44.452 -47.818  10.364  1.00  0.00     0.110 A 
HETATM    3  C   UNL     1     -45.303 -47.408   9.403  1.00  0.00     0.063 A 
HETATM    4  C   UNL     1     -45.043 -46.138   8.746  1.00  0.00     0.023 A 
HETATM    5  C   UNL     1     -43.972 -45.400   9.063  1.00  0.00     0.075 A 
HETATM    6  C   UNL     1     -43.024 -45.862  10.112  1.00  0.00     0.247 A 
HETATM    7  O   UNL     1     -42.038 -45.183  10.384  1.00  0.00    -0.268 OA
ENDROOT
BRANCH   1   8
HETATM    8  C   UNL     1     -42.457 -47.535  11.795  1.00  0.00     0.234 C 
BRANCH   8   9
HETATM    9  C   UNL     1     -41.519 -48.644  11.308  1.00  0.00     0.236 C 
HETATM   10  N   UNL     1     -41.068 -49.507  12.288  1.00  0.00    -0.355 N 
HETATM   11  H   UNL     1     -41.222 -49.280  13.263  1.00  0.00     0.162 HD
HETATM   12  O   UNL     1     -41.212 -48.756  10.121  1.00  0.00    -0.272 OA
BRANCH  10  13
HETATM   13  C   UNL     1     -40.196 -50.626  11.968  1.00  0.00     0.084 C 
HETATM   14  C   UNL     1     -40.880 -51.956  12.289  1.00  0.00     0.032 C 
BRANCH  13  15
HETATM   15  C   UNL     1     -38.902 -50.498  12.734  1.00  0.00     0.008 A 
HETATM   16  C   UNL     1     -38.067 -49.243  12.662  1.00  0.00     0.007 A 
HETATM   17  C   UNL     1     -37.596 -50.490  11.973  1.00  0.00     0.007 A 
ENDBRANCH  13  15
ENDBRANCH  10  13
ENDBRANCH   8   9
ENDBRANCH   1   8
BRANCH   3  18
HETATM   18  C   UNL     1     -46.507 -48.215   9.004  1.00  0.00     0.418 C 
HETATM   19  F   UNL     1     -46.713 -49.292   9.806  1.00  0.00    -0.166 F 
HETATM   20  F   UNL     1     -47.646 -47.477   9.044  1.00  0.00    -0.166 F 
HETATM   21  F   UNL     1     -46.393 -48.691   7.738  1.00  0.00    -0.166 F 
ENDBRANCH   3  18
TORSDOF 5
ENDMDL
MODEL 3
REMARK VINA RESULT:      -5.9      6.086      7.451
REMARK  5 active torsions:
REMARK  status: ('A' for Active; 'I' for Inactive)
REMARK    1  A    between atoms: C_2  and  N_3 
REMARK    2  A    between atoms: C_2  and  C_18 
REMARK       I    between atoms: N_3  and  C_4 
REMARK    3  A    between atoms: C_4  and  C_6 
REMARK    4  A    between atoms: C_6  and  N_7 
REMARK    5  A    between atoms: C_9  and  C_14 
ROOT
HETATM    1  N   UNL     1     -45.623 -53.688  14.286  1.00  0.00    -0.315 N 
HETATM    2  C   UNL     1     -46.119 -53.264  15.511  1.00  0.00     0.110 A 
HETATM    3  C   UNL     1     -46.733 -52.073  15.656  1.00  0.00     0.063 A 
HETATM    4  C   UNL     1     -46.873 -51.222  14.486  1.00  0.00     0.023 A 
HETATM    5  C   UNL     1     -46.429 -51.614  13.286  1.00  0.00     0.075 A 
HETATM    6  C   UNL     1     -45.766 -52.936  13.125  1.00  0.00     0.247 A 
HETATM    7  O   UNL     1     -45.375 -53.291  12.016  1.00  0.00    -0.268 OA
ENDROOT
BRANCH   1   8
HETATM    8  C   UNL     1     -44.948 -54.981  14.174  1.00  0.00     0.234 C 
BRANCH   8   9
HETATM    9  C   UNL     1     -43.587 -54.983  14.877  1.00  0.00     0.236 C 
HETATM   10  N   UNL     1     -42.857 -53.817  14.750  1.00  0.00    -0.355 N 
HETATM   11  H   UNL     1     -43.153 -53.111  14.088  1.00  0.00     0.162 HD
HETATM   12  O   UNL     1     -43.192 -55.957  15.518  1.00  0.00    -0.272 OA
BRANCH  10  13
HETATM   13  C   UNL     1     -41.559 -53.664  15.389  1.00  0.00     0.084 C 
HETATM   14  C   UNL     1     -41.594 -52.539  16.425  1.00  0.00     0.032 C 
BRANCH  13  15
HETATM   15  C   UNL     1     -40.506 -53.388  14.344  1.00  0.00     0.008 A 
HETATM   16  C   UNL     1     -40.538 -54.069  12.997  1.00  0.00     0.007 A 
HETATM   17  C   UNL     1     -39.504 -54.468  14.009  1.00  0.00     0.007 A 
ENDBRANCH  13  15
ENDBRANCH  10  13
ENDBRANCH   8   9
ENDBRANCH   1   8
BRANCH   3  18
HETATM   18  C   UNL     1     -47.263 -51.602  16.982  1.00  0.00     0.418 C 
HETATM   19  F   UNL     1     -46.592 -50.524  17.467  1.00  0.00    -0.166 F 
HETATM   20  F   UNL     1     -48.570 -51.245  16.906  1.00  0.00    -0.166 F 
HETATM   21  F   UNL     1     -47.175 -52.571  17.928  1.00  0.00    -0.166 F 
ENDBRANCH   3  18
TORSDOF 5
ENDMDL
MODEL 4
REMARK VINA RESULT:      -5.7      2.781      5.779
REMARK  5 active torsions:
REMARK  status: ('A' for Active; 'I' for Inactive)
REMARK    1  A    between atoms: C_2  and  N_3 
REMARK    2  A    between atoms: C_2  and  C_18 
REMARK       I    between atoms: N_3  and  C_4 
REMARK    3  A    between atoms: C_4  and  C_6 
REMARK    4  A    between atoms: C_6  and  N_7 
REMARK    5  A    between atoms: C_9  and  C_14 
ROOT
HETATM    1  N   UNL     1     -42.747 -51.217  12.983  1.00  0.00    -0.315 N 
HETATM    2  C   UNL     1     -44.084 -51.009  13.293  1.00  0.00     0.110 A 
HETATM    3  C   UNL     1     -45.006 -51.983  13.153  1.00  0.00     0.063 A 
HETATM    4  C   UNL     1     -44.570 -53.281  12.663  1.00  0.00     0.023 A 
HETATM    5  C   UNL     1     -43.283 -53.519  12.382  1.00  0.00     0.075 A 
HETATM    6  C   UNL     1     -42.265 -52.448  12.554  1.00  0.00     0.247 A 
HETATM    7  O   UNL     1     -41.086 -52.683  12.305  1.00  0.00    -0.268 OA
ENDROOT
BRANCH   1   8
HETATM    8  C   UNL     1     -41.781 -50.129  13.134  1.00  0.00     0.234 C 
BRANCH   8   9
HETATM    9  C   UNL     1     -41.519 -49.403  11.812  1.00  0.00     0.236 C 
HETATM   10  N   UNL     1     -42.344 -48.324  11.557  1.00  0.00    -0.355 N 
HETATM   11  H   UNL     1     -43.160 -48.172  12.137  1.00  0.00     0.162 HD
HETATM   12  O   UNL     1     -40.622 -49.757  11.046  1.00  0.00    -0.272 OA
BRANCH  10  13
HETATM   13  C   UNL     1     -42.193 -47.522  10.354  1.00  0.00     0.084 C 
HETATM   14  C   UNL     1     -41.098 -46.470  10.538  1.00  0.00     0.032 C 
BRANCH  13  15
HETATM   15  C   UNL     1     -43.507 -46.864  10.012  1.00  0.00     0.008 A 
HETATM   16  C   UNL     1     -44.782 -47.664   9.904  1.00  0.00     0.007 A 
HETATM   17  C   UNL     1     -44.131 -47.129   8.662  1.00  0.00     0.007 A 
ENDBRANCH  13  15
ENDBRANCH  10  13
ENDBRANCH   8   9
ENDBRANCH   1   8
BRANCH   3  18
HETATM   18  C   UNL     1     -46.457 -51.763  13.475  1.00  0.00     0.418 C 
HETATM   19  F   UNL     1     -47.106 -52.909  13.811  1.00  0.00    -0.166 F 
HETATM   20  F   UNL     1     -46.620 -50.904  14.514  1.00  0.00    -0.166 F 
HETATM   21  F   UNL     1     -47.129 -51.234  12.420  1.00  0.00    -0.166 F 
ENDBRANCH   3  18
TORSDOF 5
ENDMDL
MODEL 5
REMARK VINA RESULT:      -5.7      4.025      6.913
REMARK  5 active torsions:
REMARK  status: ('A' for Active; 'I' for Inactive)
REMARK    1  A    between atoms: C_2  and  N_3 
REMARK    2  A    between atoms: C_2  and  C_18 
REMARK       I    between atoms: N_3  and  C_4 
REMARK    3  A    between atoms: C_4  and  C_6 
REMARK    4  A    between atoms: C_6  and  N_7 
REMARK    5  A    between atoms: C_9  and  C_14 
ROOT
HETATM    1  N   UNL     1     -41.799 -53.167  12.750  1.00  0.00    -0.315 N 
HETATM    2  C   UNL     1     -43.166 -53.383  12.866  1.00  0.00     0.110 A 
HETATM    3  C   UNL     1     -43.678 -54.205  13.804  1.00  0.00     0.063 A 
HETATM    4  C   UNL     1     -42.761 -54.875  14.711  1.00  0.00     0.023 A 
HETATM    5  C   UNL     1     -41.441 -54.666  14.641  1.00  0.00     0.075 A 
HETATM    6  C   UNL     1     -40.878 -53.746  13.617  1.00  0.00     0.247 A 
HETATM    7  O   UNL     1     -39.667 -53.552  13.571  1.00  0.00    -0.268 OA
ENDROOT
BRANCH   1   8
HETATM    8  C   UNL     1     -41.282 -52.280  11.708  1.00  0.00     0.234 C 
BRANCH   8   9
HETATM    9  C   UNL     1     -41.214 -50.823  12.174  1.00  0.00     0.236 C 
HETATM   10  N   UNL     1     -42.289 -50.036  11.806  1.00  0.00    -0.355 N 
HETATM   11  H   UNL     1     -42.956 -50.386  11.130  1.00  0.00     0.162 HD
HETATM   12  O   UNL     1     -40.270 -50.400  12.842  1.00  0.00    -0.272 OA
BRANCH  10  13
HETATM   13  C   UNL     1     -42.376 -48.640  12.203  1.00  0.00     0.084 C 
HETATM   14  C   UNL     1     -43.014 -48.508  13.587  1.00  0.00     0.032 C 
BRANCH  13  15
HETATM   15  C   UNL     1     -43.170 -47.868  11.179  1.00  0.00     0.008 A 
HETATM   16  C   UNL     1     -42.718 -47.772   9.742  1.00  0.00     0.007 A 
HETATM   17  C   UNL     1     -42.609 -46.573  10.637  1.00  0.00     0.007 A 
ENDBRANCH  13  15
ENDBRANCH  10  13
ENDBRANCH   8   9
ENDBRANCH   1   8
BRANCH   3  18
HETATM   18  C   UNL     1     -45.156 -54.453  13.928  1.00  0.00     0.418 C 
HETATM   19  F   UNL     1     -45.504 -55.736  13.648  1.00  0.00    -0.166 F 
HETATM   20  F   UNL     1     -45.608 -54.193  15.182  1.00  0.00    -0.166 F 
HETATM   21  F   UNL     1     -45.868 -53.665  13.083  1.00  0.00    -0.166 F 
ENDBRANCH   3  18
TORSDOF 5
ENDMDL
MODEL 6
REMARK VINA RESULT:      -5.6      4.024      7.162
REMARK  5 active torsions:
REMARK  status: ('A' for Active; 'I' for Inactive)
REMARK    1  A    between atoms: C_2  and  N_3 
REMARK    2  A    between atoms: C_2  and  C_18 
REMARK       I    between atoms: N_3  and  C_4 
REMARK    3  A    between atoms: C_4  and  C_6 
REMARK    4  A    between atoms: C_6  and  N_7 
REMARK    5  A    between atoms: C_9  and  C_14 
ROOT
HETATM    1  N   UNL     1     -42.040 -53.094  12.926  1.00  0.00    -0.315 N 
HETATM    2  C   UNL     1     -43.402 -53.354  12.991  1.00  0.00     0.110 A 
HETATM    3  C   UNL     1     -43.915 -54.239  13.869  1.00  0.00     0.063 A 
HETATM    4  C   UNL     1     -43.003 -54.930  14.765  1.00  0.00     0.023 A 
HETATM    5  C   UNL     1     -41.688 -54.681  14.744  1.00  0.00     0.075 A 
HETATM    6  C   UNL     1     -41.125 -53.691  13.787  1.00  0.00     0.247 A 
HETATM    7  O   UNL     1     -39.920 -53.461  13.787  1.00  0.00    -0.268 OA
ENDROOT
BRANCH   1   8
HETATM    8  C   UNL     1     -41.520 -52.137  11.948  1.00  0.00     0.234 C 
BRANCH   8   9
HETATM    9  C   UNL     1     -41.696 -50.688  12.410  1.00  0.00     0.236 C 
HETATM   10  N   UNL     1     -41.935 -49.773  11.402  1.00  0.00    -0.355 N 
HETATM   11  H   UNL     1     -41.814 -50.051  10.436  1.00  0.00     0.162 HD
HETATM   12  O   UNL     1     -41.643 -50.377  13.600  1.00  0.00    -0.272 OA
BRANCH  10  13
HETATM   13  C   UNL     1     -42.152 -48.365  11.693  1.00  0.00     0.084 C 
HETATM   14  C   UNL     1     -43.421 -47.858  11.007  1.00  0.00     0.032 C 
BRANCH  13  15
HETATM   15  C   UNL     1     -40.953 -47.563  11.250  1.00  0.00     0.008 A 
HETATM   16  C   UNL     1     -39.570 -47.861  11.774  1.00  0.00     0.007 A 
HETATM   17  C   UNL     1     -40.290 -46.628  12.234  1.00  0.00     0.007 A 
ENDBRANCH  13  15
ENDBRANCH  10  13
ENDBRANCH   8   9
ENDBRANCH   1   8
BRANCH   3  18
HETATM   18  C   UNL     1     -45.387 -54.535  13.938  1.00  0.00     0.418 C 
HETATM   19  F   UNL     1     -46.131 -53.708  13.156  1.00  0.00    -0.166 F 
HETATM   20  F   UNL     1     -45.667 -55.802  13.540  1.00  0.00    -0.166 F 
HETATM   21  F   UNL     1     -45.864 -54.406  15.202  1.00  0.00    -0.166 F 
ENDBRANCH   3  18
TORSDOF 5
ENDMDL
MODEL 7
REMARK VINA RESULT:      -5.6      3.881      4.995
REMARK  5 active torsions:
REMARK  status: ('A' for Active; 'I' for Inactive)
REMARK    1  A    between atoms: C_2  and  N_3 
REMARK    2  A    between atoms: C_2  and  C_18 
REMARK       I    between atoms: N_3  and  C_4 
REMARK    3  A    between atoms: C_4  and  C_6 
REMARK    4  A    between atoms: C_6  and  N_7 
REMARK    5  A    between atoms: C_9  and  C_14 
ROOT
HETATM    1  N   UNL     1     -40.593 -51.349  12.180  1.00  0.00    -0.315 N 
HETATM    2  C   UNL     1     -41.245 -50.290  11.565  1.00  0.00     0.110 A 
HETATM    3  C   UNL     1     -40.705 -49.056  11.514  1.00  0.00     0.063 A 
HETATM    4  C   UNL     1     -39.403 -48.847  12.125  1.00  0.00     0.023 A 
HETATM    5  C   UNL     1     -38.738 -49.855  12.703  1.00  0.00     0.075 A 
HETATM    6  C   UNL     1     -39.327 -51.219  12.743  1.00  0.00     0.247 A 
HETATM    7  O   UNL     1     -38.702 -52.139  13.263  1.00  0.00    -0.268 OA
ENDROOT
BRANCH   1   8
HETATM    8  C   UNL     1     -41.220 -52.671  12.228  1.00  0.00     0.234 C 
BRANCH   8   9
HETATM    9  C   UNL     1     -42.351 -52.734  13.259  1.00  0.00     0.236 C 
HETATM   10  N   UNL     1     -43.522 -53.318  12.814  1.00  0.00    -0.355 N 
HETATM   11  H   UNL     1     -43.641 -53.508  11.826  1.00  0.00     0.162 HD
HETATM   12  O   UNL     1     -42.207 -52.307  14.404  1.00  0.00    -0.272 OA
BRANCH  10  13
HETATM   13  C   UNL     1     -44.671 -53.474  13.691  1.00  0.00     0.084 C 
HETATM   14  C   UNL     1     -45.046 -54.950  13.836  1.00  0.00     0.032 C 
BRANCH  13  15
HETATM   15  C   UNL     1     -45.836 -52.683  13.151  1.00  0.00     0.008 A 
HETATM   16  C   UNL     1     -45.739 -51.193  12.927  1.00  0.00     0.007 A 
HETATM   17  C   UNL     1     -46.560 -51.723  14.066  1.00  0.00     0.007 A 
ENDBRANCH  13  15
ENDBRANCH  10  13
ENDBRANCH   8   9
ENDBRANCH   1   8
BRANCH   3  18
HETATM   18  C   UNL     1     -41.410 -47.901  10.859  1.00  0.00     0.418 C 
HETATM   19  F   UNL     1     -41.979 -48.232   9.671  1.00  0.00    -0.166 F 
HETATM   20  F   UNL     1     -42.402 -47.406  11.642  1.00  0.00    -0.166 F 
HETATM   21  F   UNL     1     -40.559 -46.873  10.608  1.00  0.00    -0.166 F 
ENDBRANCH   3  18
TORSDOF 5
ENDMDL
MODEL 8
REMARK VINA RESULT:      -5.6      5.423      7.650
REMARK  5 active torsions:
REMARK  status: ('A' for Active; 'I' for Inactive)
REMARK    1  A    between atoms: C_2  and  N_3 
REMARK    2  A    between atoms: C_2  and  C_18 
REMARK       I    between atoms: N_3  and  C_4 
REMARK    3  A    between atoms: C_4  and  C_6 
REMARK    4  A    between atoms: C_6  and  N_7 
REMARK    5  A    between atoms: C_9  and  C_14 
ROOT
HETATM    1  N   UNL     1     -41.911 -53.434  12.903  1.00  0.00    -0.315 N 
HETATM    2  C   UNL     1     -43.287 -53.603  12.980  1.00  0.00     0.110 A 
HETATM    3  C   UNL     1     -43.858 -54.341  13.953  1.00  0.00     0.063 A 
HETATM    4  C   UNL     1     -42.996 -54.969  14.940  1.00  0.00     0.023 A 
HETATM    5  C   UNL     1     -41.668 -54.802  14.907  1.00  0.00     0.075 A 
HETATM    6  C   UNL     1     -41.040 -53.973  13.843  1.00  0.00     0.247 A 
HETATM    7  O   UNL     1     -39.823 -53.817  13.832  1.00  0.00    -0.268 OA
ENDROOT
BRANCH   1   8
HETATM    8  C   UNL     1     -41.329 -52.638  11.822  1.00  0.00     0.234 C 
BRANCH   8   9
HETATM    9  C   UNL     1     -40.632 -51.378  12.345  1.00  0.00     0.236 C 
HETATM   10  N   UNL     1     -39.266 -51.334  12.145  1.00  0.00    -0.355 N 
HETATM   11  H   UNL     1     -38.778 -52.167  11.838  1.00  0.00     0.162 HD
HETATM   12  O   UNL     1     -41.261 -50.470  12.889  1.00  0.00    -0.272 OA
BRANCH  10  13
HETATM   13  C   UNL     1     -38.476 -50.187  12.563  1.00  0.00     0.084 C 
HETATM   14  C   UNL     1     -37.616 -49.671  11.408  1.00  0.00     0.032 C 
BRANCH  13  15
HETATM   15  C   UNL     1     -37.610 -50.565  13.739  1.00  0.00     0.008 A 
HETATM   16  C   UNL     1     -38.214 -50.957  15.066  1.00  0.00     0.007 A 
HETATM   17  C   UNL     1     -37.530 -49.628  14.923  1.00  0.00     0.007 A 
ENDBRANCH  13  15
ENDBRANCH  10  13
ENDBRANCH   8   9
ENDBRANCH   1   8
BRANCH   3  18
HETATM   18  C   UNL     1     -45.346 -54.539  14.037  1.00  0.00     0.418 C 
HETATM   19  F   UNL     1     -46.043 -53.653  13.276  1.00  0.00    -0.166 F 
HETATM   20  F   UNL     1     -45.715 -55.779  13.625  1.00  0.00    -0.166 F 
HETATM   21  F   UNL     1     -45.798 -54.397  15.309  1.00  0.00    -0.166 F 
ENDBRANCH   3  18
TORSDOF 5
ENDMDL
MODEL 9
REMARK VINA RESULT:      -5.5      3.431      6.585
REMARK  5 active torsions:
REMARK  status: ('A' for Active; 'I' for Inactive)
REMARK    1  A    between atoms: C_2  and  N_3 
REMARK    2  A    between atoms: C_2  and  C_18 
REMARK       I    between atoms: N_3  and  C_4 
REMARK    3  A    between atoms: C_4  and  C_6 
REMARK    4  A    between atoms: C_6  and  N_7 
REMARK    5  A    between atoms: C_9  and  C_14 
ROOT
HETATM    1  N   UNL     1     -41.268 -51.876  12.365  1.00  0.00    -0.315 N 
HETATM    2  C   UNL     1     -42.631 -52.140  12.360  1.00  0.00     0.110 A 
HETATM    3  C   UNL     1     -43.156 -53.179  13.040  1.00  0.00     0.063 A 
HETATM    4  C   UNL     1     -42.256 -54.036  13.793  1.00  0.00     0.023 A 
HETATM    5  C   UNL     1     -40.941 -53.792  13.838  1.00  0.00     0.075 A 
HETATM    6  C   UNL     1     -40.365 -52.634  13.102  1.00  0.00     0.247 A 
HETATM    7  O   UNL     1     -39.160 -52.412  13.161  1.00  0.00    -0.268 OA
ENDROOT
BRANCH   1   8
HETATM    8  C   UNL     1     -40.736 -50.747  11.601  1.00  0.00     0.234 C 
BRANCH   8   9
HETATM    9  C   UNL     1     -41.486 -49.445  11.898  1.00  0.00     0.236 C 
HETATM   10  N   UNL     1     -42.076 -48.841  10.804  1.00  0.00    -0.355 N 
HETATM   11  H   UNL     1     -41.852 -49.168   9.872  1.00  0.00     0.162 HD
HETATM   12  O   UNL     1     -41.563 -48.990  13.039  1.00  0.00    -0.272 OA
BRANCH  10  13
HETATM   13  C   UNL     1     -42.846 -47.616  10.940  1.00  0.00     0.084 C 
HETATM   14  C   UNL     1     -44.213 -47.757  10.268  1.00  0.00     0.032 C 
BRANCH  13  15
HETATM   15  C   UNL     1     -42.079 -46.463  10.341  1.00  0.00     0.008 A 
HETATM   16  C   UNL     1     -40.670 -46.144  10.780  1.00  0.00     0.007 A 
HETATM   17  C   UNL     1     -41.800 -45.245  11.193  1.00  0.00     0.007 A 
ENDBRANCH  13  15
ENDBRANCH  10  13
ENDBRANCH   8   9
ENDBRANCH   1   8
BRANCH   3  18
HETATM   18  C   UNL     1     -44.629 -53.478  13.031  1.00  0.00     0.418 C 
HETATM   19  F   UNL     1     -45.268 -53.028  14.142  1.00  0.00    -0.166 F 
HETATM   20  F   UNL     1     -45.253 -52.912  11.967  1.00  0.00    -0.166 F 
HETATM   21  F   UNL     1     -44.867 -54.813  12.962  1.00  0.00    -0.166 F 
ENDBRANCH   3  18
TORSDOF 5
ENDMDL
