MODEL 1
REMARK VINA RESULT:      -5.9      0.000      0.000
REMARK  6 active torsions:
REMARK  status: ('A' for Active; 'I' for Inactive)
REMARK    1  A    between atoms: C_2  and  C_3 
REMARK    2  A    between atoms: C_3  and  N_4 
REMARK       I    between atoms: N_4  and  C_5 
REMARK    3  A    between atoms: C_5  and  C_7 
REMARK    4  A    between atoms: C_7  and  N_8 
REMARK    5  A    between atoms: C_10  and  N_11 
REMARK       I    between atoms: N_11  and  C_12 
REMARK    6  A    between atoms: C_12  and  C_14 
ROOT
HETATM    1  N   UNL     1     -42.642 -49.224  12.319  1.00  0.00    -0.293 N 
HETATM    2  C   UNL     1     -43.339 -49.879  13.290  1.00  0.00     0.141 A 
HETATM    3  C   UNL     1     -42.975 -51.200  13.216  1.00  0.00     0.069 A 
HETATM    4  C   UNL     1     -42.002 -51.228  12.189  1.00  0.00     0.138 A 
HETATM    5  N   UNL     1     -41.805 -50.028  11.627  1.00  0.00    -0.307 N 
ATOM      6  HN  UNL     1     -41.176 -49.781  10.863  1.00  0.00     0.186 HD
ENDROOT
BRANCH   1   7
HETATM    7  C   UNL     1     -42.782 -47.826  11.969  1.00  0.00     0.250 C 
BRANCH   7   8
HETATM    8  C   UNL     1     -43.196 -47.667  10.524  1.00  0.00     0.237 C 
HETATM    9  N   UNL     1     -44.443 -47.109  10.335  1.00  0.00    -0.360 N 
HETATM   10  H   UNL     1     -44.956 -46.779  11.150  1.00  0.00     0.162 HD
HETATM   11  O   UNL     1     -42.487 -48.056   9.598  1.00  0.00    -0.272 OA
BRANCH   9  12
HETATM   12  C   UNL     1     -45.008 -46.901   9.019  1.00  0.00     0.122 C 
BRANCH  12  13
HETATM   13  C   UNL     1     -46.507 -47.187   8.979  1.00  0.00     0.015 C 
HETATM   14  C   UNL     1     -46.814 -48.676   8.916  1.00  0.00     0.006 C 
ENDBRANCH  12  13
ENDBRANCH   9  12
ENDBRANCH   7   8
ENDBRANCH   1   7
BRANCH   3  15
HETATM   15  N   UNL     1     -43.464 -52.262  13.960  1.00  0.00    -0.324 N 
HETATM   16  C   UNL     1     -44.300 -53.246  13.452  1.00  0.00     0.229 C 
HETATM   17  O   UNL     1     -44.772 -53.244  12.316  1.00  0.00    -0.272 OA
HETATM   18  H   UNL     1     -43.151 -52.325  14.921  1.00  0.00     0.169 HD
BRANCH  16  19
HETATM   19  C   UNL     1     -44.621 -54.393  14.434  1.00  0.00     0.030 C 
HETATM   20  C   UNL     1     -45.563 -55.406  13.770  1.00  0.00     0.025 C 
HETATM   21  C   UNL     1     -43.307 -55.108  14.807  1.00  0.00     0.025 C 
HETATM   22  C   UNL     1     -45.254 -53.840  15.719  1.00  0.00     0.025 C 
ENDBRANCH  16  19
ENDBRANCH   3  15
TORSDOF 6
ENDMDL
MODEL 2
REMARK VINA RESULT:      -5.4      2.459      3.648
REMARK  6 active torsions:
REMARK  status: ('A' for Active; 'I' for Inactive)
REMARK    1  A    between atoms: C_2  and  C_3 
REMARK    2  A    between atoms: C_3  and  N_4 
REMARK       I    between atoms: N_4  and  C_5 
REMARK    3  A    between atoms: C_5  and  C_7 
REMARK    4  A    between atoms: C_7  and  N_8 
REMARK    5  A    between atoms: C_10  and  N_11 
REMARK       I    between atoms: N_11  and  C_12 
REMARK    6  A    between atoms: C_12  and  C_14 
ROOT
HETATM    1  N   UNL     1     -41.639 -49.527  11.404  1.00  0.00    -0.293 N 
HETATM    2  C   UNL     1     -42.466 -49.994  12.382  1.00  0.00     0.141 A 
HETATM    3  C   UNL     1     -42.023 -51.251  12.708  1.00  0.00     0.069 A 
HETATM    4  C   UNL     1     -40.878 -51.430  11.897  1.00  0.00     0.138 A 
HETATM    5  N   UNL     1     -40.646 -50.388  11.088  1.00  0.00    -0.307 N 
ATOM      6  HN  UNL     1     -39.902 -50.271  10.400  1.00  0.00     0.186 HD
ENDROOT
BRANCH   1   7
HETATM    7  C   UNL     1     -41.789 -48.275  10.692  1.00  0.00     0.250 C 
BRANCH   7   8
HETATM    8  C   UNL     1     -40.650 -47.333  11.008  1.00  0.00     0.237 C 
HETATM    9  N   UNL     1     -40.608 -46.193  10.233  1.00  0.00    -0.360 N 
HETATM   10  H   UNL     1     -41.365 -46.026   9.573  1.00  0.00     0.162 HD
HETATM   11  O   UNL     1     -39.803 -47.598  11.858  1.00  0.00    -0.272 OA
BRANCH   9  12
HETATM   12  C   UNL     1     -39.576 -45.189  10.384  1.00  0.00     0.122 C 
BRANCH  12  13
HETATM   13  C   UNL     1     -39.978 -44.084  11.357  1.00  0.00     0.015 C 
HETATM   14  C   UNL     1     -39.195 -44.140  12.660  1.00  0.00     0.006 C 
ENDBRANCH  12  13
ENDBRANCH   9  12
ENDBRANCH   7   8
ENDBRANCH   1   7
BRANCH   3  15
HETATM   15  N   UNL     1     -42.582 -52.145  13.608  1.00  0.00    -0.324 N 
HETATM   16  C   UNL     1     -43.495 -53.130  13.259  1.00  0.00     0.229 C 
HETATM   17  O   UNL     1     -43.981 -53.266  12.136  1.00  0.00    -0.272 OA
HETATM   18  H   UNL     1     -42.263 -52.084  14.567  1.00  0.00     0.169 HD
BRANCH  16  19
HETATM   19  C   UNL     1     -43.891 -54.083  14.406  1.00  0.00     0.030 C 
HETATM   20  C   UNL     1     -42.673 -54.902  14.853  1.00  0.00     0.025 C 
HETATM   21  C   UNL     1     -44.388 -53.242  15.600  1.00  0.00     0.025 C 
HETATM   22  C   UNL     1     -45.027 -55.016  13.965  1.00  0.00     0.025 C 
ENDBRANCH  16  19
ENDBRANCH   3  15
TORSDOF 6
ENDMDL
MODEL 3
REMARK VINA RESULT:      -5.3      3.727      6.708
REMARK  6 active torsions:
REMARK  status: ('A' for Active; 'I' for Inactive)
REMARK    1  A    between atoms: C_2  and  C_3 
REMARK    2  A    between atoms: C_3  and  N_4 
REMARK       I    between atoms: N_4  and  C_5 
REMARK    3  A    between atoms: C_5  and  C_7 
REMARK    4  A    between atoms: C_7  and  N_8 
REMARK    5  A    between atoms: C_10  and  N_11 
REMARK       I    between atoms: N_11  and  C_12 
REMARK    6  A    between atoms: C_12  and  C_14 
ROOT
HETATM    1  N   UNL     1     -42.465 -53.735  13.574  1.00  0.00    -0.293 N 
HETATM    2  C   UNL     1     -41.313 -53.147  14.005  1.00  0.00     0.141 A 
HETATM    3  C   UNL     1     -40.813 -52.434  12.944  1.00  0.00     0.069 A 
HETATM    4  C   UNL     1     -41.777 -52.617  11.925  1.00  0.00     0.138 A 
HETATM    5  N   UNL     1     -42.781 -53.422  12.298  1.00  0.00    -0.307 N 
ATOM      6  HN  UNL     1     -43.587 -53.725  11.752  1.00  0.00     0.186 HD
ENDROOT
BRANCH   1   7
HETATM    7  C   UNL     1     -43.281 -54.659  14.333  1.00  0.00     0.250 C 
BRANCH   7   8
HETATM    8  C   UNL     1     -44.752 -54.363  14.145  1.00  0.00     0.237 C 
HETATM    9  N   UNL     1     -45.273 -53.435  15.022  1.00  0.00    -0.360 N 
HETATM   10  H   UNL     1     -44.640 -52.967  15.668  1.00  0.00     0.162 HD
HETATM   11  O   UNL     1     -45.431 -54.948  13.304  1.00  0.00    -0.272 OA
BRANCH   9  12
HETATM   12  C   UNL     1     -46.667 -53.045  15.001  1.00  0.00     0.122 C 
BRANCH  12  13
HETATM   13  C   UNL     1     -46.863 -51.624  14.480  1.00  0.00     0.015 C 
HETATM   14  C   UNL     1     -46.552 -51.500  12.995  1.00  0.00     0.006 C 
ENDBRANCH  12  13
ENDBRANCH   9  12
ENDBRANCH   7   8
ENDBRANCH   1   7
BRANCH   3  15
HETATM   15  N   UNL     1     -39.627 -51.719  12.881  1.00  0.00    -0.324 N 
HETATM   16  C   UNL     1     -39.554 -50.334  12.867  1.00  0.00     0.229 C 
HETATM   17  O   UNL     1     -40.529 -49.583  12.820  1.00  0.00    -0.272 OA
HETATM   18  H   UNL     1     -38.770 -52.260  12.882  1.00  0.00     0.169 HD
BRANCH  16  19
HETATM   19  C   UNL     1     -38.122 -49.760  12.911  1.00  0.00     0.030 C 
HETATM   20  C   UNL     1     -37.565 -49.624  11.489  1.00  0.00     0.025 C 
HETATM   21  C   UNL     1     -38.169 -48.362  13.561  1.00  0.00     0.025 C 
HETATM   22  C   UNL     1     -37.208 -50.657  13.758  1.00  0.00     0.025 C 
ENDBRANCH  16  19
ENDBRANCH   3  15
TORSDOF 6
ENDMDL
MODEL 4
REMARK VINA RESULT:      -5.2      2.327      7.055
REMARK  6 active torsions:
REMARK  status: ('A' for Active; 'I' for Inactive)
REMARK    1  A    between atoms: C_2  and  C_3 
REMARK    2  A    between atoms: C_3  and  N_4 
REMARK       I    between atoms: N_4  and  C_5 
REMARK    3  A    between atoms: C_5  and  C_7 
REMARK    4  A    between atoms: C_7  and  N_8 
REMARK    5  A    between atoms: C_10  and  N_11 
REMARK       I    between atoms: N_11  and  C_12 
REMARK    6  A    between atoms: C_12  and  C_14 
ROOT
HETATM    1  N   UNL     1     -40.398 -49.666  12.873  1.00  0.00    -0.293 N 
HETATM    2  C   UNL     1     -41.467 -49.760  12.032  1.00  0.00     0.141 A 
HETATM    3  C   UNL     1     -41.352 -48.733  11.129  1.00  0.00     0.069 A 
HETATM    4  C   UNL     1     -40.136 -48.102  11.484  1.00  0.00     0.138 A 
HETATM    5  N   UNL     1     -39.556 -48.658  12.557  1.00  0.00    -0.307 N 
ATOM      6  HN  UNL     1     -38.689 -48.386  13.022  1.00  0.00     0.186 HD
ENDROOT
BRANCH   1   7
HETATM    7  C   UNL     1     -40.160 -50.490  14.040  1.00  0.00     0.250 C 
BRANCH   7   8
HETATM    8  C   UNL     1     -40.140 -51.956  13.673  1.00  0.00     0.237 C 
HETATM    9  N   UNL     1     -41.187 -52.696  14.182  1.00  0.00    -0.360 N 
HETATM   10  H   UNL     1     -41.923 -52.210  14.690  1.00  0.00     0.162 HD
HETATM   11  O   UNL     1     -39.229 -52.449  13.012  1.00  0.00    -0.272 OA
BRANCH   9  12
HETATM   12  C   UNL     1     -41.318 -54.118  13.948  1.00  0.00     0.122 C 
BRANCH  12  13
HETATM   13  C   UNL     1     -42.693 -54.648  14.344  1.00  0.00     0.015 C 
HETATM   14  C   UNL     1     -43.812 -54.048  13.505  1.00  0.00     0.006 C 
ENDBRANCH  12  13
ENDBRANCH   9  12
ENDBRANCH   7   8
ENDBRANCH   1   7
BRANCH   3  15
HETATM   15  N   UNL     1     -42.234 -48.382  10.120  1.00  0.00    -0.324 N 
HETATM   16  C   UNL     1     -43.372 -47.613  10.315  1.00  0.00     0.229 C 
HETATM   17  O   UNL     1     -43.777 -47.230  11.412  1.00  0.00    -0.272 OA
HETATM   18  H   UNL     1     -41.995 -48.685   9.183  1.00  0.00     0.169 HD
BRANCH  16  19
HETATM   19  C   UNL     1     -44.139 -47.252   9.024  1.00  0.00     0.030 C 
HETATM   20  C   UNL     1     -45.603 -47.694   9.141  1.00  0.00     0.025 C 
HETATM   21  C   UNL     1     -44.096 -45.722   8.835  1.00  0.00     0.025 C 
HETATM   22  C   UNL     1     -43.479 -47.910   7.804  1.00  0.00     0.025 C 
ENDBRANCH  16  19
ENDBRANCH   3  15
TORSDOF 6
ENDMDL
MODEL 5
REMARK VINA RESULT:      -5.2      2.466      3.015
REMARK  6 active torsions:
REMARK  status: ('A' for Active; 'I' for Inactive)
REMARK    1  A    between atoms: C_2  and  C_3 
REMARK    2  A    between atoms: C_3  and  N_4 
REMARK       I    between atoms: N_4  and  C_5 
REMARK    3  A    between atoms: C_5  and  C_7 
REMARK    4  A    between atoms: C_7  and  N_8 
REMARK    5  A    between atoms: C_10  and  N_11 
REMARK       I    between atoms: N_11  and  C_12 
REMARK    6  A    between atoms: C_12  and  C_14 
ROOT
HETATM    1  N   UNL     1     -40.574 -50.290  11.978  1.00  0.00    -0.293 N 
HETATM    2  C   UNL     1     -41.896 -50.131  12.267  1.00  0.00     0.141 A 
HETATM    3  C   UNL     1     -42.428 -51.390  12.391  1.00  0.00     0.069 A 
HETATM    4  C   UNL     1     -41.318 -52.248  12.208  1.00  0.00     0.138 A 
HETATM    5  N   UNL     1     -40.186 -51.584  11.941  1.00  0.00    -0.307 N 
ATOM      6  HN  UNL     1     -39.257 -51.963  11.755  1.00  0.00     0.186 HD
ENDROOT
BRANCH   1   7
HETATM    7  C   UNL     1     -39.638 -49.229  11.670  1.00  0.00     0.250 C 
BRANCH   7   8
HETATM    8  C   UNL     1     -40.304 -47.876  11.762  1.00  0.00     0.237 C 
HETATM    9  N   UNL     1     -40.752 -47.366  10.561  1.00  0.00    -0.360 N 
HETATM   10  H   UNL     1     -40.677 -47.947   9.729  1.00  0.00     0.162 HD
HETATM   11  O   UNL     1     -40.391 -47.263  12.824  1.00  0.00    -0.272 OA
BRANCH   9  12
HETATM   12  C   UNL     1     -41.396 -46.074  10.457  1.00  0.00     0.122 C 
BRANCH  12  13
HETATM   13  C   UNL     1     -42.762 -46.159   9.780  1.00  0.00     0.015 C 
HETATM   14  C   UNL     1     -43.126 -47.582   9.380  1.00  0.00     0.006 C 
ENDBRANCH  12  13
ENDBRANCH   9  12
ENDBRANCH   7   8
ENDBRANCH   1   7
BRANCH   3  15
HETATM   15  N   UNL     1     -43.750 -51.738  12.619  1.00  0.00    -0.324 N 
HETATM   16  C   UNL     1     -44.351 -51.727  13.870  1.00  0.00     0.229 C 
HETATM   17  O   UNL     1     -43.764 -51.494  14.926  1.00  0.00    -0.272 OA
HETATM   18  H   UNL     1     -44.304 -51.978  11.806  1.00  0.00     0.169 HD
BRANCH  16  19
HETATM   19  C   UNL     1     -45.863 -52.040  13.864  1.00  0.00     0.030 C 
HETATM   20  C   UNL     1     -46.487 -51.597  12.536  1.00  0.00     0.025 C 
HETATM   21  C   UNL     1     -46.053 -53.563  14.019  1.00  0.00     0.025 C 
HETATM   22  C   UNL     1     -46.562 -51.343  15.040  1.00  0.00     0.025 C 
ENDBRANCH  16  19
ENDBRANCH   3  15
TORSDOF 6
ENDMDL
MODEL 6
REMARK VINA RESULT:      -5.2      3.834      5.862
REMARK  6 active torsions:
REMARK  status: ('A' for Active; 'I' for Inactive)
REMARK    1  A    between atoms: C_2  and  C_3 
REMARK    2  A    between atoms: C_3  and  N_4 
REMARK       I    between atoms: N_4  and  C_5 
REMARK    3  A    between atoms: C_5  and  C_7 
REMARK    4  A    between atoms: C_7  and  N_8 
REMARK    5  A    between atoms: C_10  and  N_11 
REMARK       I    between atoms: N_11  and  C_12 
REMARK    6  A    between atoms: C_12  and  C_14 
ROOT
HETATM    1  N   UNL     1     -40.168 -52.400  13.410  1.00  0.00    -0.293 N 
HETATM    2  C   UNL     1     -41.339 -52.703  14.040  1.00  0.00     0.141 A 
HETATM    3  C   UNL     1     -42.332 -52.600  13.099  1.00  0.00     0.069 A 
HETATM    4  C   UNL     1     -41.640 -52.277  11.907  1.00  0.00     0.138 A 
HETATM    5  N   UNL     1     -40.321 -52.139  12.093  1.00  0.00    -0.307 N 
ATOM      6  HN  UNL     1     -39.605 -51.896  11.408  1.00  0.00     0.186 HD
ENDROOT
BRANCH   1   7
HETATM    7  C   UNL     1     -38.869 -52.291  14.040  1.00  0.00     0.250 C 
BRANCH   7   8
HETATM    8  C   UNL     1     -38.066 -51.163  13.433  1.00  0.00     0.237 C 
HETATM    9  N   UNL     1     -38.267 -49.928  14.014  1.00  0.00    -0.360 N 
HETATM   10  H   UNL     1     -38.863 -49.871  14.837  1.00  0.00     0.162 HD
HETATM   11  O   UNL     1     -37.331 -51.336  12.463  1.00  0.00    -0.272 OA
BRANCH   9  12
HETATM   12  C   UNL     1     -37.596 -48.733  13.550  1.00  0.00     0.122 C 
BRANCH  12  13
HETATM   13  C   UNL     1     -37.292 -47.759  14.685  1.00  0.00     0.015 C 
HETATM   14  C   UNL     1     -36.460 -48.394  15.789  1.00  0.00     0.006 C 
ENDBRANCH  12  13
ENDBRANCH   9  12
ENDBRANCH   7   8
ENDBRANCH   1   7
BRANCH   3  15
HETATM   15  N   UNL     1     -43.697 -52.754  13.280  1.00  0.00    -0.324 N 
HETATM   16  C   UNL     1     -44.591 -51.698  13.390  1.00  0.00     0.229 C 
HETATM   17  O   UNL     1     -44.268 -50.511  13.428  1.00  0.00    -0.272 OA
HETATM   18  H   UNL     1     -44.049 -53.704  13.294  1.00  0.00     0.169 HD
BRANCH  16  19
HETATM   19  C   UNL     1     -46.076 -52.112  13.469  1.00  0.00     0.030 C 
HETATM   20  C   UNL     1     -46.189 -53.613  13.760  1.00  0.00     0.025 C 
HETATM   21  C   UNL     1     -46.747 -51.331  14.618  1.00  0.00     0.025 C 
HETATM   22  C   UNL     1     -46.802 -51.766  12.161  1.00  0.00     0.025 C 
ENDBRANCH  16  19
ENDBRANCH   3  15
TORSDOF 6
ENDMDL
MODEL 7
REMARK VINA RESULT:      -5.1      3.304      7.219
REMARK  6 active torsions:
REMARK  status: ('A' for Active; 'I' for Inactive)
REMARK    1  A    between atoms: C_2  and  C_3 
REMARK    2  A    between atoms: C_3  and  N_4 
REMARK       I    between atoms: N_4  and  C_5 
REMARK    3  A    between atoms: C_5  and  C_7 
REMARK    4  A    between atoms: C_7  and  N_8 
REMARK    5  A    between atoms: C_10  and  N_11 
REMARK       I    between atoms: N_11  and  C_12 
REMARK    6  A    between atoms: C_12  and  C_14 
ROOT
HETATM    1  N   UNL     1     -40.590 -50.973  11.858  1.00  0.00    -0.293 N 
HETATM    2  C   UNL     1     -40.781 -49.835  11.133  1.00  0.00     0.141 A 
HETATM    3  C   UNL     1     -39.998 -48.864  11.706  1.00  0.00     0.069 A 
HETATM    4  C   UNL     1     -39.326 -49.542  12.750  1.00  0.00     0.138 A 
HETATM    5  N   UNL     1     -39.693 -50.826  12.858  1.00  0.00    -0.307 N 
ATOM      6  HN  UNL     1     -39.375 -51.523  13.532  1.00  0.00     0.186 HD
ENDROOT
BRANCH   1   7
HETATM    7  C   UNL     1     -41.288 -52.227  11.670  1.00  0.00     0.250 C 
BRANCH   7   8
HETATM    8  C   UNL     1     -42.487 -52.323  12.585  1.00  0.00     0.237 C 
HETATM    9  N   UNL     1     -43.553 -53.034  12.074  1.00  0.00    -0.360 N 
HETATM   10  H   UNL     1     -43.440 -53.499  11.175  1.00  0.00     0.162 HD
HETATM   11  O   UNL     1     -42.517 -51.763  13.679  1.00  0.00    -0.272 OA
BRANCH   9  12
HETATM   12  C   UNL     1     -44.790 -53.210  12.804  1.00  0.00     0.122 C 
BRANCH  12  13
HETATM   13  C   UNL     1     -45.848 -52.182  12.412  1.00  0.00     0.015 C 
HETATM   14  C   UNL     1     -46.489 -51.517  13.622  1.00  0.00     0.006 C 
ENDBRANCH  12  13
ENDBRANCH   9  12
ENDBRANCH   7   8
ENDBRANCH   1   7
BRANCH   3  15
HETATM   15  N   UNL     1     -39.905 -47.527  11.356  1.00  0.00    -0.324 N 
HETATM   16  C   UNL     1     -40.490 -46.493  12.074  1.00  0.00     0.229 C 
HETATM   17  O   UNL     1     -41.227 -46.648  13.047  1.00  0.00    -0.272 OA
HETATM   18  H   UNL     1     -39.341 -47.308  10.543  1.00  0.00     0.169 HD
BRANCH  16  19
HETATM   19  C   UNL     1     -40.154 -45.077  11.561  1.00  0.00     0.030 C 
HETATM   20  C   UNL     1     -39.540 -45.157  10.157  1.00  0.00     0.025 C 
HETATM   21  C   UNL     1     -41.457 -44.255  11.486  1.00  0.00     0.025 C 
HETATM   22  C   UNL     1     -39.190 -44.369  12.524  1.00  0.00     0.025 C 
ENDBRANCH  16  19
ENDBRANCH   3  15
TORSDOF 6
ENDMDL
MODEL 8
REMARK VINA RESULT:      -5.1      3.663      5.770
REMARK  6 active torsions:
REMARK  status: ('A' for Active; 'I' for Inactive)
REMARK    1  A    between atoms: C_2  and  C_3 
REMARK    2  A    between atoms: C_3  and  N_4 
REMARK       I    between atoms: N_4  and  C_5 
REMARK    3  A    between atoms: C_5  and  C_7 
REMARK    4  A    between atoms: C_7  and  N_8 
REMARK    5  A    between atoms: C_10  and  N_11 
REMARK       I    between atoms: N_11  and  C_12 
REMARK    6  A    between atoms: C_12  and  C_14 
ROOT
HETATM    1  N   UNL     1     -40.612 -51.036  12.126  1.00  0.00    -0.293 N 
HETATM    2  C   UNL     1     -41.823 -50.650  12.619  1.00  0.00     0.141 A 
HETATM    3  C   UNL     1     -42.655 -51.736  12.518  1.00  0.00     0.069 A 
HETATM    4  C   UNL     1     -41.825 -52.755  11.993  1.00  0.00     0.138 A 
HETATM    5  N   UNL     1     -40.580 -52.330  11.737  1.00  0.00    -0.307 N 
ATOM      6  HN  UNL     1     -39.798 -52.855  11.345  1.00  0.00     0.186 HD
ENDROOT
BRANCH   1   7
HETATM    7  C   UNL     1     -39.455 -50.182  11.950  1.00  0.00     0.250 C 
BRANCH   7   8
HETATM    8  C   UNL     1     -38.327 -50.605  12.862  1.00  0.00     0.237 C 
HETATM    9  N   UNL     1     -38.191 -49.847  14.007  1.00  0.00    -0.360 N 
HETATM   10  H   UNL     1     -38.883 -49.125  14.196  1.00  0.00     0.162 HD
HETATM   11  O   UNL     1     -37.564 -51.524  12.571  1.00  0.00    -0.272 OA
BRANCH   9  12
HETATM   12  C   UNL     1     -37.153 -50.096  14.984  1.00  0.00     0.122 C 
BRANCH  12  13
HETATM   13  C   UNL     1     -36.603 -48.808  15.589  1.00  0.00     0.015 C 
HETATM   14  C   UNL     1     -37.059 -47.568  14.833  1.00  0.00     0.006 C 
ENDBRANCH  12  13
ENDBRANCH   9  12
ENDBRANCH   7   8
ENDBRANCH   1   7
BRANCH   3  15
HETATM   15  N   UNL     1     -44.002 -51.811  12.835  1.00  0.00    -0.324 N 
HETATM   16  C   UNL     1     -44.492 -52.307  14.034  1.00  0.00     0.229 C 
HETATM   17  O   UNL     1     -43.799 -52.818  14.914  1.00  0.00    -0.272 OA
HETATM   18  H   UNL     1     -44.651 -51.441  12.150  1.00  0.00     0.169 HD
BRANCH  16  19
HETATM   19  C   UNL     1     -46.020 -52.183  14.211  1.00  0.00     0.030 C 
HETATM   20  C   UNL     1     -46.340 -51.224  15.365  1.00  0.00     0.025 C 
HETATM   21  C   UNL     1     -46.624 -51.613  12.912  1.00  0.00     0.025 C 
HETATM   22  C   UNL     1     -46.646 -53.560  14.473  1.00  0.00     0.025 C 
ENDBRANCH  16  19
ENDBRANCH   3  15
TORSDOF 6
ENDMDL
MODEL 9
REMARK VINA RESULT:      -4.9      3.912      6.971
REMARK  6 active torsions:
REMARK  status: ('A' for Active; 'I' for Inactive)
REMARK    1  A    between atoms: C_2  and  C_3 
REMARK    2  A    between atoms: C_3  and  N_4 
REMARK       I    between atoms: N_4  and  C_5 
REMARK    3  A    between atoms: C_5  and  C_7 
REMARK    4  A    between atoms: C_7  and  N_8 
REMARK    5  A    between atoms: C_10  and  N_11 
REMARK       I    between atoms: N_11  and  C_12 
REMARK    6  A    between atoms: C_12  and  C_14 
ROOT
HETATM    1  N   UNL     1     -42.071 -53.739  14.691  1.00  0.00    -0.293 N 
HETATM    2  C   UNL     1     -41.639 -52.899  13.708  1.00  0.00     0.141 A 
HETATM    3  C   UNL     1     -40.778 -52.009  14.298  1.00  0.00     0.069 A 
HETATM    4  C   UNL     1     -40.717 -52.436  15.646  1.00  0.00     0.138 A 
HETATM    5  N   UNL     1     -41.516 -53.482  15.896  1.00  0.00    -0.307 N 
ATOM      6  HN  UNL     1     -41.668 -53.967  16.780  1.00  0.00     0.186 HD
ENDROOT
BRANCH   1   7
HETATM    7  C   UNL     1     -43.068 -54.779  14.543  1.00  0.00     0.250 C 
BRANCH   7   8
HETATM    8  C   UNL     1     -44.382 -54.363  15.160  1.00  0.00     0.237 C 
HETATM    9  N   UNL     1     -45.275 -53.776  14.287  1.00  0.00    -0.360 N 
HETATM   10  H   UNL     1     -45.030 -53.733  13.300  1.00  0.00     0.162 HD
HETATM   11  O   UNL     1     -44.608 -54.496  16.361  1.00  0.00    -0.272 OA
BRANCH   9  12
HETATM   12  C   UNL     1     -46.574 -53.299  14.709  1.00  0.00     0.122 C 
BRANCH  12  13
HETATM   13  C   UNL     1     -46.781 -51.820  14.391  1.00  0.00     0.015 C 
HETATM   14  C   UNL     1     -46.537 -51.501  12.923  1.00  0.00     0.006 C 
ENDBRANCH  12  13
ENDBRANCH   9  12
ENDBRANCH   7   8
ENDBRANCH   1   7
BRANCH   3  15
HETATM   15  N   UNL     1     -40.135 -50.929  13.714  1.00  0.00    -0.324 N 
HETATM   16  C   UNL     1     -38.880 -50.997  13.127  1.00  0.00     0.229 C 
HETATM   17  O   UNL     1     -38.158 -51.994  13.134  1.00  0.00    -0.272 OA
HETATM   18  H   UNL     1     -40.645 -50.054  13.692  1.00  0.00     0.169 HD
BRANCH  16  19
HETATM   19  C   UNL     1     -38.416 -49.697  12.437  1.00  0.00     0.030 C 
HETATM   20  C   UNL     1     -37.744 -48.771  13.458  1.00  0.00     0.025 C 
HETATM   21  C   UNL     1     -37.390 -50.056  11.343  1.00  0.00     0.025 C 
HETATM   22  C   UNL     1     -39.603 -48.986  11.773  1.00  0.00     0.025 C 
ENDBRANCH  16  19
ENDBRANCH   3  15
TORSDOF 6
ENDMDL
