MODEL 1
REMARK VINA RESULT:      -6.1      0.000      0.000
REMARK  4 active torsions:
REMARK  status: ('A' for Active; 'I' for Inactive)
REMARK       I    between atoms: C_2  and  N_3 
REMARK       I    between atoms: C_2  and  N_13 
REMARK    1  A    between atoms: N_3  and  C_4 
REMARK    2  A    between atoms: C_4  and  C_5 
REMARK    3  A    between atoms: C_5  and  C_6 
REMARK    4  A    between atoms: N_13  and  C_14 
ROOT
HETATM    1  O   UNL     1     -42.073 -49.763  13.355  1.00  0.00    -0.247 OA
HETATM    2  C   UNL     1     -41.979 -50.156  12.200  1.00  0.00     0.316 C 
HETATM    3  N   UNL     1     -41.877 -51.472  11.845  1.00  0.00    -0.343 N 
HETATM    4  N   UNL     1     -41.977 -49.328  11.108  1.00  0.00    -0.338 N 
HETATM    5  H   UNL     1     -41.438 -51.677  10.959  1.00  0.00     0.164 HD
HETATM    6  H   UNL     1     -42.160 -49.759  10.213  1.00  0.00     0.164 HD
ENDROOT
BRANCH   3   7
HETATM    7  C   UNL     1     -41.848 -52.518  12.858  1.00  0.00     0.130 C 
BRANCH   7   8
HETATM    8  C   UNL     1     -43.068 -53.432  12.770  1.00  0.00     0.076 C 
BRANCH   8   9
HETATM    9  C   UNL     1     -44.324 -52.703  13.165  1.00  0.00     0.010 A 
HETATM   10  C   UNL     1     -44.457 -52.166  14.445  1.00  0.00     0.025 A 
HETATM   11  C   UNL     1     -45.639 -51.509  14.777  1.00  0.00     0.003 A 
HETATM   12  C   UNL     1     -46.651 -51.406  13.832  1.00  0.00     0.017 A 
HETATM   13  C   UNL     1     -46.439 -51.970  12.585  1.00  0.00     0.088 A 
HETATM   14  N   UNL     1     -45.307 -52.621  12.236  1.00  0.00    -0.369 N 
ATOM     15  HN  UNL     1     -45.198 -53.033  11.309  1.00  0.00     0.165 HD
ENDBRANCH   8   9
ENDBRANCH   7   8
ENDBRANCH   3   7
BRANCH   4  16
HETATM   16  C   UNL     1     -42.087 -47.877  11.210  1.00  0.00     0.101 C 
HETATM   17  C   UNL     1     -43.153 -47.295  10.263  1.00  0.00     0.041 C 
HETATM   18  C   UNL     1     -42.830 -45.835   9.953  1.00  0.00     0.142 C 
HETATM   19  S   UNL     1     -41.310 -45.447  10.788  1.00  0.00     0.146 S 
HETATM   20  O   UNL     1     -40.419 -44.758   9.880  1.00  0.00    -0.228 OA
HETATM   21  O   UNL     1     -41.634 -44.917  12.099  1.00  0.00    -0.228 OA
HETATM   22  C   UNL     1     -40.779 -47.125  10.989  1.00  0.00     0.165 C 
ENDBRANCH   4  16
TORSDOF 4
ENDMDL
MODEL 2
REMARK VINA RESULT:      -5.9      1.694      1.973
REMARK  4 active torsions:
REMARK  status: ('A' for Active; 'I' for Inactive)
REMARK       I    between atoms: C_2  and  N_3 
REMARK       I    between atoms: C_2  and  N_13 
REMARK    1  A    between atoms: N_3  and  C_4 
REMARK    2  A    between atoms: C_4  and  C_5 
REMARK    3  A    between atoms: C_5  and  C_6 
REMARK    4  A    between atoms: N_13  and  C_14 
ROOT
HETATM    1  O   UNL     1     -41.276 -49.744  13.244  1.00  0.00    -0.247 OA
HETATM    2  C   UNL     1     -41.089 -50.172  12.113  1.00  0.00     0.316 C 
HETATM    3  N   UNL     1     -40.640 -51.433  11.836  1.00  0.00    -0.343 N 
HETATM    4  N   UNL     1     -41.319 -49.446  10.973  1.00  0.00    -0.338 N 
HETATM    5  H   UNL     1     -40.170 -51.570  10.953  1.00  0.00     0.164 HD
HETATM    6  H   UNL     1     -41.387 -49.968  10.110  1.00  0.00     0.164 HD
ENDROOT
BRANCH   3   7
HETATM    7  C   UNL     1     -40.323 -52.365  12.909  1.00  0.00     0.130 C 
BRANCH   7   8
HETATM    8  C   UNL     1     -40.784 -53.784  12.588  1.00  0.00     0.076 C 
BRANCH   8   9
HETATM    9  C   UNL     1     -42.146 -54.058  13.166  1.00  0.00     0.010 A 
HETATM   10  C   UNL     1     -42.276 -54.580  14.453  1.00  0.00     0.025 A 
HETATM   11  C   UNL     1     -43.553 -54.832  14.948  1.00  0.00     0.003 A 
HETATM   12  C   UNL     1     -44.659 -54.560  14.154  1.00  0.00     0.017 A 
HETATM   13  C   UNL     1     -44.442 -54.045  12.887  1.00  0.00     0.088 A 
HETATM   14  N   UNL     1     -43.216 -53.798  12.375  1.00  0.00    -0.369 N 
ATOM     15  HN  UNL     1     -43.100 -53.431  11.430  1.00  0.00     0.165 HD
ENDBRANCH   8   9
ENDBRANCH   7   8
ENDBRANCH   3   7
BRANCH   4  16
HETATM   16  C   UNL     1     -41.814 -48.074  10.990  1.00  0.00     0.101 C 
HETATM   17  C   UNL     1     -42.732 -47.761   9.793  1.00  0.00     0.041 C 
HETATM   18  C   UNL     1     -42.724 -46.260   9.513  1.00  0.00     0.142 C 
HETATM   19  S   UNL     1     -41.600 -45.517  10.672  1.00  0.00     0.146 S 
HETATM   20  O   UNL     1     -40.720 -44.602   9.977  1.00  0.00    -0.228 OA
HETATM   21  O   UNL     1     -42.353 -45.119  11.845  1.00  0.00    -0.228 OA
HETATM   22  C   UNL     1     -40.725 -47.009  11.058  1.00  0.00     0.165 C 
ENDBRANCH   4  16
TORSDOF 4
ENDMDL
MODEL 3
REMARK VINA RESULT:      -5.9      3.731      6.334
REMARK  4 active torsions:
REMARK  status: ('A' for Active; 'I' for Inactive)
REMARK       I    between atoms: C_2  and  N_3 
REMARK       I    between atoms: C_2  and  N_13 
REMARK    1  A    between atoms: N_3  and  C_4 
REMARK    2  A    between atoms: C_4  and  C_5 
REMARK    3  A    between atoms: C_5  and  C_6 
REMARK    4  A    between atoms: N_13  and  C_14 
ROOT
HETATM    1  O   UNL     1     -42.806 -48.507  12.170  1.00  0.00    -0.247 OA
HETATM    2  C   UNL     1     -42.076 -48.837  11.245  1.00  0.00     0.316 C 
HETATM    3  N   UNL     1     -41.924 -48.115  10.094  1.00  0.00    -0.343 N 
HETATM    4  N   UNL     1     -41.304 -49.969  11.247  1.00  0.00    -0.338 N 
HETATM    5  H   UNL     1     -41.625 -48.619   9.272  1.00  0.00     0.164 HD
HETATM    6  H   UNL     1     -40.556 -50.009  10.569  1.00  0.00     0.164 HD
ENDROOT
BRANCH   3   7
HETATM    7  C   UNL     1     -42.666 -46.880   9.884  1.00  0.00     0.130 C 
BRANCH   7   8
HETATM    8  C   UNL     1     -43.228 -46.785   8.468  1.00  0.00     0.076 C 
BRANCH   8   9
HETATM    9  C   UNL     1     -44.503 -47.573   8.333  1.00  0.00     0.010 A 
HETATM   10  C   UNL     1     -45.467 -47.535   9.340  1.00  0.00     0.025 A 
HETATM   11  C   UNL     1     -46.628 -48.289   9.185  1.00  0.00     0.003 A 
HETATM   12  C   UNL     1     -46.796 -49.055   8.040  1.00  0.00     0.017 A 
HETATM   13  C   UNL     1     -45.789 -49.039   7.090  1.00  0.00     0.088 A 
HETATM   14  N   UNL     1     -44.647 -48.326   7.215  1.00  0.00    -0.369 N 
ATOM     15  HN  UNL     1     -43.924 -48.353   6.497  1.00  0.00     0.165 HD
ENDBRANCH   8   9
ENDBRANCH   7   8
ENDBRANCH   3   7
BRANCH   4  16
HETATM   16  C   UNL     1     -41.273 -50.909  12.363  1.00  0.00     0.101 C 
HETATM   17  C   UNL     1     -40.297 -50.476  13.474  1.00  0.00     0.041 C 
HETATM   18  C   UNL     1     -39.846 -51.698  14.271  1.00  0.00     0.142 C 
HETATM   19  S   UNL     1     -40.611 -53.120  13.528  1.00  0.00     0.146 S 
HETATM   20  O   UNL     1     -39.625 -54.163  13.347  1.00  0.00    -0.228 OA
HETATM   21  O   UNL     1     -41.873 -53.362  14.201  1.00  0.00    -0.228 OA
HETATM   22  C   UNL     1     -40.956 -52.348  11.971  1.00  0.00     0.165 C 
ENDBRANCH   4  16
TORSDOF 4
ENDMDL
MODEL 4
REMARK VINA RESULT:      -5.9      4.226      5.286
REMARK  4 active torsions:
REMARK  status: ('A' for Active; 'I' for Inactive)
REMARK       I    between atoms: C_2  and  N_3 
REMARK       I    between atoms: C_2  and  N_13 
REMARK    1  A    between atoms: N_3  and  C_4 
REMARK    2  A    between atoms: C_4  and  C_5 
REMARK    3  A    between atoms: C_5  and  C_6 
REMARK    4  A    between atoms: N_13  and  C_14 
ROOT
HETATM    1  O   UNL     1     -43.311 -52.955  13.942  1.00  0.00    -0.247 OA
HETATM    2  C   UNL     1     -43.439 -52.789  12.737  1.00  0.00     0.316 C 
HETATM    3  N   UNL     1     -44.645 -52.734  12.095  1.00  0.00    -0.343 N 
HETATM    4  N   UNL     1     -42.389 -52.624  11.872  1.00  0.00    -0.338 N 
HETATM    5  H   UNL     1     -44.655 -52.971  11.115  1.00  0.00     0.164 HD
HETATM    6  H   UNL     1     -42.607 -52.236  10.964  1.00  0.00     0.164 HD
ENDROOT
BRANCH   3   7
HETATM    7  C   UNL     1     -45.891 -52.899  12.832  1.00  0.00     0.130 C 
BRANCH   7   8
HETATM    8  C   UNL     1     -46.505 -51.558  13.224  1.00  0.00     0.076 C 
BRANCH   8   9
HETATM    9  C   UNL     1     -46.329 -51.288  14.695  1.00  0.00     0.010 A 
HETATM   10  C   UNL     1     -47.381 -51.505  15.584  1.00  0.00     0.025 A 
HETATM   11  C   UNL     1     -47.183 -51.231  16.936  1.00  0.00     0.003 A 
HETATM   12  C   UNL     1     -45.952 -50.752  17.362  1.00  0.00     0.017 A 
HETATM   13  C   UNL     1     -44.962 -50.562  16.413  1.00  0.00     0.088 A 
HETATM   14  N   UNL     1     -45.125 -50.809  15.094  1.00  0.00    -0.369 N 
ATOM     15  HN  UNL     1     -44.372 -50.642  14.426  1.00  0.00     0.165 HD
ENDBRANCH   8   9
ENDBRANCH   7   8
ENDBRANCH   3   7
BRANCH   4  16
HETATM   16  C   UNL     1     -40.996 -52.629  12.302  1.00  0.00     0.101 C 
HETATM   17  C   UNL     1     -40.605 -53.931  13.027  1.00  0.00     0.041 C 
HETATM   18  C   UNL     1     -39.418 -53.673  13.952  1.00  0.00     0.142 C 
HETATM   19  S   UNL     1     -39.027 -51.943  13.832  1.00  0.00     0.146 S 
HETATM   20  O   UNL     1     -38.854 -51.391  15.158  1.00  0.00    -0.228 OA
HETATM   21  O   UNL     1     -38.032 -51.773  12.790  1.00  0.00    -0.228 OA
HETATM   22  C   UNL     1     -40.598 -51.447  13.179  1.00  0.00     0.165 C 
ENDBRANCH   4  16
TORSDOF 4
ENDMDL
MODEL 5
REMARK VINA RESULT:      -5.9      3.565      6.964
REMARK  4 active torsions:
REMARK  status: ('A' for Active; 'I' for Inactive)
REMARK       I    between atoms: C_2  and  N_3 
REMARK       I    between atoms: C_2  and  N_13 
REMARK    1  A    between atoms: N_3  and  C_4 
REMARK    2  A    between atoms: C_4  and  C_5 
REMARK    3  A    between atoms: C_5  and  C_6 
REMARK    4  A    between atoms: N_13  and  C_14 
ROOT
HETATM    1  O   UNL     1     -43.365 -50.615  13.526  1.00  0.00    -0.247 OA
HETATM    2  C   UNL     1     -42.855 -51.087  12.519  1.00  0.00     0.316 C 
HETATM    3  N   UNL     1     -41.895 -50.455  11.778  1.00  0.00    -0.343 N 
HETATM    4  N   UNL     1     -43.171 -52.319  12.008  1.00  0.00    -0.338 N 
HETATM    5  H   UNL     1     -41.814 -50.722  10.808  1.00  0.00     0.164 HD
HETATM    6  H   UNL     1     -42.519 -52.715  11.346  1.00  0.00     0.164 HD
ENDROOT
BRANCH   3   7
HETATM    7  C   UNL     1     -41.424 -49.127  12.143  1.00  0.00     0.130 C 
BRANCH   7   8
HETATM    8  C   UNL     1     -41.156 -48.258  10.917  1.00  0.00     0.076 C 
BRANCH   8   9
HETATM    9  C   UNL     1     -42.427 -47.971  10.165  1.00  0.00     0.010 A 
HETATM   10  C   UNL     1     -43.596 -47.643  10.851  1.00  0.00     0.025 A 
HETATM   11  C   UNL     1     -44.756 -47.396  10.120  1.00  0.00     0.003 A 
HETATM   12  C   UNL     1     -44.720 -47.483   8.735  1.00  0.00     0.017 A 
HETATM   13  C   UNL     1     -43.520 -47.817   8.132  1.00  0.00     0.088 A 
HETATM   14  N   UNL     1     -42.380 -48.071   8.814  1.00  0.00    -0.369 N 
ATOM     15  HN  UNL     1     -41.519 -48.328   8.330  1.00  0.00     0.165 HD
ENDBRANCH   8   9
ENDBRANCH   7   8
ENDBRANCH   3   7
BRANCH   4  16
HETATM   16  C   UNL     1     -44.158 -53.203  12.616  1.00  0.00     0.101 C 
HETATM   17  C   UNL     1     -45.528 -52.523  12.803  1.00  0.00     0.041 C 
HETATM   18  C   UNL     1     -46.297 -53.208  13.931  1.00  0.00     0.142 C 
HETATM   19  S   UNL     1     -45.242 -54.478  14.587  1.00  0.00     0.146 S 
HETATM   20  O   UNL     1     -45.235 -54.406  16.032  1.00  0.00    -0.228 OA
HETATM   21  O   UNL     1     -45.522 -55.713  13.879  1.00  0.00    -0.228 OA
HETATM   22  C   UNL     1     -43.731 -53.809  13.949  1.00  0.00     0.165 C 
ENDBRANCH   4  16
TORSDOF 4
ENDMDL
MODEL 6
REMARK VINA RESULT:      -5.8      3.625      7.764
REMARK  4 active torsions:
REMARK  status: ('A' for Active; 'I' for Inactive)
REMARK       I    between atoms: C_2  and  N_3 
REMARK       I    between atoms: C_2  and  N_13 
REMARK    1  A    between atoms: N_3  and  C_4 
REMARK    2  A    between atoms: C_4  and  C_5 
REMARK    3  A    between atoms: C_5  and  C_6 
REMARK    4  A    between atoms: N_13  and  C_14 
ROOT
HETATM    1  O   UNL     1     -41.863 -50.513  13.496  1.00  0.00    -0.247 OA
HETATM    2  C   UNL     1     -41.951 -51.097  12.423  1.00  0.00     0.316 C 
HETATM    3  N   UNL     1     -41.339 -50.682  11.273  1.00  0.00    -0.343 N 
HETATM    4  N   UNL     1     -42.664 -52.252  12.238  1.00  0.00    -0.338 N 
HETATM    5  H   UNL     1     -41.751 -50.979  10.401  1.00  0.00     0.164 HD
HETATM    6  H   UNL     1     -42.458 -52.783  11.403  1.00  0.00     0.164 HD
ENDROOT
BRANCH   3   7
HETATM    7  C   UNL     1     -40.540 -49.465  11.250  1.00  0.00     0.130 C 
BRANCH   7   8
HETATM    8  C   UNL     1     -41.326 -48.275  10.706  1.00  0.00     0.076 C 
BRANCH   8   9
HETATM    9  C   UNL     1     -40.678 -46.972  11.093  1.00  0.00     0.010 A 
HETATM   10  C   UNL     1     -40.327 -46.724  12.419  1.00  0.00     0.025 A 
HETATM   11  C   UNL     1     -39.742 -45.502  12.740  1.00  0.00     0.003 A 
HETATM   12  C   UNL     1     -39.523 -44.566  11.738  1.00  0.00     0.017 A 
HETATM   13  C   UNL     1     -39.904 -44.891  10.447  1.00  0.00     0.088 A 
HETATM   14  N   UNL     1     -40.482 -46.064  10.106  1.00  0.00    -0.369 N 
ATOM     15  HN  UNL     1     -40.759 -46.258   9.143  1.00  0.00     0.165 HD
ENDBRANCH   8   9
ENDBRANCH   7   8
ENDBRANCH   3   7
BRANCH   4  16
HETATM   16  C   UNL     1     -43.401 -52.912  13.310  1.00  0.00     0.101 C 
HETATM   17  C   UNL     1     -42.547 -53.949  14.065  1.00  0.00     0.041 C 
HETATM   18  C   UNL     1     -43.454 -54.994  14.711  1.00  0.00     0.142 C 
HETATM   19  S   UNL     1     -45.125 -54.588  14.262  1.00  0.00     0.146 S 
HETATM   20  O   UNL     1     -45.810 -55.780  13.811  1.00  0.00    -0.228 OA
HETATM   21  O   UNL     1     -45.675 -53.726  15.290  1.00  0.00    -0.228 OA
HETATM   22  C   UNL     1     -44.699 -53.580  12.868  1.00  0.00     0.165 C 
ENDBRANCH   4  16
TORSDOF 4
ENDMDL
MODEL 7
REMARK VINA RESULT:      -5.8      3.434      4.181
REMARK  4 active torsions:
REMARK  status: ('A' for Active; 'I' for Inactive)
REMARK       I    between atoms: C_2  and  N_3 
REMARK       I    between atoms: C_2  and  N_13 
REMARK    1  A    between atoms: N_3  and  C_4 
REMARK    2  A    between atoms: C_4  and  C_5 
REMARK    3  A    between atoms: C_5  and  C_6 
REMARK    4  A    between atoms: N_13  and  C_14 
ROOT
HETATM    1  O   UNL     1     -42.570 -52.222  13.851  1.00  0.00    -0.247 OA
HETATM    2  C   UNL     1     -42.571 -52.295  12.629  1.00  0.00     0.316 C 
HETATM    3  N   UNL     1     -43.526 -52.948  11.901  1.00  0.00    -0.343 N 
HETATM    4  N   UNL     1     -41.619 -51.719  11.829  1.00  0.00    -0.338 N 
HETATM    5  H   UNL     1     -43.261 -53.274  10.984  1.00  0.00     0.164 HD
HETATM    6  H   UNL     1     -41.853 -51.614  10.852  1.00  0.00     0.164 HD
ENDROOT
BRANCH   3   7
HETATM    7  C   UNL     1     -44.624 -53.641  12.562  1.00  0.00     0.130 C 
BRANCH   7   8
HETATM    8  C   UNL     1     -45.826 -52.726  12.782  1.00  0.00     0.076 C 
BRANCH   8   9
HETATM    9  C   UNL     1     -46.059 -52.477  14.248  1.00  0.00     0.010 A 
HETATM   10  C   UNL     1     -46.933 -51.474  14.665  1.00  0.00     0.025 A 
HETATM   11  C   UNL     1     -47.113 -51.266  16.030  1.00  0.00     0.003 A 
HETATM   12  C   UNL     1     -46.422 -52.057  16.937  1.00  0.00     0.017 A 
HETATM   13  C   UNL     1     -45.571 -53.029  16.440  1.00  0.00     0.088 A 
HETATM   14  N   UNL     1     -45.369 -53.249  15.122  1.00  0.00    -0.369 N 
ATOM     15  HN  UNL     1     -44.721 -53.969  14.798  1.00  0.00     0.165 HD
ENDBRANCH   8   9
ENDBRANCH   7   8
ENDBRANCH   3   7
BRANCH   4  16
HETATM   16  C   UNL     1     -40.495 -50.953  12.355  1.00  0.00     0.101 C 
HETATM   17  C   UNL     1     -39.957 -49.922  11.345  1.00  0.00     0.041 C 
HETATM   18  C   UNL     1     -38.497 -49.602  11.659  1.00  0.00     0.142 C 
HETATM   19  S   UNL     1     -38.026 -50.614  13.042  1.00  0.00     0.146 S 
HETATM   20  O   UNL     1     -36.751 -51.243  12.772  1.00  0.00    -0.228 OA
HETATM   21  O   UNL     1     -38.271 -49.863  14.258  1.00  0.00    -0.228 OA
HETATM   22  C   UNL     1     -39.329 -51.799  12.853  1.00  0.00     0.165 C 
ENDBRANCH   4  16
TORSDOF 4
ENDMDL
MODEL 8
REMARK VINA RESULT:      -5.6      3.967      6.899
REMARK  4 active torsions:
REMARK  status: ('A' for Active; 'I' for Inactive)
REMARK       I    between atoms: C_2  and  N_3 
REMARK       I    between atoms: C_2  and  N_13 
REMARK    1  A    between atoms: N_3  and  C_4 
REMARK    2  A    between atoms: C_4  and  C_5 
REMARK    3  A    between atoms: C_5  and  C_6 
REMARK    4  A    between atoms: N_13  and  C_14 
ROOT
HETATM    1  O   UNL     1     -41.456 -48.704  12.269  1.00  0.00    -0.247 OA
HETATM    2  C   UNL     1     -41.430 -49.016  11.086  1.00  0.00     0.316 C 
HETATM    3  N   UNL     1     -42.262 -48.490  10.137  1.00  0.00    -0.343 N 
HETATM    4  N   UNL     1     -40.553 -49.924  10.553  1.00  0.00    -0.338 N 
HETATM    5  H   UNL     1     -42.430 -49.048   9.313  1.00  0.00     0.164 HD
HETATM    6  H   UNL     1     -40.440 -49.910   9.550  1.00  0.00     0.164 HD
ENDROOT
BRANCH   3   7
HETATM    7  C   UNL     1     -43.280 -47.512  10.497  1.00  0.00     0.130 C 
BRANCH   7   8
HETATM    8  C   UNL     1     -43.014 -46.151   9.860  1.00  0.00     0.076 C 
BRANCH   8   9
HETATM    9  C   UNL     1     -41.897 -45.429  10.566  1.00  0.00     0.010 A 
HETATM   10  C   UNL     1     -42.154 -44.680  11.713  1.00  0.00     0.025 A 
HETATM   11  C   UNL     1     -41.097 -44.016  12.331  1.00  0.00     0.003 A 
HETATM   12  C   UNL     1     -39.821 -44.115  11.792  1.00  0.00     0.017 A 
HETATM   13  C   UNL     1     -39.653 -44.877  10.648  1.00  0.00     0.088 A 
HETATM   14  N   UNL     1     -40.660 -45.525  10.021  1.00  0.00    -0.369 N 
ATOM     15  HN  UNL     1     -40.495 -46.065   9.172  1.00  0.00     0.165 HD
ENDBRANCH   8   9
ENDBRANCH   7   8
ENDBRANCH   3   7
BRANCH   4  16
HETATM   16  C   UNL     1     -39.550 -50.622  11.349  1.00  0.00     0.101 C 
HETATM   17  C   UNL     1     -40.173 -51.487  12.462  1.00  0.00     0.041 C 
HETATM   18  C   UNL     1     -39.163 -51.688  13.589  1.00  0.00     0.142 C 
HETATM   19  S   UNL     1     -37.700 -50.779  13.149  1.00  0.00     0.146 S 
HETATM   20  O   UNL     1     -37.252 -50.001  14.284  1.00  0.00    -0.228 OA
HETATM   21  O   UNL     1     -36.812 -51.670  12.427  1.00  0.00    -0.228 OA
HETATM   22  C   UNL     1     -38.493 -49.718  11.972  1.00  0.00     0.165 C 
ENDBRANCH   4  16
TORSDOF 4
ENDMDL
MODEL 9
REMARK VINA RESULT:      -5.5      4.329      7.623
REMARK  4 active torsions:
REMARK  status: ('A' for Active; 'I' for Inactive)
REMARK       I    between atoms: C_2  and  N_3 
REMARK       I    between atoms: C_2  and  N_13 
REMARK    1  A    between atoms: N_3  and  C_4 
REMARK    2  A    between atoms: C_4  and  C_5 
REMARK    3  A    between atoms: C_5  and  C_6 
REMARK    4  A    between atoms: N_13  and  C_14 
ROOT
HETATM    1  O   UNL     1     -41.513 -50.696  13.495  1.00  0.00    -0.247 OA
HETATM    2  C   UNL     1     -41.546 -51.330  12.449  1.00  0.00     0.316 C 
HETATM    3  N   UNL     1     -40.838 -50.995  11.328  1.00  0.00    -0.343 N 
HETATM    4  N   UNL     1     -42.288 -52.467  12.267  1.00  0.00    -0.338 N 
HETATM    5  H   UNL     1     -41.197 -51.321  10.443  1.00  0.00     0.164 HD
HETATM    6  H   UNL     1     -42.043 -53.046  11.476  1.00  0.00     0.164 HD
ENDROOT
BRANCH   3   7
HETATM    7  C   UNL     1     -39.992 -49.810  11.306  1.00  0.00     0.130 C 
BRANCH   7   8
HETATM    8  C   UNL     1     -38.531 -50.145  11.592  1.00  0.00     0.076 C 
BRANCH   8   9
HETATM    9  C   UNL     1     -38.187 -49.889  13.035  1.00  0.00     0.010 A 
HETATM   10  C   UNL     1     -37.750 -48.629  13.445  1.00  0.00     0.025 A 
HETATM   11  C   UNL     1     -37.428 -48.435  14.786  1.00  0.00     0.003 A 
HETATM   12  C   UNL     1     -37.550 -49.493  15.677  1.00  0.00     0.017 A 
HETATM   13  C   UNL     1     -37.988 -50.711  15.187  1.00  0.00     0.088 A 
HETATM   14  N   UNL     1     -38.299 -50.934  13.891  1.00  0.00    -0.369 N 
ATOM     15  HN  UNL     1     -38.605 -51.852  13.569  1.00  0.00     0.165 HD
ENDBRANCH   8   9
ENDBRANCH   7   8
ENDBRANCH   3   7
BRANCH   4  16
HETATM   16  C   UNL     1     -43.125 -53.046  13.312  1.00  0.00     0.101 C 
HETATM   17  C   UNL     1     -42.376 -54.092  14.160  1.00  0.00     0.041 C 
HETATM   18  C   UNL     1     -43.374 -55.064  14.784  1.00  0.00     0.142 C 
HETATM   19  S   UNL     1     -44.990 -54.595  14.211  1.00  0.00     0.146 S 
HETATM   20  O   UNL     1     -45.705 -55.770  13.761  1.00  0.00    -0.228 OA
HETATM   21  O   UNL     1     -45.560 -53.666  15.168  1.00  0.00    -0.228 OA
HETATM   22  C   UNL     1     -44.424 -53.668  12.812  1.00  0.00     0.165 C 
ENDBRANCH   4  16
TORSDOF 4
ENDMDL
