MODEL 1
REMARK VINA RESULT:      -6.3      0.000      0.000
REMARK  3 active torsions:
REMARK  status: ('A' for Active; 'I' for Inactive)
REMARK    1  A    between atoms: C_5  and  C_19 
REMARK    2  A    between atoms: C_7  and  N_8 
REMARK       I    between atoms: N_8  and  C_9 
REMARK       I    between atoms: C_9  and  N_11 
REMARK    3  A    between atoms: N_11  and  C_12 
ROOT
HETATM    1  N   UNL     1     -41.525 -50.776  11.366  1.00  0.00    -0.293 N 
HETATM    2  C   UNL     1     -42.106 -51.277  12.560  1.00  0.00     0.322 C 
HETATM    3  O   UNL     1     -41.816 -50.820  13.645  1.00  0.00    -0.247 OA
HETATM    4  N   UNL     1     -42.994 -52.282  12.338  1.00  0.00    -0.334 N 
HETATM    5  H   UNL     1     -41.562 -51.303  10.500  1.00  0.00     0.172 HD
HETATM    6  H   UNL     1     -42.954 -52.766  11.453  1.00  0.00     0.165 HD
ENDROOT
BRANCH   1   7
HETATM    7  C   UNL     1     -40.914 -49.518  11.351  1.00  0.00     0.127 A 
HETATM    8  N   UNL     1     -39.595 -49.178  11.567  1.00  0.00    -0.281 N 
HETATM    9  C   UNL     1     -38.515 -50.046  11.970  1.00  0.00     0.179 C 
HETATM   10  N   UNL     1     -39.349 -47.855  11.402  1.00  0.00    -0.301 N 
HETATM   11  C   UNL     1     -40.540 -47.344  11.096  1.00  0.00     0.034 A 
ATOM     12  HN  UNL     1     -38.459 -47.366  11.491  1.00  0.00     0.187 HD
HETATM   13  C   UNL     1     -41.535 -48.328  11.043  1.00  0.00     0.077 A 
BRANCH  11  14
HETATM   14  C   UNL     1     -40.867 -45.893  10.798  1.00  0.00     0.037 C 
HETATM   15  C   UNL     1     -39.663 -45.061  10.272  1.00  0.00     0.011 C 
HETATM   16  C   UNL     1     -40.237 -43.874  11.066  1.00  0.00     0.001 C 
HETATM   17  C   UNL     1     -40.866 -44.922  12.006  1.00  0.00     0.011 C 
ENDBRANCH  11  14
ENDBRANCH   1   7
BRANCH   4  18
HETATM   18  C   UNL     1     -43.688 -52.985  13.450  1.00  0.00     0.035 C 
HETATM   19  C   UNL     1     -42.718 -54.039  14.017  1.00  0.00     0.039 C 
HETATM   20  C   UNL     1     -44.965 -53.626  12.869  1.00  0.00     0.057 C 
HETATM   21  C   UNL     1     -45.996 -52.539  12.560  1.00  0.00     0.170 C 
HETATM   22  O   UNL     1     -46.372 -51.867  13.757  1.00  0.00    -0.391 OA
HETATM   23  C   UNL     1     -45.287 -51.161  14.347  1.00  0.00     0.170 C 
HETATM   24  C   UNL     1     -44.129 -52.098  14.651  1.00  0.00     0.057 C 
ENDBRANCH   4  18
TORSDOF 3
ENDMDL
MODEL 2
REMARK VINA RESULT:      -6.2      2.161      7.080
REMARK  3 active torsions:
REMARK  status: ('A' for Active; 'I' for Inactive)
REMARK    1  A    between atoms: C_5  and  C_19 
REMARK    2  A    between atoms: C_7  and  N_8 
REMARK       I    between atoms: N_8  and  C_9 
REMARK       I    between atoms: C_9  and  N_11 
REMARK    3  A    between atoms: N_11  and  C_12 
ROOT
HETATM    1  N   UNL     1     -40.460 -50.092  11.009  1.00  0.00    -0.293 N 
HETATM    2  C   UNL     1     -41.318 -48.981  11.217  1.00  0.00     0.322 C 
HETATM    3  O   UNL     1     -42.319 -49.072  11.896  1.00  0.00    -0.247 OA
HETATM    4  N   UNL     1     -40.887 -47.853  10.593  1.00  0.00    -0.334 N 
HETATM    5  H   UNL     1     -39.779 -50.099  10.257  1.00  0.00     0.172 HD
HETATM    6  H   UNL     1     -40.217 -47.950   9.843  1.00  0.00     0.165 HD
ENDROOT
BRANCH   1   7
HETATM    7  C   UNL     1     -40.514 -51.197  11.865  1.00  0.00     0.127 A 
HETATM    8  N   UNL     1     -39.665 -51.557  12.890  1.00  0.00    -0.281 N 
HETATM    9  C   UNL     1     -38.429 -50.921  13.276  1.00  0.00     0.179 C 
HETATM   10  N   UNL     1     -40.072 -52.665  13.557  1.00  0.00    -0.301 N 
HETATM   11  C   UNL     1     -41.188 -53.026  12.929  1.00  0.00     0.034 A 
ATOM     12  HN  UNL     1     -39.625 -53.117  14.356  1.00  0.00     0.187 HD
HETATM   13  C   UNL     1     -41.509 -52.149  11.885  1.00  0.00     0.077 A 
BRANCH  11  14
HETATM   14  C   UNL     1     -42.083 -54.208  13.252  1.00  0.00     0.037 C 
HETATM   15  C   UNL     1     -43.603 -53.884  13.233  1.00  0.00     0.011 C 
HETATM   16  C   UNL     1     -43.749 -54.868  14.407  1.00  0.00     0.001 C 
HETATM   17  C   UNL     1     -42.285 -54.532  14.754  1.00  0.00     0.011 C 
ENDBRANCH  11  14
ENDBRANCH   1   7
BRANCH   4  18
HETATM   18  C   UNL     1     -41.655 -46.580  10.638  1.00  0.00     0.035 C 
HETATM   19  C   UNL     1     -42.822 -46.700   9.640  1.00  0.00     0.039 C 
HETATM   20  C   UNL     1     -40.686 -45.439  10.263  1.00  0.00     0.057 C 
HETATM   21  C   UNL     1     -39.704 -45.195  11.410  1.00  0.00     0.170 C 
HETATM   22  O   UNL     1     -40.406 -44.781  12.576  1.00  0.00    -0.391 OA
HETATM   23  C   UNL     1     -41.278 -45.791  13.073  1.00  0.00     0.170 C 
HETATM   24  C   UNL     1     -42.285 -46.210  12.014  1.00  0.00     0.057 C 
ENDBRANCH   4  18
TORSDOF 3
ENDMDL
MODEL 3
REMARK VINA RESULT:      -6.2      1.704      2.523
REMARK  3 active torsions:
REMARK  status: ('A' for Active; 'I' for Inactive)
REMARK    1  A    between atoms: C_5  and  C_19 
REMARK    2  A    between atoms: C_7  and  N_8 
REMARK       I    between atoms: N_8  and  C_9 
REMARK       I    between atoms: C_9  and  N_11 
REMARK    3  A    between atoms: N_11  and  C_12 
ROOT
HETATM    1  N   UNL     1     -41.843 -49.354  11.268  1.00  0.00    -0.293 N 
HETATM    2  C   UNL     1     -42.655 -49.626  12.400  1.00  0.00     0.322 C 
HETATM    3  O   UNL     1     -42.910 -48.768  13.217  1.00  0.00    -0.247 OA
HETATM    4  N   UNL     1     -43.096 -50.912  12.441  1.00  0.00    -0.334 N 
HETATM    5  H   UNL     1     -41.422 -50.103  10.729  1.00  0.00     0.172 HD
HETATM    6  H   UNL     1     -42.611 -51.599  11.882  1.00  0.00     0.165 HD
ENDROOT
BRANCH   1   7
HETATM    7  C   UNL     1     -41.633 -48.036  10.849  1.00  0.00     0.127 A 
HETATM    8  N   UNL     1     -42.326 -47.286   9.923  1.00  0.00    -0.281 N 
HETATM    9  C   UNL     1     -43.403 -47.720   9.066  1.00  0.00     0.179 C 
HETATM   10  N   UNL     1     -41.879 -46.011   9.824  1.00  0.00    -0.301 N 
HETATM   11  C   UNL     1     -40.868 -45.958  10.689  1.00  0.00     0.034 A 
ATOM     12  HN  UNL     1     -42.234 -45.265   9.225  1.00  0.00     0.187 HD
HETATM   13  C   UNL     1     -40.682 -47.177  11.352  1.00  0.00     0.077 A 
BRANCH  11  14
HETATM   14  C   UNL     1     -39.990 -44.761  11.003  1.00  0.00     0.037 C 
HETATM   15  C   UNL     1     -39.526 -44.680  12.484  1.00  0.00     0.011 C 
HETATM   16  C   UNL     1     -39.659 -43.151  12.361  1.00  0.00     0.001 C 
HETATM   17  C   UNL     1     -40.720 -43.421  11.275  1.00  0.00     0.011 C 
ENDBRANCH  11  14
ENDBRANCH   1   7
BRANCH   4  18
HETATM   18  C   UNL     1     -43.925 -51.429  13.562  1.00  0.00     0.035 C 
HETATM   19  C   UNL     1     -43.550 -50.636  14.828  1.00  0.00     0.039 C 
HETATM   20  C   UNL     1     -43.619 -52.935  13.709  1.00  0.00     0.057 C 
HETATM   21  C   UNL     1     -44.242 -53.706  12.544  1.00  0.00     0.170 C 
HETATM   22  O   UNL     1     -45.657 -53.562  12.562  1.00  0.00    -0.391 OA
HETATM   23  C   UNL     1     -46.070 -52.217  12.350  1.00  0.00     0.170 C 
HETATM   24  C   UNL     1     -45.467 -51.291  13.394  1.00  0.00     0.057 C 
ENDBRANCH   4  18
TORSDOF 3
ENDMDL
MODEL 4
REMARK VINA RESULT:      -6.0      2.246      7.233
REMARK  3 active torsions:
REMARK  status: ('A' for Active; 'I' for Inactive)
REMARK    1  A    between atoms: C_5  and  C_19 
REMARK    2  A    between atoms: C_7  and  N_8 
REMARK       I    between atoms: N_8  and  C_9 
REMARK       I    between atoms: C_9  and  N_11 
REMARK    3  A    between atoms: N_11  and  C_12 
ROOT
HETATM    1  N   UNL     1     -42.146 -51.537  11.985  1.00  0.00    -0.293 N 
HETATM    2  C   UNL     1     -41.250 -50.608  12.574  1.00  0.00     0.322 C 
HETATM    3  O   UNL     1     -41.436 -50.169  13.689  1.00  0.00    -0.247 OA
HETATM    4  N   UNL     1     -40.200 -50.297  11.767  1.00  0.00    -0.334 N 
HETATM    5  H   UNL     1     -42.143 -51.712  10.986  1.00  0.00     0.172 HD
HETATM    6  H   UNL     1     -40.285 -50.492  10.780  1.00  0.00     0.165 HD
ENDROOT
BRANCH   1   7
HETATM    7  C   UNL     1     -43.037 -52.263  12.782  1.00  0.00     0.127 A 
HETATM    8  N   UNL     1     -42.845 -53.448  13.461  1.00  0.00    -0.281 N 
HETATM    9  C   UNL     1     -41.682 -54.301  13.434  1.00  0.00     0.179 C 
HETATM   10  N   UNL     1     -43.921 -53.824  14.196  1.00  0.00    -0.301 N 
HETATM   11  C   UNL     1     -44.818 -52.870  13.960  1.00  0.00     0.034 A 
ATOM     12  HN  UNL     1     -44.019 -54.647  14.790  1.00  0.00     0.187 HD
HETATM   13  C   UNL     1     -44.320 -51.881  13.103  1.00  0.00     0.077 A 
BRANCH  11  14
HETATM   14  C   UNL     1     -46.222 -52.769  14.529  1.00  0.00     0.037 C 
HETATM   15  C   UNL     1     -46.784 -51.322  14.590  1.00  0.00     0.011 C 
HETATM   16  C   UNL     1     -47.474 -51.728  15.905  1.00  0.00     0.001 C 
HETATM   17  C   UNL     1     -46.343 -52.762  16.075  1.00  0.00     0.011 C 
ENDBRANCH  11  14
ENDBRANCH   1   7
BRANCH   4  18
HETATM   18  C   UNL     1     -39.163 -49.308  12.164  1.00  0.00     0.035 C 
HETATM   19  C   UNL     1     -39.687 -47.906  11.803  1.00  0.00     0.039 C 
HETATM   20  C   UNL     1     -37.870 -49.660  11.398  1.00  0.00     0.057 C 
HETATM   21  C   UNL     1     -37.255 -50.935  11.978  1.00  0.00     0.170 C 
HETATM   22  O   UNL     1     -36.893 -50.730  13.338  1.00  0.00    -0.391 OA
HETATM   23  C   UNL     1     -38.021 -50.479  14.169  1.00  0.00     0.170 C 
HETATM   24  C   UNL     1     -38.800 -49.269  13.678  1.00  0.00     0.057 C 
ENDBRANCH   4  18
TORSDOF 3
ENDMDL
MODEL 5
REMARK VINA RESULT:      -6.0      2.244      3.183
REMARK  3 active torsions:
REMARK  status: ('A' for Active; 'I' for Inactive)
REMARK    1  A    between atoms: C_5  and  C_19 
REMARK    2  A    between atoms: C_7  and  N_8 
REMARK       I    between atoms: N_8  and  C_9 
REMARK       I    between atoms: C_9  and  N_11 
REMARK    3  A    between atoms: N_11  and  C_12 
ROOT
HETATM    1  N   UNL     1     -42.992 -49.884  13.621  1.00  0.00    -0.293 N 
HETATM    2  C   UNL     1     -44.145 -50.711  13.643  1.00  0.00     0.322 C 
HETATM    3  O   UNL     1     -44.931 -50.724  12.720  1.00  0.00    -0.247 OA
HETATM    4  N   UNL     1     -44.242 -51.458  14.775  1.00  0.00    -0.334 N 
HETATM    5  H   UNL     1     -42.476 -49.676  14.470  1.00  0.00     0.172 HD
HETATM    6  H   UNL     1     -43.705 -51.172  15.581  1.00  0.00     0.165 HD
ENDROOT
BRANCH   1   7
HETATM    7  C   UNL     1     -42.519 -49.362  12.413  1.00  0.00     0.127 A 
HETATM    8  N   UNL     1     -41.428 -49.739  11.659  1.00  0.00    -0.281 N 
HETATM    9  C   UNL     1     -40.425 -50.723  11.989  1.00  0.00     0.179 C 
HETATM   10  N   UNL     1     -41.314 -49.048  10.499  1.00  0.00    -0.301 N 
HETATM   11  C   UNL     1     -42.341 -48.201  10.529  1.00  0.00     0.034 A 
ATOM     12  HN  UNL     1     -40.606 -49.152   9.772  1.00  0.00     0.187 HD
HETATM   13  C   UNL     1     -43.118 -48.361  11.682  1.00  0.00     0.077 A 
BRANCH  11  14
HETATM   14  C   UNL     1     -42.717 -47.176   9.476  1.00  0.00     0.037 C 
HETATM   15  C   UNL     1     -42.956 -45.745  10.033  1.00  0.00     0.011 C 
HETATM   16  C   UNL     1     -44.068 -45.603   8.978  1.00  0.00     0.001 C 
HETATM   17  C   UNL     1     -44.207 -47.137   9.048  1.00  0.00     0.011 C 
ENDBRANCH  11  14
ENDBRANCH   1   7
BRANCH   4  18
HETATM   18  C   UNL     1     -45.395 -52.362  15.030  1.00  0.00     0.035 C 
HETATM   19  C   UNL     1     -46.632 -51.483  15.298  1.00  0.00     0.039 C 
HETATM   20  C   UNL     1     -45.035 -53.242  16.245  1.00  0.00     0.057 C 
HETATM   21  C   UNL     1     -43.976 -54.271  15.844  1.00  0.00     0.170 C 
HETATM   22  O   UNL     1     -44.490 -55.136  14.838  1.00  0.00    -0.391 OA
HETATM   23  C   UNL     1     -44.784 -54.448  13.628  1.00  0.00     0.170 C 
HETATM   24  C   UNL     1     -45.780 -53.325  13.867  1.00  0.00     0.057 C 
ENDBRANCH   4  18
TORSDOF 3
ENDMDL
MODEL 6
REMARK VINA RESULT:      -5.8      2.548      3.857
REMARK  3 active torsions:
REMARK  status: ('A' for Active; 'I' for Inactive)
REMARK    1  A    between atoms: C_5  and  C_19 
REMARK    2  A    between atoms: C_7  and  N_8 
REMARK       I    between atoms: N_8  and  C_9 
REMARK       I    between atoms: C_9  and  N_11 
REMARK    3  A    between atoms: N_11  and  C_12 
ROOT
HETATM    1  N   UNL     1     -42.098 -50.038  13.217  1.00  0.00    -0.293 N 
HETATM    2  C   UNL     1     -41.967 -51.446  13.100  1.00  0.00     0.322 C 
HETATM    3  O   UNL     1     -42.012 -51.998  12.021  1.00  0.00    -0.247 OA
HETATM    4  N   UNL     1     -41.783 -52.065  14.297  1.00  0.00    -0.334 N 
HETATM    5  H   UNL     1     -42.313 -49.601  14.107  1.00  0.00     0.172 HD
HETATM    6  H   UNL     1     -42.037 -51.562  15.136  1.00  0.00     0.165 HD
ENDROOT
BRANCH   1   7
HETATM    7  C   UNL     1     -41.898 -49.214  12.105  1.00  0.00     0.127 A 
HETATM    8  N   UNL     1     -40.724 -48.854  11.477  1.00  0.00    -0.281 N 
HETATM    9  C   UNL     1     -39.375 -49.165  11.884  1.00  0.00     0.179 C 
HETATM   10  N   UNL     1     -40.919 -48.089  10.375  1.00  0.00    -0.301 N 
HETATM   11  C   UNL     1     -42.241 -47.945  10.316  1.00  0.00     0.034 A 
ATOM     12  HN  UNL     1     -40.216 -47.712   9.739  1.00  0.00     0.187 HD
HETATM   13  C   UNL     1     -42.890 -48.626  11.353  1.00  0.00     0.077 A 
BRANCH  11  14
HETATM   14  C   UNL     1     -43.035 -47.179   9.274  1.00  0.00     0.037 C 
HETATM   15  C   UNL     1     -43.356 -45.710   9.667  1.00  0.00     0.011 C 
HETATM   16  C   UNL     1     -44.708 -45.896   8.954  1.00  0.00     0.001 C 
HETATM   17  C   UNL     1     -44.571 -47.398   9.277  1.00  0.00     0.011 C 
ENDBRANCH  11  14
ENDBRANCH   1   7
BRANCH   4  18
HETATM   18  C   UNL     1     -41.667 -53.543  14.414  1.00  0.00     0.035 C 
HETATM   19  C   UNL     1     -43.003 -54.157  13.956  1.00  0.00     0.039 C 
HETATM   20  C   UNL     1     -41.355 -53.867  15.891  1.00  0.00     0.057 C 
HETATM   21  C   UNL     1     -39.916 -53.463  16.218  1.00  0.00     0.170 C 
HETATM   22  O   UNL     1     -39.005 -54.212  15.423  1.00  0.00    -0.391 OA
HETATM   23  C   UNL     1     -39.138 -53.932  14.034  1.00  0.00     0.170 C 
HETATM   24  C   UNL     1     -40.554 -54.212  13.555  1.00  0.00     0.057 C 
ENDBRANCH   4  18
TORSDOF 3
ENDMDL
MODEL 7
REMARK VINA RESULT:      -5.8      2.384      2.904
REMARK  3 active torsions:
REMARK  status: ('A' for Active; 'I' for Inactive)
REMARK    1  A    between atoms: C_5  and  C_19 
REMARK    2  A    between atoms: C_7  and  N_8 
REMARK       I    between atoms: N_8  and  C_9 
REMARK       I    between atoms: C_9  and  N_11 
REMARK    3  A    between atoms: N_11  and  C_12 
ROOT
HETATM    1  N   UNL     1     -42.187 -50.165  13.191  1.00  0.00    -0.293 N 
HETATM    2  C   UNL     1     -42.112 -51.574  13.037  1.00  0.00     0.322 C 
HETATM    3  O   UNL     1     -42.177 -52.096  11.945  1.00  0.00    -0.247 OA
HETATM    4  N   UNL     1     -41.956 -52.230  14.218  1.00  0.00    -0.334 N 
HETATM    5  H   UNL     1     -42.387 -49.743  14.091  1.00  0.00     0.172 HD
HETATM    6  H   UNL     1     -42.192 -51.740  15.069  1.00  0.00     0.165 HD
ENDROOT
BRANCH   1   7
HETATM    7  C   UNL     1     -41.951 -49.322  12.100  1.00  0.00     0.127 A 
HETATM    8  N   UNL     1     -40.759 -48.973  11.500  1.00  0.00    -0.281 N 
HETATM    9  C   UNL     1     -39.424 -49.322  11.922  1.00  0.00     0.179 C 
HETATM   10  N   UNL     1     -40.920 -48.180  10.412  1.00  0.00    -0.301 N 
HETATM   11  C   UNL     1     -42.238 -48.007  10.335  1.00  0.00     0.034 A 
ATOM     12  HN  UNL     1     -40.199 -47.805   9.796  1.00  0.00     0.187 HD
HETATM   13  C   UNL     1     -42.918 -48.696  11.346  1.00  0.00     0.077 A 
BRANCH  11  14
HETATM   14  C   UNL     1     -42.998 -47.202   9.298  1.00  0.00     0.037 C 
HETATM   15  C   UNL     1     -43.289 -45.733   9.715  1.00  0.00     0.011 C 
HETATM   16  C   UNL     1     -44.634 -45.872   8.980  1.00  0.00     0.001 C 
HETATM   17  C   UNL     1     -44.538 -47.382   9.275  1.00  0.00     0.011 C 
ENDBRANCH  11  14
ENDBRANCH   1   7
BRANCH   4  18
HETATM   18  C   UNL     1     -41.900 -53.714  14.298  1.00  0.00     0.035 C 
HETATM   19  C   UNL     1     -40.696 -54.184  13.461  1.00  0.00     0.039 C 
HETATM   20  C   UNL     1     -43.236 -54.259  13.749  1.00  0.00     0.057 C 
HETATM   21  C   UNL     1     -44.358 -53.983  14.752  1.00  0.00     0.170 C 
HETATM   22  O   UNL     1     -44.100 -54.662  15.975  1.00  0.00    -0.391 OA
HETATM   23  C   UNL     1     -42.928 -54.183  16.625  1.00  0.00     0.170 C 
HETATM   24  C   UNL     1     -41.712 -54.316  15.722  1.00  0.00     0.057 C 
ENDBRANCH   4  18
TORSDOF 3
ENDMDL
MODEL 8
REMARK VINA RESULT:      -5.7      4.189      7.957
REMARK  3 active torsions:
REMARK  status: ('A' for Active; 'I' for Inactive)
REMARK    1  A    between atoms: C_5  and  C_19 
REMARK    2  A    between atoms: C_7  and  N_8 
REMARK       I    between atoms: N_8  and  C_9 
REMARK       I    between atoms: C_9  and  N_11 
REMARK    3  A    between atoms: N_11  and  C_12 
ROOT
HETATM    1  N   UNL     1     -40.736 -45.603  10.580  1.00  0.00    -0.293 N 
HETATM    2  C   UNL     1     -41.491 -44.749  11.426  1.00  0.00     0.322 C 
HETATM    3  O   UNL     1     -42.394 -45.175  12.113  1.00  0.00    -0.247 OA
HETATM    4  N   UNL     1     -41.081 -43.453  11.374  1.00  0.00    -0.334 N 
HETATM    5  H   UNL     1     -40.164 -45.231   9.830  1.00  0.00     0.172 HD
HETATM    6  H   UNL     1     -40.525 -43.161  10.583  1.00  0.00     0.165 HD
ENDROOT
BRANCH   1   7
HETATM    7  C   UNL     1     -40.739 -46.986  10.788  1.00  0.00     0.127 A 
HETATM    8  N   UNL     1     -41.608 -47.945  10.312  1.00  0.00    -0.281 N 
HETATM    9  C   UNL     1     -42.813 -47.741   9.545  1.00  0.00     0.179 C 
HETATM   10  N   UNL     1     -41.258 -49.207  10.665  1.00  0.00    -0.301 N 
HETATM   11  C   UNL     1     -40.159 -49.041  11.397  1.00  0.00     0.034 A 
ATOM     12  HN  UNL     1     -41.729 -50.079  10.425  1.00  0.00     0.187 HD
HETATM   13  C   UNL     1     -39.792 -47.693  11.495  1.00  0.00     0.077 A 
BRANCH  11  14
HETATM   14  C   UNL     1     -39.324 -50.122  12.058  1.00  0.00     0.037 C 
HETATM   15  C   UNL     1     -38.890 -49.795  13.514  1.00  0.00     0.011 C 
HETATM   16  C   UNL     1     -37.566 -50.513  13.199  1.00  0.00     0.001 C 
HETATM   17  C   UNL     1     -37.809 -50.126  11.726  1.00  0.00     0.011 C 
ENDBRANCH  11  14
ENDBRANCH   1   7
BRANCH   4  18
HETATM   18  C   UNL     1     -41.760 -42.377  12.145  1.00  0.00     0.035 C 
HETATM   19  C   UNL     1     -43.114 -42.095  11.466  1.00  0.00     0.039 C 
HETATM   20  C   UNL     1     -40.835 -41.142  12.131  1.00  0.00     0.057 C 
HETATM   21  C   UNL     1     -39.625 -41.390  13.034  1.00  0.00     0.170 C 
HETATM   22  O   UNL     1     -40.049 -41.581  14.379  1.00  0.00    -0.391 OA
HETATM   23  C   UNL     1     -40.848 -42.749  14.536  1.00  0.00     0.170 C 
HETATM   24  C   UNL     1     -42.072 -42.697  13.637  1.00  0.00     0.057 C 
ENDBRANCH   4  18
TORSDOF 3
ENDMDL
MODEL 9
REMARK VINA RESULT:      -5.7      1.546      2.188
REMARK  3 active torsions:
REMARK  status: ('A' for Active; 'I' for Inactive)
REMARK    1  A    between atoms: C_5  and  C_19 
REMARK    2  A    between atoms: C_7  and  N_8 
REMARK       I    between atoms: N_8  and  C_9 
REMARK       I    between atoms: C_9  and  N_11 
REMARK    3  A    between atoms: N_11  and  C_12 
ROOT
HETATM    1  N   UNL     1     -41.709 -49.531  11.117  1.00  0.00    -0.293 N 
HETATM    2  C   UNL     1     -42.010 -50.234  12.313  1.00  0.00     0.322 C 
HETATM    3  O   UNL     1     -41.877 -49.717  13.401  1.00  0.00    -0.247 OA
HETATM    4  N   UNL     1     -42.453 -51.500  12.088  1.00  0.00    -0.334 N 
HETATM    5  H   UNL     1     -41.573 -50.020  10.239  1.00  0.00     0.172 HD
HETATM    6  H   UNL     1     -42.263 -51.918  11.189  1.00  0.00     0.165 HD
ENDROOT
BRANCH   1   7
HETATM    7  C   UNL     1     -41.627 -48.135  11.119  1.00  0.00     0.127 A 
HETATM    8  N   UNL     1     -42.615 -47.196  10.913  1.00  0.00    -0.281 N 
HETATM    9  C   UNL     1     -43.988 -47.428  10.537  1.00  0.00     0.179 C 
HETATM   10  N   UNL     1     -42.180 -45.920  11.060  1.00  0.00    -0.301 N 
HETATM   11  C   UNL     1     -40.886 -46.054  11.344  1.00  0.00     0.034 A 
ATOM     12  HN  UNL     1     -42.719 -45.058  10.973  1.00  0.00     0.187 HD
HETATM   13  C   UNL     1     -40.498 -47.398  11.401  1.00  0.00     0.077 A 
BRANCH  11  14
HETATM   14  C   UNL     1     -39.886 -44.946  11.615  1.00  0.00     0.037 C 
HETATM   15  C   UNL     1     -39.804 -44.510  13.105  1.00  0.00     0.011 C 
HETATM   16  C   UNL     1     -39.580 -43.075  12.592  1.00  0.00     0.001 C 
HETATM   17  C   UNL     1     -40.365 -43.498  11.334  1.00  0.00     0.011 C 
ENDBRANCH  11  14
ENDBRANCH   1   7
BRANCH   4  18
HETATM   18  C   UNL     1     -42.784 -52.431  13.200  1.00  0.00     0.035 C 
HETATM   19  C   UNL     1     -41.465 -53.049  13.704  1.00  0.00     0.039 C 
HETATM   20  C   UNL     1     -43.747 -53.499  12.639  1.00  0.00     0.057 C 
HETATM   21  C   UNL     1     -45.124 -52.878  12.396  1.00  0.00     0.170 C 
HETATM   22  O   UNL     1     -45.677 -52.419  13.624  1.00  0.00    -0.391 OA
HETATM   23  C   UNL     1     -44.916 -51.364  14.202  1.00  0.00     0.170 C 
HETATM   24  C   UNL     1     -43.478 -51.797  14.441  1.00  0.00     0.057 C 
ENDBRANCH   4  18
TORSDOF 3
ENDMDL
