MODEL 1
REMARK VINA RESULT:      -5.7      0.000      0.000
REMARK  5 active torsions:
REMARK  status: ('A' for Active; 'I' for Inactive)
REMARK    1  A    between atoms: C_2  and  C_3 
REMARK    2  A    between atoms: C_2  and  N_10 
REMARK    3  A    between atoms: C_3  and  N_4 
REMARK       I    between atoms: N_10  and  C_11 
REMARK    4  A    between atoms: C_11  and  C_13 
REMARK    5  A    between atoms: C_13  and  N_14 
ROOT
HETATM    1  N   UNL     1     -41.531 -54.606  14.740  1.00  0.00    -0.354 N 
HETATM    2  C   UNL     1     -42.746 -54.430  15.363  1.00  0.00     0.235 C 
HETATM    3  O   UNL     1     -42.865 -53.892  16.464  1.00  0.00    -0.272 OA
HETATM    4  H   UNL     1     -41.502 -55.241  13.942  1.00  0.00     0.163 HD
ENDROOT
BRANCH   1   5
HETATM    5  C   UNL     1     -40.288 -54.092  15.324  1.00  0.00     0.098 C 
HETATM    6  C   UNL     1     -39.385 -55.254  15.733  1.00  0.00     0.034 C 
BRANCH   5   7
HETATM    7  C   UNL     1     -39.575 -53.123  14.352  1.00  0.00     0.153 C 
BRANCH   7   8
HETATM    8  N   UNL     1     -40.442 -52.547  13.345  1.00  0.00    -0.350 N 
HETATM    9  C   UNL     1     -41.075 -51.335  13.410  1.00  0.00     0.108 A 
HETATM   10  C   UNL     1     -41.749 -51.222  12.218  1.00  0.00     0.106 A 
HETATM   11  N   UNL     1     -41.535 -52.326  11.433  1.00  0.00    -0.361 N 
HETATM   12  C   UNL     1     -40.730 -53.096  12.126  1.00  0.00     0.182 A 
ATOM     13  HN  UNL     1     -41.921 -52.510  10.507  1.00  0.00     0.166 HD
ENDBRANCH   7   8
ENDBRANCH   5   7
ENDBRANCH   1   5
BRANCH   2  14
HETATM   14  C   UNL     1     -43.956 -54.947  14.584  1.00  0.00     0.228 C 
BRANCH  14  15
HETATM   15  N   UNL     1     -44.999 -53.966  14.301  1.00  0.00    -0.343 N 
HETATM   16  C   UNL     1     -46.139 -53.887  15.212  1.00  0.00     0.126 C 
HETATM   17  C   UNL     1     -46.208 -52.553  15.940  1.00  0.00     0.020 C 
HETATM   18  C   UNL     1     -46.910 -51.451  15.147  1.00  0.00     0.002 C 
HETATM   19  C   UNL     1     -46.744 -51.505  13.630  1.00  0.00     0.009 C 
HETATM   20  C   UNL     1     -45.325 -51.789  13.170  1.00  0.00     0.103 C 
HETATM   21  C   UNL     1     -44.890 -53.246  13.130  1.00  0.00     0.220 C 
HETATM   22  O   UNL     1     -44.272 -53.694  12.160  1.00  0.00    -0.273 OA
ENDBRANCH  14  15
ENDBRANCH   2  14
TORSDOF 5
ENDMDL
MODEL 2
REMARK VINA RESULT:      -5.5      2.596      3.700
REMARK  5 active torsions:
REMARK  status: ('A' for Active; 'I' for Inactive)
REMARK    1  A    between atoms: C_2  and  C_3 
REMARK    2  A    between atoms: C_2  and  N_10 
REMARK    3  A    between atoms: C_3  and  N_4 
REMARK       I    between atoms: N_10  and  C_11 
REMARK    4  A    between atoms: C_11  and  C_13 
REMARK    5  A    between atoms: C_13  and  N_14 
ROOT
HETATM    1  N   UNL     1     -42.797 -50.987  12.520  1.00  0.00    -0.354 N 
HETATM    2  C   UNL     1     -42.379 -52.279  12.293  1.00  0.00     0.235 C 
HETATM    3  O   UNL     1     -41.346 -52.553  11.681  1.00  0.00    -0.272 OA
HETATM    4  H   UNL     1     -43.756 -50.856  12.843  1.00  0.00     0.163 HD
ENDROOT
BRANCH   1   5
HETATM    5  C   UNL     1     -41.991 -49.835  12.104  1.00  0.00     0.098 C 
HETATM    6  C   UNL     1     -42.875 -48.594  11.992  1.00  0.00     0.034 C 
BRANCH   5   7
HETATM    7  C   UNL     1     -40.802 -49.610  13.067  1.00  0.00     0.153 C 
BRANCH   7   8
HETATM    8  N   UNL     1     -39.508 -49.921  12.495  1.00  0.00    -0.350 N 
HETATM    9  C   UNL     1     -38.505 -50.640  13.087  1.00  0.00     0.108 A 
HETATM   10  C   UNL     1     -37.501 -50.688  12.150  1.00  0.00     0.106 A 
HETATM   11  N   UNL     1     -37.872 -50.025  11.008  1.00  0.00    -0.361 N 
HETATM   12  C   UNL     1     -39.089 -49.592  11.236  1.00  0.00     0.182 A 
ATOM     13  HN  UNL     1     -37.318 -49.896  10.162  1.00  0.00     0.166 HD
ENDBRANCH   7   8
ENDBRANCH   5   7
ENDBRANCH   1   5
BRANCH   2  14
HETATM   14  C   UNL     1     -43.289 -53.366  12.863  1.00  0.00     0.228 C 
BRANCH  14  15
HETATM   15  N   UNL     1     -44.404 -52.901  13.682  1.00  0.00    -0.343 N 
HETATM   16  C   UNL     1     -44.244 -52.901  15.134  1.00  0.00     0.126 C 
HETATM   17  C   UNL     1     -44.281 -51.498  15.721  1.00  0.00     0.020 C 
HETATM   18  C   UNL     1     -45.692 -50.976  15.991  1.00  0.00     0.002 C 
HETATM   19  C   UNL     1     -46.778 -51.448  15.026  1.00  0.00     0.009 C 
HETATM   20  C   UNL     1     -46.372 -51.404  13.564  1.00  0.00     0.103 C 
HETATM   21  C   UNL     1     -45.580 -52.587  13.030  1.00  0.00     0.220 C 
HETATM   22  O   UNL     1     -45.863 -53.100  11.944  1.00  0.00    -0.273 OA
ENDBRANCH  14  15
ENDBRANCH   2  14
TORSDOF 5
ENDMDL
MODEL 3
REMARK VINA RESULT:      -5.1      2.994      4.109
REMARK  5 active torsions:
REMARK  status: ('A' for Active; 'I' for Inactive)
REMARK    1  A    between atoms: C_2  and  C_3 
REMARK    2  A    between atoms: C_2  and  N_10 
REMARK    3  A    between atoms: C_3  and  N_4 
REMARK       I    between atoms: N_10  and  C_11 
REMARK    4  A    between atoms: C_11  and  C_13 
REMARK    5  A    between atoms: C_13  and  N_14 
ROOT
HETATM    1  N   UNL     1     -41.249 -50.928  12.893  1.00  0.00    -0.354 N 
HETATM    2  C   UNL     1     -42.623 -50.873  12.966  1.00  0.00     0.235 C 
HETATM    3  O   UNL     1     -43.257 -49.821  12.889  1.00  0.00    -0.272 OA
HETATM    4  H   UNL     1     -40.800 -51.800  13.176  1.00  0.00     0.163 HD
ENDROOT
BRANCH   1   5
HETATM    5  C   UNL     1     -40.444 -49.728  12.643  1.00  0.00     0.098 C 
HETATM    6  C   UNL     1     -39.050 -49.901  13.243  1.00  0.00     0.034 C 
BRANCH   5   7
HETATM    7  C   UNL     1     -40.385 -49.402  11.133  1.00  0.00     0.153 C 
BRANCH   7   8
HETATM    8  N   UNL     1     -40.997 -48.138  10.773  1.00  0.00    -0.350 N 
HETATM    9  C   UNL     1     -40.552 -46.890  11.115  1.00  0.00     0.108 A 
HETATM   10  C   UNL     1     -41.438 -46.023  10.522  1.00  0.00     0.106 A 
HETATM   11  N   UNL     1     -42.400 -46.711   9.828  1.00  0.00    -0.361 N 
HETATM   12  C   UNL     1     -42.098 -47.979   9.979  1.00  0.00     0.182 A 
ATOM     13  HN  UNL     1     -43.183 -46.320   9.305  1.00  0.00     0.166 HD
ENDBRANCH   7   8
ENDBRANCH   5   7
ENDBRANCH   1   5
BRANCH   2  14
HETATM   14  C   UNL     1     -43.318 -52.221  13.145  1.00  0.00     0.228 C 
BRANCH  14  15
HETATM   15  N   UNL     1     -44.505 -52.221  13.994  1.00  0.00    -0.343 N 
HETATM   16  C   UNL     1     -44.319 -52.234  15.443  1.00  0.00     0.126 C 
HETATM   17  C   UNL     1     -44.833 -50.964  16.106  1.00  0.00     0.020 C 
HETATM   18  C   UNL     1     -46.330 -50.988  16.413  1.00  0.00     0.002 C 
HETATM   19  C   UNL     1     -47.204 -51.766  15.430  1.00  0.00     0.009 C 
HETATM   20  C   UNL     1     -46.877 -51.510  13.970  1.00  0.00     0.103 C 
HETATM   21  C   UNL     1     -45.732 -52.311  13.368  1.00  0.00     0.220 C 
HETATM   22  O   UNL     1     -45.844 -52.838  12.258  1.00  0.00    -0.273 OA
ENDBRANCH  14  15
ENDBRANCH   2  14
TORSDOF 5
ENDMDL
MODEL 4
REMARK VINA RESULT:      -5.1      2.565      3.889
REMARK  5 active torsions:
REMARK  status: ('A' for Active; 'I' for Inactive)
REMARK    1  A    between atoms: C_2  and  C_3 
REMARK    2  A    between atoms: C_2  and  N_10 
REMARK    3  A    between atoms: C_3  and  N_4 
REMARK       I    between atoms: N_10  and  C_11 
REMARK    4  A    between atoms: C_11  and  C_13 
REMARK    5  A    between atoms: C_13  and  N_14 
ROOT
HETATM    1  N   UNL     1     -38.473 -51.267  14.401  1.00  0.00    -0.354 N 
HETATM    2  C   UNL     1     -39.508 -51.981  14.962  1.00  0.00     0.235 C 
HETATM    3  O   UNL     1     -40.237 -51.526  15.844  1.00  0.00    -0.272 OA
HETATM    4  H   UNL     1     -37.797 -51.786  13.838  1.00  0.00     0.163 HD
ENDROOT
BRANCH   1   5
HETATM    5  C   UNL     1     -38.212 -49.873  14.770  1.00  0.00     0.098 C 
HETATM    6  C   UNL     1     -36.882 -49.770  15.514  1.00  0.00     0.034 C 
BRANCH   5   7
HETATM    7  C   UNL     1     -38.251 -48.951  13.529  1.00  0.00     0.153 C 
BRANCH   7   8
HETATM    8  N   UNL     1     -39.304 -49.268  12.585  1.00  0.00    -0.350 N 
HETATM    9  C   UNL     1     -40.644 -49.044  12.752  1.00  0.00     0.108 A 
HETATM   10  C   UNL     1     -41.224 -49.482  11.586  1.00  0.00     0.106 A 
HETATM   11  N   UNL     1     -40.274 -49.956  10.719  1.00  0.00    -0.361 N 
HETATM   12  C   UNL     1     -39.127 -49.797  11.337  1.00  0.00     0.182 A 
ATOM     13  HN  UNL     1     -40.426 -50.350   9.791  1.00  0.00     0.166 HD
ENDBRANCH   7   8
ENDBRANCH   5   7
ENDBRANCH   1   5
BRANCH   2  14
HETATM   14  C   UNL     1     -39.700 -53.392  14.407  1.00  0.00     0.228 C 
BRANCH  14  15
HETATM   15  N   UNL     1     -41.037 -53.708  13.914  1.00  0.00    -0.343 N 
HETATM   16  C   UNL     1     -41.867 -54.617  14.700  1.00  0.00     0.126 C 
HETATM   17  C   UNL     1     -43.111 -53.936  15.252  1.00  0.00     0.020 C 
HETATM   18  C   UNL     1     -44.282 -53.895  14.272  1.00  0.00     0.002 C 
HETATM   19  C   UNL     1     -43.917 -53.774  12.794  1.00  0.00     0.009 C 
HETATM   20  C   UNL     1     -42.833 -52.752  12.503  1.00  0.00     0.103 C 
HETATM   21  C   UNL     1     -41.391 -53.204  12.679  1.00  0.00     0.220 C 
HETATM   22  O   UNL     1     -40.536 -52.933  11.832  1.00  0.00    -0.273 OA
ENDBRANCH  14  15
ENDBRANCH   2  14
TORSDOF 5
ENDMDL
MODEL 5
REMARK VINA RESULT:      -5.0      3.622      5.965
REMARK  5 active torsions:
REMARK  status: ('A' for Active; 'I' for Inactive)
REMARK    1  A    between atoms: C_2  and  C_3 
REMARK    2  A    between atoms: C_2  and  N_10 
REMARK    3  A    between atoms: C_3  and  N_4 
REMARK       I    between atoms: N_10  and  C_11 
REMARK    4  A    between atoms: C_11  and  C_13 
REMARK    5  A    between atoms: C_13  and  N_14 
ROOT
HETATM    1  N   UNL     1     -42.160 -50.338  12.097  1.00  0.00    -0.354 N 
HETATM    2  C   UNL     1     -43.027 -51.253  12.651  1.00  0.00     0.235 C 
HETATM    3  O   UNL     1     -44.103 -50.936  13.158  1.00  0.00    -0.272 OA
HETATM    4  H   UNL     1     -41.211 -50.656  11.895  1.00  0.00     0.163 HD
ENDROOT
BRANCH   1   5
HETATM    5  C   UNL     1     -42.499 -48.914  12.009  1.00  0.00     0.098 C 
HETATM    6  C   UNL     1     -41.991 -48.179  13.248  1.00  0.00     0.034 C 
BRANCH   5   7
HETATM    7  C   UNL     1     -41.951 -48.291  10.704  1.00  0.00     0.153 C 
BRANCH   7   8
HETATM    8  N   UNL     1     -42.832 -47.316  10.095  1.00  0.00    -0.350 N 
HETATM    9  C   UNL     1     -43.869 -47.575   9.240  1.00  0.00     0.108 A 
HETATM   10  C   UNL     1     -44.416 -46.345   8.963  1.00  0.00     0.106 A 
HETATM   11  N   UNL     1     -43.744 -45.354   9.630  1.00  0.00    -0.361 N 
HETATM   12  C   UNL     1     -42.811 -45.967  10.319  1.00  0.00     0.182 A 
ATOM     13  HN  UNL     1     -43.931 -44.352   9.598  1.00  0.00     0.166 HD
ENDBRANCH   7   8
ENDBRANCH   5   7
ENDBRANCH   1   5
BRANCH   2  14
HETATM   14  C   UNL     1     -42.563 -52.708  12.589  1.00  0.00     0.228 C 
BRANCH  14  15
HETATM   15  N   UNL     1     -41.673 -53.141  13.661  1.00  0.00    -0.343 N 
HETATM   16  C   UNL     1     -42.250 -53.395  14.979  1.00  0.00     0.126 C 
HETATM   17  C   UNL     1     -42.137 -54.855  15.391  1.00  0.00     0.020 C 
HETATM   18  C   UNL     1     -40.799 -55.217  16.033  1.00  0.00     0.002 C 
HETATM   19  C   UNL     1     -39.579 -54.455  15.518  1.00  0.00     0.009 C 
HETATM   20  C   UNL     1     -39.523 -54.320  14.007  1.00  0.00     0.103 C 
HETATM   21  C   UNL     1     -40.322 -53.185  13.384  1.00  0.00     0.220 C 
HETATM   22  O   UNL     1     -39.828 -52.473  12.505  1.00  0.00    -0.273 OA
ENDBRANCH  14  15
ENDBRANCH   2  14
TORSDOF 5
ENDMDL
MODEL 6
REMARK VINA RESULT:      -4.9      3.190      5.024
REMARK  5 active torsions:
REMARK  status: ('A' for Active; 'I' for Inactive)
REMARK    1  A    between atoms: C_2  and  C_3 
REMARK    2  A    between atoms: C_2  and  N_10 
REMARK    3  A    between atoms: C_3  and  N_4 
REMARK       I    between atoms: N_10  and  C_11 
REMARK    4  A    between atoms: C_11  and  C_13 
REMARK    5  A    between atoms: C_13  and  N_14 
ROOT
HETATM    1  N   UNL     1     -40.798 -50.526  12.620  1.00  0.00    -0.354 N 
HETATM    2  C   UNL     1     -42.066 -51.059  12.555  1.00  0.00     0.235 C 
HETATM    3  O   UNL     1     -43.070 -50.449  12.924  1.00  0.00    -0.272 OA
HETATM    4  H   UNL     1     -40.014 -51.168  12.495  1.00  0.00     0.163 HD
ENDROOT
BRANCH   1   5
HETATM    5  C   UNL     1     -40.565 -49.151  13.071  1.00  0.00     0.098 C 
HETATM    6  C   UNL     1     -39.964 -49.158  14.476  1.00  0.00     0.034 C 
BRANCH   5   7
HETATM    7  C   UNL     1     -39.677 -48.378  12.068  1.00  0.00     0.153 C 
BRANCH   7   8
HETATM    8  N   UNL     1     -40.383 -47.372  11.302  1.00  0.00    -0.350 N 
HETATM    9  C   UNL     1     -40.032 -46.056  11.163  1.00  0.00     0.108 A 
HETATM   10  C   UNL     1     -40.983 -45.521  10.328  1.00  0.00     0.106 A 
HETATM   11  N   UNL     1     -41.893 -46.476   9.954  1.00  0.00    -0.361 N 
HETATM   12  C   UNL     1     -41.496 -47.583  10.537  1.00  0.00     0.182 A 
ATOM     13  HN  UNL     1     -42.705 -46.352   9.351  1.00  0.00     0.166 HD
ENDBRANCH   7   8
ENDBRANCH   5   7
ENDBRANCH   1   5
BRANCH   2  14
HETATM   14  C   UNL     1     -42.149 -52.473  11.982  1.00  0.00     0.228 C 
BRANCH  14  15
HETATM   15  N   UNL     1     -42.278 -53.551  12.957  1.00  0.00    -0.343 N 
HETATM   16  C   UNL     1     -41.057 -54.122  13.522  1.00  0.00     0.126 C 
HETATM   17  C   UNL     1     -40.939 -53.873  15.019  1.00  0.00     0.020 C 
HETATM   18  C   UNL     1     -41.681 -54.896  15.878  1.00  0.00     0.002 C 
HETATM   19  C   UNL     1     -42.964 -55.469  15.282  1.00  0.00     0.009 C 
HETATM   20  C   UNL     1     -43.868 -54.433  14.638  1.00  0.00     0.103 C 
HETATM   21  C   UNL     1     -43.548 -54.031  13.206  1.00  0.00     0.220 C 
HETATM   22  O   UNL     1     -44.442 -53.937  12.361  1.00  0.00    -0.273 OA
ENDBRANCH  14  15
ENDBRANCH   2  14
TORSDOF 5
ENDMDL
MODEL 7
REMARK VINA RESULT:      -4.9      2.255      2.712
REMARK  5 active torsions:
REMARK  status: ('A' for Active; 'I' for Inactive)
REMARK    1  A    between atoms: C_2  and  C_3 
REMARK    2  A    between atoms: C_2  and  N_10 
REMARK    3  A    between atoms: C_3  and  N_4 
REMARK       I    between atoms: N_10  and  C_11 
REMARK    4  A    between atoms: C_11  and  C_13 
REMARK    5  A    between atoms: C_13  and  N_14 
ROOT
HETATM    1  N   UNL     1     -40.666 -52.451  13.510  1.00  0.00    -0.354 N 
HETATM    2  C   UNL     1     -41.886 -53.088  13.562  1.00  0.00     0.235 C 
HETATM    3  O   UNL     1     -42.154 -53.956  14.393  1.00  0.00    -0.272 OA
HETATM    4  H   UNL     1     -40.459 -51.907  12.672  1.00  0.00     0.163 HD
ENDROOT
BRANCH   1   5
HETATM    5  C   UNL     1     -39.617 -52.716  14.499  1.00  0.00     0.098 C 
HETATM    6  C   UNL     1     -38.907 -54.027  14.167  1.00  0.00     0.034 C 
BRANCH   5   7
HETATM    7  C   UNL     1     -38.627 -51.532  14.593  1.00  0.00     0.153 C 
BRANCH   7   8
HETATM    8  N   UNL     1     -38.355 -50.883  13.327  1.00  0.00    -0.350 N 
HETATM    9  C   UNL     1     -38.989 -49.779  12.823  1.00  0.00     0.108 A 
HETATM   10  C   UNL     1     -38.366 -49.529  11.624  1.00  0.00     0.106 A 
HETATM   11  N   UNL     1     -37.371 -50.445  11.393  1.00  0.00    -0.361 N 
HETATM   12  C   UNL     1     -37.374 -51.233  12.442  1.00  0.00     0.182 A 
ATOM     13  HN  UNL     1     -36.760 -50.500  10.579  1.00  0.00     0.166 HD
ENDBRANCH   7   8
ENDBRANCH   5   7
ENDBRANCH   1   5
BRANCH   2  14
HETATM   14  C   UNL     1     -42.900 -52.637  12.513  1.00  0.00     0.228 C 
BRANCH  14  15
HETATM   15  N   UNL     1     -44.234 -52.314  13.011  1.00  0.00    -0.343 N 
HETATM   16  C   UNL     1     -45.310 -53.275  12.779  1.00  0.00     0.126 C 
HETATM   17  C   UNL     1     -45.850 -53.864  14.074  1.00  0.00     0.020 C 
HETATM   18  C   UNL     1     -46.918 -53.004  14.748  1.00  0.00     0.002 C 
HETATM   19  C   UNL     1     -46.766 -51.493  14.582  1.00  0.00     0.009 C 
HETATM   20  C   UNL     1     -45.349 -50.985  14.777  1.00  0.00     0.103 C 
HETATM   21  C   UNL     1     -44.413 -51.070  13.581  1.00  0.00     0.220 C 
HETATM   22  O   UNL     1     -43.688 -50.119  13.276  1.00  0.00    -0.273 OA
ENDBRANCH  14  15
ENDBRANCH   2  14
TORSDOF 5
ENDMDL
MODEL 8
REMARK VINA RESULT:      -4.8      1.878      3.082
REMARK  5 active torsions:
REMARK  status: ('A' for Active; 'I' for Inactive)
REMARK    1  A    between atoms: C_2  and  C_3 
REMARK    2  A    between atoms: C_2  and  N_10 
REMARK    3  A    between atoms: C_3  and  N_4 
REMARK       I    between atoms: N_10  and  C_11 
REMARK    4  A    between atoms: C_11  and  C_13 
REMARK    5  A    between atoms: C_13  and  N_14 
ROOT
HETATM    1  N   UNL     1     -41.579 -52.009  14.032  1.00  0.00    -0.354 N 
HETATM    2  C   UNL     1     -42.276 -52.634  13.023  1.00  0.00     0.235 C 
HETATM    3  O   UNL     1     -42.077 -52.407  11.829  1.00  0.00    -0.272 OA
HETATM    4  H   UNL     1     -41.948 -52.096  14.980  1.00  0.00     0.163 HD
ENDROOT
BRANCH   1   5
HETATM    5  C   UNL     1     -40.488 -51.072  13.746  1.00  0.00     0.098 C 
HETATM    6  C   UNL     1     -40.493 -49.938  14.769  1.00  0.00     0.034 C 
BRANCH   5   7
HETATM    7  C   UNL     1     -39.125 -51.800  13.701  1.00  0.00     0.153 C 
BRANCH   7   8
HETATM    8  N   UNL     1     -39.048 -52.971  14.550  1.00  0.00    -0.350 N 
HETATM    9  C   UNL     1     -38.961 -52.984  15.916  1.00  0.00     0.108 A 
HETATM   10  C   UNL     1     -38.944 -54.315  16.258  1.00  0.00     0.106 A 
HETATM   11  N   UNL     1     -39.024 -55.104  15.140  1.00  0.00    -0.361 N 
HETATM   12  C   UNL     1     -39.107 -54.271  14.130  1.00  0.00     0.182 A 
ATOM     13  HN  UNL     1     -39.021 -56.123  15.102  1.00  0.00     0.166 HD
ENDBRANCH   7   8
ENDBRANCH   5   7
ENDBRANCH   1   5
BRANCH   2  14
HETATM   14  C   UNL     1     -43.322 -53.646  13.486  1.00  0.00     0.228 C 
BRANCH  14  15
HETATM   15  N   UNL     1     -44.528 -53.088  14.090  1.00  0.00    -0.343 N 
HETATM   16  C   UNL     1     -44.640 -53.096  15.546  1.00  0.00     0.126 C 
HETATM   17  C   UNL     1     -44.671 -51.693  16.133  1.00  0.00     0.020 C 
HETATM   18  C   UNL     1     -46.059 -51.056  16.144  1.00  0.00     0.002 C 
HETATM   19  C   UNL     1     -46.983 -51.439  14.989  1.00  0.00     0.009 C 
HETATM   20  C   UNL     1     -46.311 -51.433  13.628  1.00  0.00     0.103 C 
HETATM   21  C   UNL     1     -45.533 -52.680  13.236  1.00  0.00     0.220 C 
HETATM   22  O   UNL     1     -45.651 -53.171  12.110  1.00  0.00    -0.273 OA
ENDBRANCH  14  15
ENDBRANCH   2  14
TORSDOF 5
ENDMDL
MODEL 9
REMARK VINA RESULT:      -4.7     15.641     17.575
REMARK  5 active torsions:
REMARK  status: ('A' for Active; 'I' for Inactive)
REMARK    1  A    between atoms: C_2  and  C_3 
REMARK    2  A    between atoms: C_2  and  N_10 
REMARK    3  A    between atoms: C_3  and  N_4 
REMARK       I    between atoms: N_10  and  C_11 
REMARK    4  A    between atoms: C_11  and  C_13 
REMARK    5  A    between atoms: C_13  and  N_14 
ROOT
HETATM    1  N   UNL     1     -51.319 -52.630  -1.570  1.00  0.00    -0.354 N 
HETATM    2  C   UNL     1     -50.250 -52.073  -0.904  1.00  0.00     0.235 C 
HETATM    3  O   UNL     1     -49.602 -52.679  -0.050  1.00  0.00    -0.272 OA
HETATM    4  H   UNL     1     -51.921 -51.998  -2.098  1.00  0.00     0.163 HD
ENDROOT
BRANCH   1   5
HETATM    5  C   UNL     1     -51.715 -54.025  -1.355  1.00  0.00     0.098 C 
HETATM    6  C   UNL     1     -53.045 -54.079  -0.604  1.00  0.00     0.034 C 
BRANCH   5   7
HETATM    7  C   UNL     1     -51.776 -54.800  -2.692  1.00  0.00     0.153 C 
BRANCH   7   8
HETATM    8  N   UNL     1     -50.619 -55.633  -2.949  1.00  0.00    -0.350 N 
HETATM    9  C   UNL     1     -50.583 -56.763  -3.720  1.00  0.00     0.108 A 
HETATM   10  C   UNL     1     -49.272 -57.176  -3.683  1.00  0.00     0.106 A 
HETATM   11  N   UNL     1     -48.517 -56.324  -2.919  1.00  0.00    -0.361 N 
HETATM   12  C   UNL     1     -49.347 -55.395  -2.507  1.00  0.00     0.182 A 
ATOM     13  HN  UNL     1     -47.521 -56.398  -2.713  1.00  0.00     0.166 HD
ENDBRANCH   7   8
ENDBRANCH   5   7
ENDBRANCH   1   5
BRANCH   2  14
HETATM   14  C   UNL     1     -49.912 -50.638  -1.303  1.00  0.00     0.228 C 
BRANCH  14  15
HETATM   15  N   UNL     1     -50.505 -49.588  -0.480  1.00  0.00    -0.343 N 
HETATM   16  C   UNL     1     -51.700 -48.911  -0.978  1.00  0.00     0.126 C 
HETATM   17  C   UNL     1     -52.918 -49.167  -0.102  1.00  0.00     0.020 C 
HETATM   18  C   UNL     1     -53.025 -48.229   1.100  1.00  0.00     0.002 C 
HETATM   19  C   UNL     1     -51.704 -47.773   1.715  1.00  0.00     0.009 C 
HETATM   20  C   UNL     1     -50.682 -48.881   1.886  1.00  0.00     0.103 C 
HETATM   21  C   UNL     1     -49.834 -49.234   0.673  1.00  0.00     0.220 C 
HETATM   22  O   UNL     1     -48.616 -49.402   0.780  1.00  0.00    -0.273 OA
ENDBRANCH  14  15
ENDBRANCH   2  14
TORSDOF 5
ENDMDL
