MODEL 1
REMARK VINA RESULT:      -5.2      0.000      0.000
REMARK  4 active torsions:
REMARK  status: ('A' for Active; 'I' for Inactive)
REMARK    1  A    between atoms: C_7  and  C_8 
REMARK    2  A    between atoms: C_8  and  C_9 
REMARK    3  A    between atoms: C_9  and  N_10 
REMARK       I    between atoms: N_10  and  C_11 
REMARK    4  A    between atoms: C_11  and  C_13 
ROOT
HETATM    1  N   UNL     1     -42.642 -53.696  14.587  1.00  0.00    -0.359 N 
HETATM    2  C   UNL     1     -43.802 -54.434  14.551  1.00  0.00     0.246 C 
HETATM    3  O   UNL     1     -43.831 -55.641  14.779  1.00  0.00    -0.271 OA
HETATM    4  H   UNL     1     -42.717 -52.696  14.418  1.00  0.00     0.162 HD
ENDROOT
BRANCH   1   5
HETATM    5  C   UNL     1     -41.365 -54.337  14.813  1.00  0.00     0.128 C 
BRANCH   5   6
HETATM    6  C   UNL     1     -40.377 -54.207  13.656  1.00  0.00     0.078 C 
BRANCH   6   7
HETATM    7  C   UNL     1     -40.448 -52.915  12.910  1.00  0.00     0.029 A 
HETATM    8  N   UNL     1     -39.708 -51.782  13.162  1.00  0.00    -0.350 N 
HETATM    9  C   UNL     1     -38.728 -51.574  14.199  1.00  0.00     0.156 C 
HETATM   10  C   UNL     1     -40.047 -50.848  12.222  1.00  0.00     0.182 A 
HETATM   11  N   UNL     1     -40.951 -51.304  11.388  1.00  0.00    -0.360 N 
HETATM   12  C   UNL     1     -41.205 -52.582  11.803  1.00  0.00     0.114 A 
ATOM     13  HN  UNL     1     -41.373 -50.812  10.601  1.00  0.00     0.166 HD
ENDBRANCH   6   7
ENDBRANCH   5   6
ENDBRANCH   1   5
BRANCH   2  14
HETATM   14  C   UNL     1     -45.060 -53.643  14.161  1.00  0.00     0.213 C 
HETATM   15  C   UNL     1     -45.459 -52.691  15.284  1.00  0.00     0.042 C 
HETATM   16  C   UNL     1     -46.827 -52.100  14.964  1.00  0.00     0.005 C 
HETATM   17  C   UNL     1     -46.829 -51.468  13.574  1.00  0.00     0.026 C 
HETATM   18  C   UNL     1     -46.190 -52.375  12.522  1.00  0.00     0.168 C 
HETATM   19  O   UNL     1     -44.927 -52.891  12.949  1.00  0.00    -0.376 OA
ENDBRANCH   2  14
TORSDOF 4
ENDMDL
MODEL 2
REMARK VINA RESULT:      -5.2      3.477      5.098
REMARK  4 active torsions:
REMARK  status: ('A' for Active; 'I' for Inactive)
REMARK    1  A    between atoms: C_7  and  C_8 
REMARK    2  A    between atoms: C_8  and  C_9 
REMARK    3  A    between atoms: C_9  and  N_10 
REMARK       I    between atoms: N_10  and  C_11 
REMARK    4  A    between atoms: C_11  and  C_13 
ROOT
HETATM    1  N   UNL     1     -41.325 -50.826  11.625  1.00  0.00    -0.359 N 
HETATM    2  C   UNL     1     -40.808 -51.909  12.299  1.00  0.00     0.246 C 
HETATM    3  O   UNL     1     -39.612 -52.027  12.554  1.00  0.00    -0.271 OA
HETATM    4  H   UNL     1     -42.332 -50.796  11.487  1.00  0.00     0.162 HD
ENDROOT
BRANCH   1   5
HETATM    5  C   UNL     1     -40.453 -49.798  11.101  1.00  0.00     0.128 C 
BRANCH   5   6
HETATM    6  C   UNL     1     -40.536 -48.462  11.834  1.00  0.00     0.078 C 
BRANCH   6   7
HETATM    7  C   UNL     1     -41.542 -47.504  11.286  1.00  0.00     0.029 A 
HETATM    8  N   UNL     1     -41.279 -46.277  10.720  1.00  0.00    -0.350 N 
HETATM    9  C   UNL     1     -40.001 -45.632  10.548  1.00  0.00     0.156 C 
HETATM   10  C   UNL     1     -42.472 -45.748  10.307  1.00  0.00     0.182 A 
HETATM   11  N   UNL     1     -43.476 -46.550  10.571  1.00  0.00    -0.360 N 
HETATM   12  C   UNL     1     -42.912 -47.640  11.174  1.00  0.00     0.114 A 
ATOM     13  HN  UNL     1     -44.463 -46.394  10.369  1.00  0.00     0.166 HD
ENDBRANCH   6   7
ENDBRANCH   5   6
ENDBRANCH   1   5
BRANCH   2  14
HETATM   14  C   UNL     1     -41.836 -52.988  12.672  1.00  0.00     0.213 C 
HETATM   15  C   UNL     1     -41.682 -53.386  14.136  1.00  0.00     0.042 C 
HETATM   16  C   UNL     1     -42.550 -54.609  14.406  1.00  0.00     0.005 C 
HETATM   17  C   UNL     1     -43.992 -54.354  13.974  1.00  0.00     0.026 C 
HETATM   18  C   UNL     1     -44.078 -53.723  12.584  1.00  0.00     0.168 C 
HETATM   19  O   UNL     1     -43.198 -52.605  12.442  1.00  0.00    -0.376 OA
ENDBRANCH   2  14
TORSDOF 4
ENDMDL
MODEL 3
REMARK VINA RESULT:      -5.0      2.782      6.310
REMARK  4 active torsions:
REMARK  status: ('A' for Active; 'I' for Inactive)
REMARK    1  A    between atoms: C_7  and  C_8 
REMARK    2  A    between atoms: C_8  and  C_9 
REMARK    3  A    between atoms: C_9  and  N_10 
REMARK       I    between atoms: N_10  and  C_11 
REMARK    4  A    between atoms: C_11  and  C_13 
ROOT
HETATM    1  N   UNL     1     -42.204 -51.801  12.214  1.00  0.00    -0.359 N 
HETATM    2  C   UNL     1     -40.860 -52.094  12.158  1.00  0.00     0.246 C 
HETATM    3  O   UNL     1     -40.430 -53.245  12.132  1.00  0.00    -0.271 OA
HETATM    4  H   UNL     1     -42.470 -50.820  12.198  1.00  0.00     0.162 HD
ENDROOT
BRANCH   1   5
HETATM    5  C   UNL     1     -43.186 -52.855  12.335  1.00  0.00     0.128 C 
BRANCH   5   6
HETATM    6  C   UNL     1     -43.401 -53.360  13.760  1.00  0.00     0.078 C 
BRANCH   6   7
HETATM    7  C   UNL     1     -44.823 -53.646  14.118  1.00  0.00     0.029 A 
HETATM    8  N   UNL     1     -45.742 -52.742  14.601  1.00  0.00    -0.350 N 
HETATM    9  C   UNL     1     -45.547 -51.343  14.889  1.00  0.00     0.156 C 
HETATM   10  C   UNL     1     -46.931 -53.403  14.752  1.00  0.00     0.182 A 
HETATM   11  N   UNL     1     -46.834 -54.664  14.402  1.00  0.00    -0.360 N 
HETATM   12  C   UNL     1     -45.535 -54.824  14.006  1.00  0.00     0.114 A 
ATOM     13  HN  UNL     1     -47.569 -55.370  14.420  1.00  0.00     0.166 HD
ENDBRANCH   6   7
ENDBRANCH   5   6
ENDBRANCH   1   5
BRANCH   2  14
HETATM   14  C   UNL     1     -39.931 -50.871  12.175  1.00  0.00     0.213 C 
HETATM   15  C   UNL     1     -40.310 -49.929  13.312  1.00  0.00     0.042 C 
HETATM   16  C   UNL     1     -39.528 -48.630  13.157  1.00  0.00     0.005 C 
HETATM   17  C   UNL     1     -38.032 -48.912  13.048  1.00  0.00     0.026 C 
HETATM   18  C   UNL     1     -37.724 -50.041  12.065  1.00  0.00     0.168 C 
HETATM   19  O   UNL     1     -38.540 -51.194  12.292  1.00  0.00    -0.376 OA
ENDBRANCH   2  14
TORSDOF 4
ENDMDL
MODEL 4
REMARK VINA RESULT:      -5.0      4.207      5.556
REMARK  4 active torsions:
REMARK  status: ('A' for Active; 'I' for Inactive)
REMARK    1  A    between atoms: C_7  and  C_8 
REMARK    2  A    between atoms: C_8  and  C_9 
REMARK    3  A    between atoms: C_9  and  N_10 
REMARK       I    between atoms: N_10  and  C_11 
REMARK    4  A    between atoms: C_11  and  C_13 
ROOT
HETATM    1  N   UNL     1     -42.479 -49.490  12.462  1.00  0.00    -0.359 N 
HETATM    2  C   UNL     1     -42.164 -50.829  12.477  1.00  0.00     0.246 C 
HETATM    3  O   UNL     1     -41.102 -51.269  12.044  1.00  0.00    -0.271 OA
HETATM    4  H   UNL     1     -43.367 -49.212  12.873  1.00  0.00     0.162 HD
ENDROOT
BRANCH   1   5
HETATM    5  C   UNL     1     -41.592 -48.529  11.844  1.00  0.00     0.128 C 
BRANCH   5   6
HETATM    6  C   UNL     1     -41.807 -48.341  10.344  1.00  0.00     0.078 C 
BRANCH   6   7
HETATM    7  C   UNL     1     -42.595 -47.130   9.968  1.00  0.00     0.029 A 
HETATM    8  N   UNL     1     -43.354 -46.967   8.831  1.00  0.00    -0.350 N 
HETATM    9  C   UNL     1     -43.543 -47.900   7.749  1.00  0.00     0.156 C 
HETATM   10  C   UNL     1     -43.944 -45.736   8.901  1.00  0.00     0.182 A 
HETATM   11  N   UNL     1     -43.615 -45.100  10.000  1.00  0.00    -0.360 N 
HETATM   12  C   UNL     1     -42.783 -45.954  10.669  1.00  0.00     0.114 A 
ATOM     13  HN  UNL     1     -43.916 -44.170  10.292  1.00  0.00     0.166 HD
ENDBRANCH   6   7
ENDBRANCH   5   6
ENDBRANCH   1   5
BRANCH   2  14
HETATM   14  C   UNL     1     -43.263 -51.745  13.038  1.00  0.00     0.213 C 
HETATM   15  C   UNL     1     -44.554 -50.961  13.247  1.00  0.00     0.042 C 
HETATM   16  C   UNL     1     -45.540 -51.833  14.014  1.00  0.00     0.005 C 
HETATM   17  C   UNL     1     -45.728 -53.178  13.315  1.00  0.00     0.026 C 
HETATM   18  C   UNL     1     -44.398 -53.811  12.906  1.00  0.00     0.168 C 
HETATM   19  O   UNL     1     -43.547 -52.887  12.221  1.00  0.00    -0.376 OA
ENDBRANCH   2  14
TORSDOF 4
ENDMDL
MODEL 5
REMARK VINA RESULT:      -5.0      3.121      6.318
REMARK  4 active torsions:
REMARK  status: ('A' for Active; 'I' for Inactive)
REMARK    1  A    between atoms: C_7  and  C_8 
REMARK    2  A    between atoms: C_8  and  C_9 
REMARK    3  A    between atoms: C_9  and  N_10 
REMARK       I    between atoms: N_10  and  C_11 
REMARK    4  A    between atoms: C_11  and  C_13 
ROOT
HETATM    1  N   UNL     1     -42.702 -51.256  12.552  1.00  0.00    -0.359 N 
HETATM    2  C   UNL     1     -41.468 -50.783  12.167  1.00  0.00     0.246 C 
HETATM    3  O   UNL     1     -40.488 -51.512  12.034  1.00  0.00    -0.271 OA
HETATM    4  H   UNL     1     -43.465 -50.586  12.604  1.00  0.00     0.162 HD
ENDROOT
BRANCH   1   5
HETATM    5  C   UNL     1     -42.883 -52.646  12.909  1.00  0.00     0.128 C 
BRANCH   5   6
HETATM    6  C   UNL     1     -44.112 -53.305  12.288  1.00  0.00     0.078 C 
BRANCH   6   7
HETATM    7  C   UNL     1     -45.192 -53.663  13.256  1.00  0.00     0.029 A 
HETATM    8  N   UNL     1     -46.139 -52.810  13.776  1.00  0.00    -0.350 N 
HETATM    9  C   UNL     1     -46.294 -51.398  13.531  1.00  0.00     0.156 C 
HETATM   10  C   UNL     1     -46.962 -53.549  14.581  1.00  0.00     0.182 A 
HETATM   11  N   UNL     1     -46.606 -54.811  14.613  1.00  0.00    -0.360 N 
HETATM   12  C   UNL     1     -45.513 -54.893  13.795  1.00  0.00     0.114 A 
ATOM     13  HN  UNL     1     -47.048 -55.567  15.135  1.00  0.00     0.166 HD
ENDBRANCH   6   7
ENDBRANCH   5   6
ENDBRANCH   1   5
BRANCH   2  14
HETATM   14  C   UNL     1     -41.395 -49.263  11.957  1.00  0.00     0.213 C 
HETATM   15  C   UNL     1     -40.094 -48.709  12.525  1.00  0.00     0.042 C 
HETATM   16  C   UNL     1     -40.159 -47.187  12.510  1.00  0.00     0.005 C 
HETATM   17  C   UNL     1     -40.501 -46.676  11.112  1.00  0.00     0.026 C 
HETATM   18  C   UNL     1     -41.669 -47.438  10.486  1.00  0.00     0.168 C 
HETATM   19  O   UNL     1     -41.508 -48.855  10.588  1.00  0.00    -0.376 OA
ENDBRANCH   2  14
TORSDOF 4
ENDMDL
MODEL 6
REMARK VINA RESULT:      -4.8      2.124      3.476
REMARK  4 active torsions:
REMARK  status: ('A' for Active; 'I' for Inactive)
REMARK    1  A    between atoms: C_7  and  C_8 
REMARK    2  A    between atoms: C_8  and  C_9 
REMARK    3  A    between atoms: C_9  and  N_10 
REMARK       I    between atoms: N_10  and  C_11 
REMARK    4  A    between atoms: C_11  and  C_13 
ROOT
HETATM    1  N   UNL     1     -40.625 -52.081  14.331  1.00  0.00    -0.359 N 
HETATM    2  C   UNL     1     -40.618 -53.309  13.709  1.00  0.00     0.246 C 
HETATM    3  O   UNL     1     -39.593 -53.832  13.278  1.00  0.00    -0.271 OA
HETATM    4  H   UNL     1     -41.514 -51.741  14.686  1.00  0.00     0.162 HD
ENDROOT
BRANCH   1   5
HETATM    5  C   UNL     1     -39.414 -51.296  14.428  1.00  0.00     0.128 C 
BRANCH   5   6
HETATM    6  C   UNL     1     -39.566 -49.841  13.990  1.00  0.00     0.078 C 
BRANCH   6   7
HETATM    7  C   UNL     1     -40.105 -49.652  12.610  1.00  0.00     0.029 A 
HETATM    8  N   UNL     1     -41.092 -48.771  12.231  1.00  0.00    -0.350 N 
HETATM    9  C   UNL     1     -41.838 -47.860  13.063  1.00  0.00     0.156 C 
HETATM   10  C   UNL     1     -41.249 -48.883  10.877  1.00  0.00     0.182 A 
HETATM   11  N   UNL     1     -40.433 -49.774  10.365  1.00  0.00    -0.360 N 
HETATM   12  C   UNL     1     -39.719 -50.254  11.428  1.00  0.00     0.114 A 
ATOM     13  HN  UNL     1     -40.349 -50.049   9.387  1.00  0.00     0.166 HD
ENDBRANCH   6   7
ENDBRANCH   5   6
ENDBRANCH   1   5
BRANCH   2  14
HETATM   14  C   UNL     1     -42.000 -53.962  13.555  1.00  0.00     0.213 C 
HETATM   15  C   UNL     1     -42.541 -54.391  14.915  1.00  0.00     0.042 C 
HETATM   16  C   UNL     1     -43.792 -55.235  14.703  1.00  0.00     0.005 C 
HETATM   17  C   UNL     1     -44.802 -54.494  13.831  1.00  0.00     0.026 C 
HETATM   18  C   UNL     1     -44.154 -53.871  12.594  1.00  0.00     0.168 C 
HETATM   19  O   UNL     1     -42.974 -53.129  12.916  1.00  0.00    -0.376 OA
ENDBRANCH   2  14
TORSDOF 4
ENDMDL
MODEL 7
REMARK VINA RESULT:      -4.8      2.734      5.823
REMARK  4 active torsions:
REMARK  status: ('A' for Active; 'I' for Inactive)
REMARK    1  A    between atoms: C_7  and  C_8 
REMARK    2  A    between atoms: C_8  and  C_9 
REMARK    3  A    between atoms: C_9  and  N_10 
REMARK       I    between atoms: N_10  and  C_11 
REMARK    4  A    between atoms: C_11  and  C_13 
ROOT
HETATM    1  N   UNL     1     -41.213 -52.643  14.351  1.00  0.00    -0.359 N 
HETATM    2  C   UNL     1     -40.082 -52.837  13.591  1.00  0.00     0.246 C 
HETATM    3  O   UNL     1     -39.571 -53.943  13.428  1.00  0.00    -0.271 OA
HETATM    4  H   UNL     1     -41.586 -51.698  14.403  1.00  0.00     0.162 HD
ENDROOT
BRANCH   1   5
HETATM    5  C   UNL     1     -41.812 -53.739  15.078  1.00  0.00     0.128 C 
BRANCH   5   6
HETATM    6  C   UNL     1     -42.761 -54.605  14.253  1.00  0.00     0.078 C 
BRANCH   6   7
HETATM    7  C   UNL     1     -43.911 -53.872  13.643  1.00  0.00     0.029 A 
HETATM    8  N   UNL     1     -45.114 -53.588  14.248  1.00  0.00    -0.350 N 
HETATM    9  C   UNL     1     -45.545 -53.943  15.577  1.00  0.00     0.156 C 
HETATM   10  C   UNL     1     -45.863 -52.865  13.361  1.00  0.00     0.182 A 
HETATM   11  N   UNL     1     -45.224 -52.669  12.232  1.00  0.00    -0.360 N 
HETATM   12  C   UNL     1     -44.015 -53.286  12.396  1.00  0.00     0.114 A 
ATOM     13  HN  UNL     1     -45.557 -52.166  11.410  1.00  0.00     0.166 HD
ENDBRANCH   6   7
ENDBRANCH   5   6
ENDBRANCH   1   5
BRANCH   2  14
HETATM   14  C   UNL     1     -39.478 -51.558  12.992  1.00  0.00     0.213 C 
HETATM   15  C   UNL     1     -39.765 -50.362  13.892  1.00  0.00     0.042 C 
HETATM   16  C   UNL     1     -39.360 -49.087  13.161  1.00  0.00     0.005 C 
HETATM   17  C   UNL     1     -37.913 -49.179  12.681  1.00  0.00     0.026 C 
HETATM   18  C   UNL     1     -37.612 -50.511  11.995  1.00  0.00     0.168 C 
HETATM   19  O   UNL     1     -38.065 -51.630  12.762  1.00  0.00    -0.376 OA
ENDBRANCH   2  14
TORSDOF 4
ENDMDL
MODEL 8
REMARK VINA RESULT:      -4.8      3.597      6.215
REMARK  4 active torsions:
REMARK  status: ('A' for Active; 'I' for Inactive)
REMARK    1  A    between atoms: C_7  and  C_8 
REMARK    2  A    between atoms: C_8  and  C_9 
REMARK    3  A    between atoms: C_9  and  N_10 
REMARK       I    between atoms: N_10  and  C_11 
REMARK    4  A    between atoms: C_11  and  C_13 
ROOT
HETATM    1  N   UNL     1     -41.969 -50.690  11.762  1.00  0.00    -0.359 N 
HETATM    2  C   UNL     1     -40.805 -49.985  11.554  1.00  0.00     0.246 C 
HETATM    3  O   UNL     1     -39.697 -50.429  11.845  1.00  0.00    -0.271 OA
HETATM    4  H   UNL     1     -42.838 -50.258  11.460  1.00  0.00     0.162 HD
ENDROOT
BRANCH   1   5
HETATM    5  C   UNL     1     -41.946 -51.974  12.427  1.00  0.00     0.128 C 
BRANCH   5   6
HETATM    6  C   UNL     1     -42.781 -52.041  13.704  1.00  0.00     0.078 C 
BRANCH   6   7
HETATM    7  C   UNL     1     -43.939 -52.983  13.650  1.00  0.00     0.029 A 
HETATM    8  N   UNL     1     -43.986 -54.253  14.181  1.00  0.00    -0.350 N 
HETATM    9  C   UNL     1     -42.943 -54.964  14.877  1.00  0.00     0.156 C 
HETATM   10  C   UNL     1     -45.239 -54.750  13.952  1.00  0.00     0.182 A 
HETATM   11  N   UNL     1     -45.995 -53.889  13.313  1.00  0.00    -0.360 N 
HETATM   12  C   UNL     1     -45.201 -52.792  13.123  1.00  0.00     0.114 A 
ATOM     13  HN  UNL     1     -46.964 -54.011  13.021  1.00  0.00     0.166 HD
ENDBRANCH   6   7
ENDBRANCH   5   6
ENDBRANCH   1   5
BRANCH   2  14
HETATM   14  C   UNL     1     -40.997 -48.579  10.968  1.00  0.00     0.213 C 
HETATM   15  C   UNL     1     -42.471 -48.189  10.990  1.00  0.00     0.042 C 
HETATM   16  C   UNL     1     -42.652 -46.901  10.197  1.00  0.00     0.005 C 
HETATM   17  C   UNL     1     -41.708 -45.815  10.708  1.00  0.00     0.026 C 
HETATM   18  C   UNL     1     -40.281 -46.330  10.901  1.00  0.00     0.168 C 
HETATM   19  O   UNL     1     -40.243 -47.558  11.634  1.00  0.00    -0.376 OA
ENDBRANCH   2  14
TORSDOF 4
ENDMDL
MODEL 9
REMARK VINA RESULT:      -4.8      1.385      2.246
REMARK  4 active torsions:
REMARK  status: ('A' for Active; 'I' for Inactive)
REMARK    1  A    between atoms: C_7  and  C_8 
REMARK    2  A    between atoms: C_8  and  C_9 
REMARK    3  A    between atoms: C_9  and  N_10 
REMARK       I    between atoms: N_10  and  C_11 
REMARK    4  A    between atoms: C_11  and  C_13 
ROOT
HETATM    1  N   UNL     1     -42.830 -53.676  14.763  1.00  0.00    -0.359 N 
HETATM    2  C   UNL     1     -44.128 -54.088  14.962  1.00  0.00     0.246 C 
HETATM    3  O   UNL     1     -44.496 -55.245  14.770  1.00  0.00    -0.271 OA
HETATM    4  H   UNL     1     -42.608 -52.708  14.980  1.00  0.00     0.162 HD
ENDROOT
BRANCH   1   5
HETATM    5  C   UNL     1     -41.841 -54.583  14.226  1.00  0.00     0.128 C 
BRANCH   5   6
HETATM    6  C   UNL     1     -41.066 -54.038  13.028  1.00  0.00     0.078 C 
BRANCH   6   7
HETATM    7  C   UNL     1     -40.201 -52.856  13.323  1.00  0.00     0.029 A 
HETATM    8  N   UNL     1     -40.449 -51.551  12.964  1.00  0.00    -0.350 N 
HETATM    9  C   UNL     1     -41.567 -51.032  12.216  1.00  0.00     0.156 C 
HETATM   10  C   UNL     1     -39.435 -50.784  13.469  1.00  0.00     0.182 A 
HETATM   11  N   UNL     1     -38.558 -51.507  14.123  1.00  0.00    -0.360 N 
HETATM   12  C   UNL     1     -39.022 -52.790  14.041  1.00  0.00     0.114 A 
ATOM     13  HN  UNL     1     -37.712 -51.182  14.591  1.00  0.00     0.166 HD
ENDBRANCH   6   7
ENDBRANCH   5   6
ENDBRANCH   1   5
BRANCH   2  14
HETATM   14  C   UNL     1     -45.098 -52.981  15.402  1.00  0.00     0.213 C 
HETATM   15  C   UNL     1     -46.028 -52.602  14.255  1.00  0.00     0.042 C 
HETATM   16  C   UNL     1     -46.811 -51.355  14.648  1.00  0.00     0.005 C 
HETATM   17  C   UNL     1     -47.516 -51.560  15.986  1.00  0.00     0.026 C 
HETATM   18  C   UNL     1     -46.594 -52.175  17.040  1.00  0.00     0.168 C 
HETATM   19  O   UNL     1     -45.893 -53.320  16.544  1.00  0.00    -0.376 OA
ENDBRANCH   2  14
TORSDOF 4
ENDMDL
