MODEL 1
REMARK VINA RESULT:      -6.9      0.000      0.000
REMARK  6 active torsions:
REMARK  status: ('A' for Active; 'I' for Inactive)
REMARK    1  A    between atoms: N_2  and  C_15 
REMARK    2  A    between atoms: C_3  and  N_7 
REMARK    3  A    between atoms: N_7  and  C_9 
REMARK    4  A    between atoms: N_7  and  C_26 
REMARK    5  A    between atoms: C_15  and  C_18 
REMARK    6  A    between atoms: C_18  and  O_25 
ROOT
HETATM    1  C   UNL     1     -42.588 -49.381  12.111  1.00  0.00     0.122 A 
HETATM    2  N   UNL     1     -42.358 -51.151  13.388  1.00  0.00    -0.324 N 
HETATM    3  C   UNL     1     -42.177 -48.470  11.101  1.00  0.00     0.136 A 
HETATM    4  C   UNL     1     -41.774 -50.479  12.348  1.00  0.00     0.140 A 
HETATM    5  N   UNL     1     -43.667 -49.404  12.983  1.00  0.00    -0.346 N 
ATOM      6  HN  UNL     1     -44.435 -48.734  13.032  1.00  0.00     0.167 HD
HETATM    7  C   UNL     1     -43.492 -50.471  13.734  1.00  0.00     0.185 A 
HETATM    8  N   UNL     1     -41.036 -48.808  10.420  1.00  0.00    -0.337 N 
ATOM      9  HN  UNL     1     -40.710 -48.224   9.650  1.00  0.00     0.168 HD
HETATM   10  N   UNL     1     -40.637 -50.809  11.724  1.00  0.00    -0.336 N 
ATOM     11  HN  UNL     1     -40.070 -51.628  11.944  1.00  0.00     0.168 HD
HETATM   12  C   UNL     1     -40.347 -49.912  10.766  1.00  0.00     0.183 A 
ENDROOT
BRANCH   3  13
HETATM   13  N   UNL     1     -42.818 -47.268  10.791  1.00  0.00    -0.352 N 
BRANCH  13  14
HETATM   14  C   UNL     1     -43.744 -47.248   9.647  1.00  0.00     0.179 C 
HETATM   15  C   UNL     1     -44.241 -45.883   9.135  1.00  0.00     0.240 C 
HETATM   16  N   UNL     1     -45.585 -46.016   8.803  1.00  0.00    -0.359 N 
HETATM   17  O   UNL     1     -43.607 -44.857   8.944  1.00  0.00    -0.271 OA
HETATM   18  C   UNL     1     -46.027 -47.367   8.940  1.00  0.00     0.125 C 
HETATM   19  H   UNL     1     -46.062 -45.281   8.295  1.00  0.00     0.162 HD
HETATM   20  C   UNL     1     -45.087 -47.922   9.987  1.00  0.00     0.054 C 
ENDBRANCH  13  14
BRANCH  13  21
HETATM   21  C   UNL     1     -42.695 -46.162  11.736  1.00  0.00     0.121 C 
HETATM   22  C   UNL     1     -41.354 -45.451  11.638  1.00  0.00     0.026 C 
ENDBRANCH  13  21
ENDBRANCH   3  13
BRANCH   2  23
HETATM   23  C   UNL     1     -41.760 -52.253  14.116  1.00  0.00     0.169 C 
BRANCH  23  24
HETATM   24  C   UNL     1     -41.950 -53.660  13.499  1.00  0.00     0.078 C 
HETATM   25  C   UNL     1     -43.408 -53.800  13.018  1.00  0.00     0.066 C 
HETATM   26  C   UNL     1     -44.363 -54.084  14.164  1.00  0.00     0.170 C 
HETATM   27  O   UNL     1     -43.974 -55.285  14.821  1.00  0.00    -0.391 OA
HETATM   28  C   UNL     1     -42.695 -55.173  15.438  1.00  0.00     0.170 C 
HETATM   29  C   UNL     1     -41.604 -54.844  14.422  1.00  0.00     0.066 C 
BRANCH  24  30
HETATM   30  O   UNL     1     -41.138 -53.732  12.313  1.00  0.00    -0.388 OA
HETATM   31  H   UNL     1     -41.283 -54.590  11.877  1.00  0.00     0.210 HD
ENDBRANCH  24  30
ENDBRANCH  23  24
ENDBRANCH   2  23
TORSDOF 6
ENDMDL
MODEL 2
REMARK VINA RESULT:      -6.7      1.369      2.246
REMARK  6 active torsions:
REMARK  status: ('A' for Active; 'I' for Inactive)
REMARK    1  A    between atoms: N_2  and  C_15 
REMARK    2  A    between atoms: C_3  and  N_7 
REMARK    3  A    between atoms: N_7  and  C_9 
REMARK    4  A    between atoms: N_7  and  C_26 
REMARK    5  A    between atoms: C_15  and  C_18 
REMARK    6  A    between atoms: C_18  and  O_25 
ROOT
HETATM    1  C   UNL     1     -41.133 -48.291  11.661  1.00  0.00     0.122 A 
HETATM    2  N   UNL     1     -40.590 -50.257  12.471  1.00  0.00    -0.324 N 
HETATM    3  C   UNL     1     -41.891 -47.089  11.620  1.00  0.00     0.136 A 
HETATM    4  C   UNL     1     -41.402 -49.178  12.694  1.00  0.00     0.140 A 
HETATM    5  N   UNL     1     -40.150 -48.820  10.837  1.00  0.00    -0.346 N 
ATOM      6  HN  UNL     1     -39.741 -48.387  10.009  1.00  0.00     0.167 HD
HETATM    7  C   UNL     1     -39.855 -49.997  11.348  1.00  0.00     0.185 A 
HETATM    8  N   UNL     1     -42.776 -46.905  12.650  1.00  0.00    -0.337 N 
ATOM      9  HN  UNL     1     -43.318 -46.044  12.708  1.00  0.00     0.168 HD
HETATM   10  N   UNL     1     -42.287 -49.038  13.688  1.00  0.00    -0.336 N 
ATOM     11  HN  UNL     1     -42.451 -49.728  14.421  1.00  0.00     0.168 HD
HETATM   12  C   UNL     1     -42.929 -47.862  13.586  1.00  0.00     0.183 A 
ENDROOT
BRANCH   3  13
HETATM   13  N   UNL     1     -41.823 -46.129  10.607  1.00  0.00    -0.352 N 
BRANCH  13  14
HETATM   14  C   UNL     1     -42.721 -46.275   9.449  1.00  0.00     0.179 C 
HETATM   15  C   UNL     1     -43.894 -45.285   9.308  1.00  0.00     0.240 C 
HETATM   16  N   UNL     1     -44.998 -45.997   8.852  1.00  0.00    -0.359 N 
HETATM   17  O   UNL     1     -43.899 -44.074   9.461  1.00  0.00    -0.271 OA
HETATM   18  C   UNL     1     -44.665 -47.357   8.570  1.00  0.00     0.125 C 
HETATM   19  H   UNL     1     -45.828 -45.509   8.538  1.00  0.00     0.162 HD
HETATM   20  C   UNL     1     -43.488 -47.610   9.485  1.00  0.00     0.054 C 
ENDBRANCH  13  14
BRANCH  13  21
HETATM   21  C   UNL     1     -41.022 -44.933  10.849  1.00  0.00     0.121 C 
HETATM   22  C   UNL     1     -39.686 -44.964  10.124  1.00  0.00     0.026 C 
ENDBRANCH  13  21
ENDBRANCH   3  13
BRANCH   2  23
HETATM   23  C   UNL     1     -40.662 -51.521  13.177  1.00  0.00     0.169 C 
BRANCH  23  24
HETATM   24  C   UNL     1     -41.476 -52.643  12.485  1.00  0.00     0.078 C 
HETATM   25  C   UNL     1     -42.978 -52.314  12.606  1.00  0.00     0.066 C 
HETATM   26  C   UNL     1     -43.527 -52.652  13.982  1.00  0.00     0.170 C 
HETATM   27  O   UNL     1     -43.332 -54.036  14.245  1.00  0.00    -0.391 OA
HETATM   28  C   UNL     1     -41.951 -54.383  14.314  1.00  0.00     0.170 C 
HETATM   29  C   UNL     1     -41.223 -54.069  13.010  1.00  0.00     0.066 C 
BRANCH  24  30
HETATM   30  O   UNL     1     -41.178 -52.596  11.078  1.00  0.00    -0.388 OA
HETATM   31  H   UNL     1     -40.494 -53.258  10.874  1.00  0.00     0.210 HD
ENDBRANCH  24  30
ENDBRANCH  23  24
ENDBRANCH   2  23
TORSDOF 6
ENDMDL
MODEL 3
REMARK VINA RESULT:      -6.7      2.663      6.865
REMARK  6 active torsions:
REMARK  status: ('A' for Active; 'I' for Inactive)
REMARK    1  A    between atoms: N_2  and  C_15 
REMARK    2  A    between atoms: C_3  and  N_7 
REMARK    3  A    between atoms: N_7  and  C_9 
REMARK    4  A    between atoms: N_7  and  C_26 
REMARK    5  A    between atoms: C_15  and  C_18 
REMARK    6  A    between atoms: C_18  and  O_25 
ROOT
HETATM    1  C   UNL     1     -41.910 -51.111  13.815  1.00  0.00     0.122 A 
HETATM    2  N   UNL     1     -40.841 -49.362  13.032  1.00  0.00    -0.324 N 
HETATM    3  C   UNL     1     -42.467 -52.416  13.726  1.00  0.00     0.136 A 
HETATM    4  C   UNL     1     -41.217 -50.638  12.709  1.00  0.00     0.140 A 
HETATM    5  N   UNL     1     -41.929 -50.138  14.804  1.00  0.00    -0.346 N 
ATOM      6  HN  UNL     1     -42.352 -50.208  15.730  1.00  0.00     0.167 HD
HETATM    7  C   UNL     1     -41.287 -49.107  14.298  1.00  0.00     0.185 A 
HETATM    8  N   UNL     1     -42.209 -53.098  12.565  1.00  0.00    -0.337 N 
ATOM      9  HN  UNL     1     -42.539 -54.056  12.453  1.00  0.00     0.168 HD
HETATM   10  N   UNL     1     -40.985 -51.269  11.552  1.00  0.00    -0.336 N 
ATOM     11  HN  UNL     1     -40.474 -50.870  10.765  1.00  0.00     0.168 HD
HETATM   12  C   UNL     1     -41.518 -52.503  11.574  1.00  0.00     0.183 A 
ENDROOT
BRANCH   3  13
HETATM   13  N   UNL     1     -43.271 -53.016  14.698  1.00  0.00    -0.352 N 
BRANCH  13  14
HETATM   14  C   UNL     1     -44.732 -52.968  14.520  1.00  0.00     0.179 C 
HETATM   15  C   UNL     1     -45.327 -53.545  13.222  1.00  0.00     0.240 C 
HETATM   16  N   UNL     1     -46.361 -52.707  12.818  1.00  0.00    -0.359 N 
HETATM   17  O   UNL     1     -45.053 -54.587  12.648  1.00  0.00    -0.271 OA
HETATM   18  C   UNL     1     -46.598 -51.671  13.772  1.00  0.00     0.125 C 
HETATM   19  H   UNL     1     -46.991 -52.991  12.077  1.00  0.00     0.162 HD
HETATM   20  C   UNL     1     -45.251 -51.519  14.443  1.00  0.00     0.054 C 
ENDBRANCH  13  14
BRANCH  13  21
HETATM   21  C   UNL     1     -42.619 -53.831  15.718  1.00  0.00     0.121 C 
HETATM   22  C   UNL     1     -42.776 -55.323  15.468  1.00  0.00     0.026 C 
ENDBRANCH  13  21
ENDBRANCH   3  13
BRANCH   2  23
HETATM   23  C   UNL     1     -40.267 -48.399  12.112  1.00  0.00     0.169 C 
BRANCH  23  24
HETATM   24  C   UNL     1     -41.253 -47.727  11.126  1.00  0.00     0.078 C 
HETATM   25  C   UNL     1     -40.650 -46.387  10.656  1.00  0.00     0.066 C 
HETATM   26  C   UNL     1     -40.815 -45.291  11.694  1.00  0.00     0.170 C 
HETATM   27  O   UNL     1     -42.197 -45.105  11.975  1.00  0.00    -0.391 OA
HETATM   28  C   UNL     1     -42.786 -46.258  12.571  1.00  0.00     0.170 C 
HETATM   29  C   UNL     1     -42.674 -47.483  11.668  1.00  0.00     0.066 C 
BRANCH  24  30
HETATM   30  O   UNL     1     -41.329 -48.555   9.951  1.00  0.00    -0.388 OA
HETATM   31  H   UNL     1     -42.255 -48.819   9.806  1.00  0.00     0.210 HD
ENDBRANCH  24  30
ENDBRANCH  23  24
ENDBRANCH   2  23
TORSDOF 6
ENDMDL
MODEL 4
REMARK VINA RESULT:      -6.7      1.392      2.406
REMARK  6 active torsions:
REMARK  status: ('A' for Active; 'I' for Inactive)
REMARK    1  A    between atoms: N_2  and  C_15 
REMARK    2  A    between atoms: C_3  and  N_7 
REMARK    3  A    between atoms: N_7  and  C_9 
REMARK    4  A    between atoms: N_7  and  C_26 
REMARK    5  A    between atoms: C_15  and  C_18 
REMARK    6  A    between atoms: C_18  and  O_25 
ROOT
HETATM    1  C   UNL     1     -42.413 -49.530  12.066  1.00  0.00     0.122 A 
HETATM    2  N   UNL     1     -42.387 -51.287  13.380  1.00  0.00    -0.324 N 
HETATM    3  C   UNL     1     -41.859 -48.644  11.102  1.00  0.00     0.136 A 
HETATM    4  C   UNL     1     -41.664 -50.645  12.411  1.00  0.00     0.140 A 
HETATM    5  N   UNL     1     -43.589 -49.513  12.802  1.00  0.00    -0.346 N 
ATOM      6  HN  UNL     1     -44.340 -48.823  12.750  1.00  0.00     0.167 HD
HETATM    7  C   UNL     1     -43.535 -50.573  13.580  1.00  0.00     0.185 A 
HETATM    8  N   UNL     1     -40.654 -49.021  10.568  1.00  0.00    -0.337 N 
ATOM      9  HN  UNL     1     -40.222 -48.456   9.837  1.00  0.00     0.168 HD
HETATM   10  N   UNL     1     -40.469 -51.013  11.932  1.00  0.00    -0.336 N 
ATOM     11  HN  UNL     1     -39.955 -51.843  12.228  1.00  0.00     0.168 HD
HETATM   12  C   UNL     1     -40.042 -50.137  11.007  1.00  0.00     0.183 A 
ENDROOT
BRANCH   3  13
HETATM   13  N   UNL     1     -42.425 -47.430  10.705  1.00  0.00    -0.352 N 
BRANCH  13  14
HETATM   14  C   UNL     1     -42.015 -46.206  11.412  1.00  0.00     0.179 C 
HETATM   15  C   UNL     1     -42.752 -45.835  12.713  1.00  0.00     0.240 C 
HETATM   16  N   UNL     1     -42.930 -44.455  12.722  1.00  0.00    -0.359 N 
HETATM   17  O   UNL     1     -43.070 -46.553  13.648  1.00  0.00    -0.271 OA
HETATM   18  C   UNL     1     -42.293 -43.837  11.603  1.00  0.00     0.125 C 
HETATM   19  H   UNL     1     -43.249 -43.986  13.561  1.00  0.00     0.162 HD
HETATM   20  C   UNL     1     -42.282 -44.943  10.572  1.00  0.00     0.054 C 
ENDBRANCH  13  14
BRANCH  13  21
HETATM   21  C   UNL     1     -43.225 -47.415   9.484  1.00  0.00     0.121 C 
HETATM   22  C   UNL     1     -44.717 -47.523   9.758  1.00  0.00     0.026 C 
ENDBRANCH  13  21
ENDBRANCH   3  13
BRANCH   2  23
HETATM   23  C   UNL     1     -41.911 -52.394  14.187  1.00  0.00     0.169 C 
BRANCH  23  24
HETATM   24  C   UNL     1     -42.085 -53.806  13.577  1.00  0.00     0.078 C 
HETATM   25  C   UNL     1     -43.516 -53.934  13.018  1.00  0.00     0.066 C 
HETATM   26  C   UNL     1     -44.536 -54.193  14.114  1.00  0.00     0.170 C 
HETATM   27  O   UNL     1     -44.198 -55.391  14.804  1.00  0.00    -0.391 OA
HETATM   28  C   UNL     1     -42.953 -55.286  15.489  1.00  0.00     0.170 C 
HETATM   29  C   UNL     1     -41.804 -54.982  14.531  1.00  0.00     0.066 C 
BRANCH  24  30
HETATM   30  O   UNL     1     -41.210 -53.902  12.437  1.00  0.00    -0.388 OA
HETATM   31  H   UNL     1     -41.537 -53.314  11.734  1.00  0.00     0.210 HD
ENDBRANCH  24  30
ENDBRANCH  23  24
ENDBRANCH   2  23
TORSDOF 6
ENDMDL
MODEL 5
REMARK VINA RESULT:      -6.6      1.774      2.808
REMARK  6 active torsions:
REMARK  status: ('A' for Active; 'I' for Inactive)
REMARK    1  A    between atoms: N_2  and  C_15 
REMARK    2  A    between atoms: C_3  and  N_7 
REMARK    3  A    between atoms: N_7  and  C_9 
REMARK    4  A    between atoms: N_7  and  C_26 
REMARK    5  A    between atoms: C_15  and  C_18 
REMARK    6  A    between atoms: C_18  and  O_25 
ROOT
HETATM    1  C   UNL     1     -41.754 -49.357  11.793  1.00  0.00     0.122 A 
HETATM    2  N   UNL     1     -41.262 -51.127  12.992  1.00  0.00    -0.324 N 
HETATM    3  C   UNL     1     -41.444 -48.162  11.087  1.00  0.00     0.136 A 
HETATM    4  C   UNL     1     -40.694 -50.073  12.329  1.00  0.00     0.140 A 
HETATM    5  N   UNL     1     -42.949 -49.987  12.109  1.00  0.00    -0.346 N 
ATOM      6  HN  UNL     1     -43.890 -49.698  11.838  1.00  0.00     0.167 HD
HETATM    7  C   UNL     1     -42.616 -51.036  12.831  1.00  0.00     0.185 A 
HETATM    8  N   UNL     1     -40.111 -47.873  10.961  1.00  0.00    -0.337 N 
ATOM      9  HN  UNL     1     -39.815 -47.056  10.426  1.00  0.00     0.168 HD
HETATM   10  N   UNL     1     -39.388 -49.790  12.252  1.00  0.00    -0.336 N 
ATOM     11  HN  UNL     1     -38.646 -50.349  12.673  1.00  0.00     0.168 HD
HETATM   12  C   UNL     1     -39.191 -48.667  11.540  1.00  0.00     0.183 A 
ENDROOT
BRANCH   3  13
HETATM   13  N   UNL     1     -42.382 -47.270  10.564  1.00  0.00    -0.352 N 
BRANCH  13  14
HETATM   14  C   UNL     1     -42.497 -45.938  11.182  1.00  0.00     0.179 C 
HETATM   15  C   UNL     1     -41.286 -44.990  11.100  1.00  0.00     0.240 C 
HETATM   16  N   UNL     1     -41.179 -44.328  12.318  1.00  0.00    -0.359 N 
HETATM   17  O   UNL     1     -40.565 -44.746  10.145  1.00  0.00    -0.271 OA
HETATM   18  C   UNL     1     -42.263 -44.656  13.189  1.00  0.00     0.125 C 
HETATM   19  H   UNL     1     -40.549 -43.542  12.421  1.00  0.00     0.162 HD
HETATM   20  C   UNL     1     -42.673 -46.031  12.710  1.00  0.00     0.054 C 
ENDBRANCH  13  14
BRANCH  13  21
HETATM   21  C   UNL     1     -43.045 -47.627   9.313  1.00  0.00     0.121 C 
HETATM   22  C   UNL     1     -43.486 -46.411   8.513  1.00  0.00     0.026 C 
ENDBRANCH  13  21
ENDBRANCH   3  13
BRANCH   2  23
HETATM   23  C   UNL     1     -40.561 -52.038  13.876  1.00  0.00     0.169 C 
BRANCH  23  24
HETATM   24  C   UNL     1     -40.471 -53.511  13.406  1.00  0.00     0.078 C 
HETATM   25  C   UNL     1     -41.768 -54.241  13.807  1.00  0.00     0.066 C 
HETATM   26  C   UNL     1     -41.776 -54.626  15.276  1.00  0.00     0.170 C 
HETATM   27  O   UNL     1     -40.664 -55.468  15.554  1.00  0.00    -0.391 OA
HETATM   28  C   UNL     1     -39.420 -54.800  15.364  1.00  0.00     0.170 C 
HETATM   29  C   UNL     1     -39.258 -54.303  13.930  1.00  0.00     0.066 C 
BRANCH  24  30
HETATM   30  O   UNL     1     -40.451 -53.510  11.967  1.00  0.00    -0.388 OA
HETATM   31  H   UNL     1     -39.674 -53.011  11.658  1.00  0.00     0.210 HD
ENDBRANCH  24  30
ENDBRANCH  23  24
ENDBRANCH   2  23
TORSDOF 6
ENDMDL
MODEL 6
REMARK VINA RESULT:      -6.4      3.237      6.775
REMARK  6 active torsions:
REMARK  status: ('A' for Active; 'I' for Inactive)
REMARK    1  A    between atoms: N_2  and  C_15 
REMARK    2  A    between atoms: C_3  and  N_7 
REMARK    3  A    between atoms: N_7  and  C_9 
REMARK    4  A    between atoms: N_7  and  C_26 
REMARK    5  A    between atoms: C_15  and  C_18 
REMARK    6  A    between atoms: C_18  and  O_25 
ROOT
HETATM    1  C   UNL     1     -42.910 -51.591  13.049  1.00  0.00     0.122 A 
HETATM    2  N   UNL     1     -41.367 -50.417  12.022  1.00  0.00    -0.324 N 
HETATM    3  C   UNL     1     -43.465 -52.786  13.584  1.00  0.00     0.136 A 
HETATM    4  C   UNL     1     -41.635 -51.668  12.508  1.00  0.00     0.140 A 
HETATM    5  N   UNL     1     -43.397 -50.299  12.913  1.00  0.00    -0.346 N 
ATOM      6  HN  UNL     1     -44.299 -49.943  13.231  1.00  0.00     0.167 HD
HETATM    7  C   UNL     1     -42.451 -49.629  12.290  1.00  0.00     0.185 A 
HETATM    8  N   UNL     1     -42.649 -53.886  13.560  1.00  0.00    -0.337 N 
ATOM      9  HN  UNL     1     -42.966 -54.765  13.969  1.00  0.00     0.168 HD
HETATM   10  N   UNL     1     -40.835 -52.739  12.438  1.00  0.00    -0.336 N 
ATOM     11  HN  UNL     1     -39.904 -52.742  12.020  1.00  0.00     0.168 HD
HETATM   12  C   UNL     1     -41.428 -53.808  12.996  1.00  0.00     0.183 A 
ENDROOT
BRANCH   3  13
HETATM   13  N   UNL     1     -44.764 -52.918  14.081  1.00  0.00    -0.352 N 
BRANCH  13  14
HETATM   14  C   UNL     1     -45.040 -52.429  15.442  1.00  0.00     0.179 C 
HETATM   15  C   UNL     1     -45.924 -53.294  16.362  1.00  0.00     0.240 C 
HETATM   16  N   UNL     1     -46.756 -52.440  17.078  1.00  0.00    -0.359 N 
HETATM   17  O   UNL     1     -45.892 -54.501  16.545  1.00  0.00    -0.271 OA
HETATM   18  C   UNL     1     -46.453 -51.070  16.813  1.00  0.00     0.125 C 
HETATM   19  H   UNL     1     -47.303 -52.791  17.855  1.00  0.00     0.162 HD
HETATM   20  C   UNL     1     -45.854 -51.121  15.425  1.00  0.00     0.054 C 
ENDBRANCH  13  14
BRANCH  13  21
HETATM   21  C   UNL     1     -45.812 -53.339  13.157  1.00  0.00     0.121 C 
HETATM   22  C   UNL     1     -46.350 -52.192  12.317  1.00  0.00     0.026 C 
ENDBRANCH  13  21
ENDBRANCH   3  13
BRANCH   2  23
HETATM   23  C   UNL     1     -40.233 -50.065  11.190  1.00  0.00     0.169 C 
BRANCH  23  24
HETATM   24  C   UNL     1     -39.161 -49.161  11.846  1.00  0.00     0.078 C 
HETATM   25  C   UNL     1     -37.764 -49.660  11.425  1.00  0.00     0.066 C 
HETATM   26  C   UNL     1     -37.333 -50.884  12.215  1.00  0.00     0.170 C 
HETATM   27  O   UNL     1     -37.315 -50.572  13.603  1.00  0.00    -0.391 OA
HETATM   28  C   UNL     1     -38.613 -50.260  14.103  1.00  0.00     0.170 C 
HETATM   29  C   UNL     1     -39.224 -49.061  13.382  1.00  0.00     0.066 C 
BRANCH  24  30
HETATM   30  O   UNL     1     -39.292 -47.844  11.280  1.00  0.00    -0.388 OA
HETATM   31  H   UNL     1     -39.744 -47.909  10.420  1.00  0.00     0.210 HD
ENDBRANCH  24  30
ENDBRANCH  23  24
ENDBRANCH   2  23
TORSDOF 6
ENDMDL
MODEL 7
REMARK VINA RESULT:      -6.3      1.786      3.248
REMARK  6 active torsions:
REMARK  status: ('A' for Active; 'I' for Inactive)
REMARK    1  A    between atoms: N_2  and  C_15 
REMARK    2  A    between atoms: C_3  and  N_7 
REMARK    3  A    between atoms: N_7  and  C_9 
REMARK    4  A    between atoms: N_7  and  C_26 
REMARK    5  A    between atoms: C_15  and  C_18 
REMARK    6  A    between atoms: C_18  and  O_25 
ROOT
HETATM    1  C   UNL     1     -41.686 -48.570  11.606  1.00  0.00     0.122 A 
HETATM    2  N   UNL     1     -40.691 -50.401  12.294  1.00  0.00    -0.324 N 
HETATM    3  C   UNL     1     -42.544 -47.446  11.755  1.00  0.00     0.136 A 
HETATM    4  C   UNL     1     -41.499 -49.380  12.717  1.00  0.00     0.140 A 
HETATM    5  N   UNL     1     -40.977 -49.084  10.530  1.00  0.00    -0.346 N 
ATOM      6  HN  UNL     1     -40.915 -48.694   9.589  1.00  0.00     0.167 HD
HETATM    7  C   UNL     1     -40.402 -50.180  10.976  1.00  0.00     0.185 A 
HETATM    8  N   UNL     1     -43.055 -47.247  13.011  1.00  0.00    -0.337 N 
ATOM      9  HN  UNL     1     -43.640 -46.434  13.200  1.00  0.00     0.168 HD
HETATM   10  N   UNL     1     -42.017 -49.228  13.942  1.00  0.00    -0.336 N 
ATOM     11  HN  UNL     1     -41.853 -49.861  14.724  1.00  0.00     0.168 HD
HETATM   12  C   UNL     1     -42.784 -48.125  13.996  1.00  0.00     0.183 A 
ENDROOT
BRANCH   3  13
HETATM   13  N   UNL     1     -42.921 -46.579  10.727  1.00  0.00    -0.352 N 
BRANCH  13  14
HETATM   14  C   UNL     1     -42.132 -45.352  10.527  1.00  0.00     0.179 C 
HETATM   15  C   UNL     1     -40.624 -45.396  10.840  1.00  0.00     0.240 C 
HETATM   16  N   UNL     1     -40.280 -44.195  11.451  1.00  0.00    -0.359 N 
HETATM   17  O   UNL     1     -39.805 -46.254  10.551  1.00  0.00    -0.271 OA
HETATM   18  C   UNL     1     -41.387 -43.293  11.492  1.00  0.00     0.125 C 
HETATM   19  H   UNL     1     -39.307 -43.952  11.592  1.00  0.00     0.162 HD
HETATM   20  C   UNL     1     -42.578 -44.224  11.477  1.00  0.00     0.054 C 
ENDBRANCH  13  14
BRANCH  13  21
HETATM   21  C   UNL     1     -43.938 -47.035   9.784  1.00  0.00     0.121 C 
HETATM   22  C   UNL     1     -43.405 -47.173   8.366  1.00  0.00     0.026 C 
ENDBRANCH  13  21
ENDBRANCH   3  13
BRANCH   2  23
HETATM   23  C   UNL     1     -40.386 -51.598  13.052  1.00  0.00     0.169 C 
BRANCH  23  24
HETATM   24  C   UNL     1     -41.083 -52.899  12.583  1.00  0.00     0.078 C 
HETATM   25  C   UNL     1     -42.590 -52.621  12.411  1.00  0.00     0.066 C 
HETATM   26  C   UNL     1     -43.325 -52.611  13.740  1.00  0.00     0.170 C 
HETATM   27  O   UNL     1     -43.155 -53.866  14.388  1.00  0.00    -0.391 OA
HETATM   28  C   UNL     1     -41.795 -54.117  14.730  1.00  0.00     0.170 C 
HETATM   29  C   UNL     1     -40.893 -54.123  13.498  1.00  0.00     0.066 C 
BRANCH  24  30
HETATM   30  O   UNL     1     -40.590 -53.210  11.267  1.00  0.00    -0.388 OA
HETATM   31  H   UNL     1     -40.129 -52.432  10.907  1.00  0.00     0.210 HD
ENDBRANCH  24  30
ENDBRANCH  23  24
ENDBRANCH   2  23
TORSDOF 6
ENDMDL
MODEL 8
REMARK VINA RESULT:      -6.2      2.384      3.636
REMARK  6 active torsions:
REMARK  status: ('A' for Active; 'I' for Inactive)
REMARK    1  A    between atoms: N_2  and  C_15 
REMARK    2  A    between atoms: C_3  and  N_7 
REMARK    3  A    between atoms: N_7  and  C_9 
REMARK    4  A    between atoms: N_7  and  C_26 
REMARK    5  A    between atoms: C_15  and  C_18 
REMARK    6  A    between atoms: C_18  and  O_25 
ROOT
HETATM    1  C   UNL     1     -41.221 -50.748  12.803  1.00  0.00     0.122 A 
HETATM    2  N   UNL     1     -42.229 -52.627  13.319  1.00  0.00    -0.324 N 
HETATM    3  C   UNL     1     -40.835 -49.398  13.029  1.00  0.00     0.136 A 
HETATM    4  C   UNL     1     -41.941 -51.381  13.806  1.00  0.00     0.140 A 
HETATM    5  N   UNL     1     -41.056 -51.613  11.731  1.00  0.00    -0.346 N 
ATOM      6  HN  UNL     1     -40.557 -51.429  10.860  1.00  0.00     0.167 HD
HETATM    7  C   UNL     1     -41.676 -52.722  12.073  1.00  0.00     0.185 A 
HETATM    8  N   UNL     1     -41.169 -48.879  14.253  1.00  0.00    -0.337 N 
ATOM      9  HN  UNL     1     -40.882 -47.932  14.500  1.00  0.00     0.168 HD
HETATM   10  N   UNL     1     -42.311 -50.882  14.992  1.00  0.00    -0.336 N 
ATOM     11  HN  UNL     1     -42.849 -51.391  15.694  1.00  0.00     0.168 HD
HETATM   12  C   UNL     1     -41.874 -49.619  15.129  1.00  0.00     0.183 A 
ENDROOT
BRANCH   3  13
HETATM   13  N   UNL     1     -40.192 -48.578  12.099  1.00  0.00    -0.352 N 
BRANCH  13  14
HETATM   14  C   UNL     1     -40.845 -47.316  11.715  1.00  0.00     0.179 C 
HETATM   15  C   UNL     1     -41.796 -47.327  10.502  1.00  0.00     0.240 C 
HETATM   16  N   UNL     1     -41.588 -46.152   9.789  1.00  0.00    -0.359 N 
HETATM   17  O   UNL     1     -42.659 -48.139  10.211  1.00  0.00    -0.271 OA
HETATM   18  C   UNL     1     -40.662 -45.291  10.454  1.00  0.00     0.125 C 
HETATM   19  H   UNL     1     -42.224 -45.884   9.047  1.00  0.00     0.162 HD
HETATM   20  C   UNL     1     -39.822 -46.259  11.256  1.00  0.00     0.054 C 
ENDBRANCH  13  14
BRANCH  13  21
HETATM   21  C   UNL     1     -38.822 -48.914  11.721  1.00  0.00     0.121 C 
HETATM   22  C   UNL     1     -37.912 -49.110  12.923  1.00  0.00     0.026 C 
ENDBRANCH  13  21
ENDBRANCH   3  13
BRANCH   2  23
HETATM   23  C   UNL     1     -43.136 -53.578  13.933  1.00  0.00     0.169 C 
BRANCH  23  24
HETATM   24  C   UNL     1     -44.492 -53.788  13.215  1.00  0.00     0.078 C 
HETATM   25  C   UNL     1     -45.199 -52.424  13.080  1.00  0.00     0.066 C 
HETATM   26  C   UNL     1     -45.861 -51.994  14.378  1.00  0.00     0.170 C 
HETATM   27  O   UNL     1     -46.813 -52.973  14.775  1.00  0.00    -0.391 OA
HETATM   28  C   UNL     1     -46.203 -54.225  15.080  1.00  0.00     0.170 C 
HETATM   29  C   UNL     1     -45.449 -54.794  13.881  1.00  0.00     0.066 C 
BRANCH  24  30
HETATM   30  O   UNL     1     -44.213 -54.218  11.870  1.00  0.00    -0.388 OA
HETATM   31  H   UNL     1     -43.254 -54.169  11.711  1.00  0.00     0.210 HD
ENDBRANCH  24  30
ENDBRANCH  23  24
ENDBRANCH   2  23
TORSDOF 6
ENDMDL
MODEL 9
REMARK VINA RESULT:      -6.2      3.662      6.589
REMARK  6 active torsions:
REMARK  status: ('A' for Active; 'I' for Inactive)
REMARK    1  A    between atoms: N_2  and  C_15 
REMARK    2  A    between atoms: C_3  and  N_7 
REMARK    3  A    between atoms: N_7  and  C_9 
REMARK    4  A    between atoms: N_7  and  C_26 
REMARK    5  A    between atoms: C_15  and  C_18 
REMARK    6  A    between atoms: C_18  and  O_25 
ROOT
HETATM    1  C   UNL     1     -43.071 -52.258  15.166  1.00  0.00     0.122 A 
HETATM    2  N   UNL     1     -41.135 -51.300  14.782  1.00  0.00    -0.324 N 
HETATM    3  C   UNL     1     -43.943 -53.373  15.301  1.00  0.00     0.136 A 
HETATM    4  C   UNL     1     -41.731 -52.524  14.924  1.00  0.00     0.140 A 
HETATM    5  N   UNL     1     -43.277 -50.886  15.194  1.00  0.00    -0.346 N 
ATOM      6  HN  UNL     1     -44.156 -50.397  15.365  1.00  0.00     0.167 HD
HETATM    7  C   UNL     1     -42.100 -50.348  14.954  1.00  0.00     0.185 A 
HETATM    8  N   UNL     1     -43.350 -54.606  15.235  1.00  0.00    -0.337 N 
ATOM      9  HN  UNL     1     -43.909 -55.449  15.370  1.00  0.00     0.168 HD
HETATM   10  N   UNL     1     -41.136 -53.718  14.817  1.00  0.00    -0.336 N 
ATOM     11  HN  UNL     1     -40.143 -53.858  14.629  1.00  0.00     0.168 HD
HETATM   12  C   UNL     1     -42.029 -54.707  14.992  1.00  0.00     0.183 A 
ENDROOT
BRANCH   3  13
HETATM   13  N   UNL     1     -45.330 -53.297  15.453  1.00  0.00    -0.352 N 
BRANCH  13  14
HETATM   14  C   UNL     1     -46.151 -53.078  14.250  1.00  0.00     0.179 C 
HETATM   15  C   UNL     1     -45.535 -53.408  12.877  1.00  0.00     0.240 C 
HETATM   16  N   UNL     1     -45.937 -52.423  11.982  1.00  0.00    -0.359 N 
HETATM   17  O   UNL     1     -44.881 -54.384  12.544  1.00  0.00    -0.271 OA
HETATM   18  C   UNL     1     -46.853 -51.509  12.586  1.00  0.00     0.125 C 
HETATM   19  H   UNL     1     -45.777 -52.538  10.989  1.00  0.00     0.162 HD
HETATM   20  C   UNL     1     -46.488 -51.588  14.052  1.00  0.00     0.054 C 
ENDBRANCH  13  14
BRANCH  13  21
HETATM   21  C   UNL     1     -45.897 -53.643  16.753  1.00  0.00     0.121 C 
HETATM   22  C   UNL     1     -46.033 -52.441  17.674  1.00  0.00     0.026 C 
ENDBRANCH  13  21
ENDBRANCH   3  13
BRANCH   2  23
HETATM   23  C   UNL     1     -39.779 -51.076  14.320  1.00  0.00     0.169 C 
BRANCH  23  24
HETATM   24  C   UNL     1     -39.570 -51.087  12.785  1.00  0.00     0.078 C 
HETATM   25  C   UNL     1     -38.102 -50.727  12.480  1.00  0.00     0.066 C 
HETATM   26  C   UNL     1     -37.847 -49.234  12.586  1.00  0.00     0.170 C 
HETATM   27  O   UNL     1     -38.694 -48.540  11.676  1.00  0.00    -0.391 OA
HETATM   28  C   UNL     1     -40.073 -48.694  12.000  1.00  0.00     0.170 C 
HETATM   29  C   UNL     1     -40.500 -50.159  11.981  1.00  0.00     0.066 C 
BRANCH  24  30
HETATM   30  O   UNL     1     -39.744 -52.442  12.330  1.00  0.00    -0.388 OA
HETATM   31  H   UNL     1     -39.288 -53.046  12.942  1.00  0.00     0.210 HD
ENDBRANCH  24  30
ENDBRANCH  23  24
ENDBRANCH   2  23
TORSDOF 6
ENDMDL
