MODEL 1
REMARK VINA RESULT:      -6.1      0.000      0.000
REMARK  4 active torsions:
REMARK  status: ('A' for Active; 'I' for Inactive)
REMARK    1  A    between atoms: O_2  and  C_3 
REMARK    2  A    between atoms: C_6  and  N_7 
REMARK       I    between atoms: N_7  and  C_8 
REMARK    3  A    between atoms: C_8  and  C_10 
REMARK    4  A    between atoms: C_10  and  N_11 
ROOT
HETATM    1  N   UNL     1     -43.694 -50.204  12.563  1.00  0.00    -0.354 N 
HETATM    2  C   UNL     1     -43.145 -48.933  12.529  1.00  0.00     0.236 C 
HETATM    3  O   UNL     1     -43.163 -48.163  13.488  1.00  0.00    -0.272 OA
HETATM    4  H   UNL     1     -43.421 -50.824  11.802  1.00  0.00     0.162 HD
ENDROOT
BRANCH   1   5
HETATM    5  C   UNL     1     -44.387 -50.717  13.770  1.00  0.00     0.098 C 
HETATM    6  C   UNL     1     -43.715 -51.954  14.408  1.00  0.00     0.064 C 
HETATM    7  C   UNL     1     -44.747 -52.878  13.688  1.00  0.00     0.067 C 
HETATM    8  C   UNL     1     -44.111 -53.500  12.441  1.00  0.00     0.047 C 
HETATM    9  C   UNL     1     -45.668 -51.588  13.542  1.00  0.00     0.004 C 
HETATM   10  C   UNL     1     -46.418 -51.444  12.220  1.00  0.00     0.020 C 
HETATM   11  C   UNL     1     -46.653 -51.361  14.711  1.00  0.00     0.020 C 
BRANCH   7  12
HETATM   12  O   UNL     1     -45.275 -53.936  14.537  1.00  0.00    -0.384 OA
HETATM   13  C   UNL     1     -45.562 -55.195  13.939  1.00  0.00     0.202 C 
ENDBRANCH   7  12
ENDBRANCH   1   5
BRANCH   2  14
HETATM   14  C   UNL     1     -42.452 -48.574  11.216  1.00  0.00     0.234 C 
BRANCH  14  15
HETATM   15  N   UNL     1     -43.257 -47.638  10.440  1.00  0.00    -0.316 N 
HETATM   16  C   UNL     1     -44.572 -47.950  10.139  1.00  0.00     0.095 A 
HETATM   17  C   UNL     1     -45.331 -47.115   9.417  1.00  0.00     0.017 A 
HETATM   18  C   UNL     1     -44.782 -45.872   8.940  1.00  0.00     0.007 A 
HETATM   19  C   UNL     1     -43.519 -45.529   9.234  1.00  0.00     0.074 A 
HETATM   20  C   UNL     1     -42.670 -46.434  10.055  1.00  0.00     0.247 A 
HETATM   21  O   UNL     1     -41.527 -46.103  10.359  1.00  0.00    -0.268 OA
ENDBRANCH  14  15
ENDBRANCH   2  14
TORSDOF 4
ENDMDL
MODEL 2
REMARK VINA RESULT:      -5.9      4.454      6.840
REMARK  4 active torsions:
REMARK  status: ('A' for Active; 'I' for Inactive)
REMARK    1  A    between atoms: O_2  and  C_3 
REMARK    2  A    between atoms: C_6  and  N_7 
REMARK       I    between atoms: N_7  and  C_8 
REMARK    3  A    between atoms: C_8  and  C_10 
REMARK    4  A    between atoms: C_10  and  N_11 
ROOT
HETATM    1  N   UNL     1     -42.893 -53.814  14.428  1.00  0.00    -0.354 N 
HETATM    2  C   UNL     1     -43.590 -54.967  14.749  1.00  0.00     0.236 C 
HETATM    3  O   UNL     1     -43.129 -55.859  15.458  1.00  0.00    -0.272 OA
HETATM    4  H   UNL     1     -43.449 -53.056  14.034  1.00  0.00     0.162 HD
ENDROOT
BRANCH   1   5
HETATM    5  C   UNL     1     -41.503 -53.591  14.897  1.00  0.00     0.098 C 
HETATM    6  C   UNL     1     -41.132 -52.104  15.097  1.00  0.00     0.064 C 
HETATM    7  C   UNL     1     -40.432 -52.099  13.701  1.00  0.00     0.067 C 
HETATM    8  C   UNL     1     -41.353 -51.458  12.657  1.00  0.00     0.047 C 
HETATM    9  C   UNL     1     -40.365 -53.683  13.826  1.00  0.00     0.004 C 
HETATM   10  C   UNL     1     -40.635 -54.470  12.545  1.00  0.00     0.020 C 
HETATM   11  C   UNL     1     -39.081 -54.226  14.493  1.00  0.00     0.020 C 
BRANCH   7  12
HETATM   12  O   UNL     1     -39.148 -51.412  13.696  1.00  0.00    -0.384 OA
HETATM   13  C   UNL     1     -38.839 -50.579  12.584  1.00  0.00     0.202 C 
ENDBRANCH   7  12
ENDBRANCH   1   5
BRANCH   2  14
HETATM   14  C   UNL     1     -45.014 -55.022  14.201  1.00  0.00     0.234 C 
BRANCH  14  15
HETATM   15  N   UNL     1     -45.682 -53.736  14.355  1.00  0.00    -0.316 N 
HETATM   16  C   UNL     1     -46.199 -53.374  15.588  1.00  0.00     0.095 A 
HETATM   17  C   UNL     1     -46.829 -52.205  15.755  1.00  0.00     0.017 A 
HETATM   18  C   UNL     1     -46.981 -51.302  14.644  1.00  0.00     0.007 A 
HETATM   19  C   UNL     1     -46.472 -51.611  13.442  1.00  0.00     0.074 A 
HETATM   20  C   UNL     1     -45.748 -52.896  13.245  1.00  0.00     0.247 A 
HETATM   21  O   UNL     1     -45.246 -53.163  12.156  1.00  0.00    -0.268 OA
ENDBRANCH  14  15
ENDBRANCH   2  14
TORSDOF 4
ENDMDL
MODEL 3
REMARK VINA RESULT:      -5.7      4.111      5.291
REMARK  4 active torsions:
REMARK  status: ('A' for Active; 'I' for Inactive)
REMARK    1  A    between atoms: O_2  and  C_3 
REMARK    2  A    between atoms: C_6  and  N_7 
REMARK       I    between atoms: N_7  and  C_8 
REMARK    3  A    between atoms: C_8  and  C_10 
REMARK    4  A    between atoms: C_10  and  N_11 
ROOT
HETATM    1  N   UNL     1     -41.336 -52.827  14.158  1.00  0.00    -0.354 N 
HETATM    2  C   UNL     1     -39.990 -53.063  13.931  1.00  0.00     0.236 C 
HETATM    3  O   UNL     1     -39.573 -54.016  13.276  1.00  0.00    -0.272 OA
HETATM    4  H   UNL     1     -41.569 -51.899  14.509  1.00  0.00     0.162 HD
ENDROOT
BRANCH   1   5
HETATM    5  C   UNL     1     -42.382 -53.746  13.647  1.00  0.00     0.098 C 
HETATM    6  C   UNL     1     -43.028 -53.295  12.317  1.00  0.00     0.064 C 
HETATM    7  C   UNL     1     -44.237 -52.709  13.112  1.00  0.00     0.067 C 
HETATM    8  C   UNL     1     -44.085 -51.190  13.251  1.00  0.00     0.047 C 
HETATM    9  C   UNL     1     -43.797 -53.658  14.311  1.00  0.00     0.004 C 
HETATM   10  C   UNL     1     -43.905 -53.062  15.714  1.00  0.00     0.020 C 
HETATM   11  C   UNL     1     -44.451 -55.057  14.303  1.00  0.00     0.020 C 
BRANCH   7  12
HETATM   12  O   UNL     1     -45.530 -53.010  12.513  1.00  0.00    -0.384 OA
HETATM   13  C   UNL     1     -46.509 -51.978  12.480  1.00  0.00     0.202 C 
ENDBRANCH   7  12
ENDBRANCH   1   5
BRANCH   2  14
HETATM   14  C   UNL     1     -39.052 -52.005  14.510  1.00  0.00     0.234 C 
BRANCH  14  15
HETATM   15  N   UNL     1     -38.923 -50.871  13.603  1.00  0.00    -0.316 N 
HETATM   16  C   UNL     1     -39.793 -49.800  13.716  1.00  0.00     0.095 A 
HETATM   17  C   UNL     1     -39.707 -48.751  12.888  1.00  0.00     0.017 A 
HETATM   18  C   UNL     1     -38.700 -48.725  11.860  1.00  0.00     0.007 A 
HETATM   19  C   UNL     1     -37.826 -49.735  11.738  1.00  0.00     0.074 A 
HETATM   20  C   UNL     1     -37.893 -50.897  12.665  1.00  0.00     0.247 A 
HETATM   21  O   UNL     1     -37.069 -51.805  12.580  1.00  0.00    -0.268 OA
ENDBRANCH  14  15
ENDBRANCH   2  14
TORSDOF 4
ENDMDL
MODEL 4
REMARK VINA RESULT:      -5.7      2.353      3.585
REMARK  4 active torsions:
REMARK  status: ('A' for Active; 'I' for Inactive)
REMARK    1  A    between atoms: O_2  and  C_3 
REMARK    2  A    between atoms: C_6  and  N_7 
REMARK       I    between atoms: N_7  and  C_8 
REMARK    3  A    between atoms: C_8  and  C_10 
REMARK    4  A    between atoms: C_10  and  N_11 
ROOT
HETATM    1  N   UNL     1     -43.901 -50.317  12.940  1.00  0.00    -0.354 N 
HETATM    2  C   UNL     1     -43.100 -49.200  13.110  1.00  0.00     0.236 C 
HETATM    3  O   UNL     1     -42.937 -48.645  14.195  1.00  0.00    -0.272 OA
HETATM    4  H   UNL     1     -43.779 -50.819  12.061  1.00  0.00     0.162 HD
ENDROOT
BRANCH   1   5
HETATM    5  C   UNL     1     -44.660 -50.907  14.069  1.00  0.00     0.098 C 
HETATM    6  C   UNL     1     -44.017 -52.177  14.670  1.00  0.00     0.064 C 
HETATM    7  C   UNL     1     -44.997 -53.060  13.834  1.00  0.00     0.067 C 
HETATM    8  C   UNL     1     -44.281 -53.602  12.592  1.00  0.00     0.047 C 
HETATM    9  C   UNL     1     -45.918 -51.768  13.712  1.00  0.00     0.004 C 
HETATM   10  C   UNL     1     -46.589 -51.547  12.358  1.00  0.00     0.020 C 
HETATM   11  C   UNL     1     -46.973 -51.617  14.831  1.00  0.00     0.020 C 
BRANCH   7  12
HETATM   12  O   UNL     1     -45.565 -54.170  14.585  1.00  0.00    -0.384 OA
HETATM   13  C   UNL     1     -45.726 -55.417  13.918  1.00  0.00     0.202 C 
ENDBRANCH   7  12
ENDBRANCH   1   5
BRANCH   2  14
HETATM   14  C   UNL     1     -42.375 -48.739  11.847  1.00  0.00     0.234 C 
BRANCH  14  15
HETATM   15  N   UNL     1     -40.936 -48.940  11.969  1.00  0.00    -0.316 N 
HETATM   16  C   UNL     1     -40.111 -47.856  12.215  1.00  0.00     0.095 A 
HETATM   17  C   UNL     1     -38.784 -48.008  12.318  1.00  0.00     0.017 A 
HETATM   18  C   UNL     1     -38.195 -49.314  12.172  1.00  0.00     0.007 A 
HETATM   19  C   UNL     1     -38.969 -50.388  11.957  1.00  0.00     0.074 A 
HETATM   20  C   UNL     1     -40.446 -50.240  11.863  1.00  0.00     0.247 A 
HETATM   21  O   UNL     1     -41.159 -51.228  11.707  1.00  0.00    -0.268 OA
ENDBRANCH  14  15
ENDBRANCH   2  14
TORSDOF 4
ENDMDL
MODEL 5
REMARK VINA RESULT:      -5.6      4.351      5.322
REMARK  4 active torsions:
REMARK  status: ('A' for Active; 'I' for Inactive)
REMARK    1  A    between atoms: O_2  and  C_3 
REMARK    2  A    between atoms: C_6  and  N_7 
REMARK       I    between atoms: N_7  and  C_8 
REMARK    3  A    between atoms: C_8  and  C_10 
REMARK    4  A    between atoms: C_10  and  N_11 
ROOT
HETATM    1  N   UNL     1     -41.683 -53.050  14.030  1.00  0.00    -0.354 N 
HETATM    2  C   UNL     1     -40.530 -53.018  13.263  1.00  0.00     0.236 C 
HETATM    3  O   UNL     1     -40.493 -53.366  12.084  1.00  0.00    -0.272 OA
HETATM    4  H   UNL     1     -41.645 -52.530  14.906  1.00  0.00     0.162 HD
ENDROOT
BRANCH   1   5
HETATM    5  C   UNL     1     -42.966 -53.551  13.481  1.00  0.00     0.098 C 
HETATM    6  C   UNL     1     -43.867 -52.452  12.873  1.00  0.00     0.064 C 
HETATM    7  C   UNL     1     -44.697 -52.412  14.195  1.00  0.00     0.067 C 
HETATM    8  C   UNL     1     -44.262 -51.216  15.049  1.00  0.00     0.047 C 
HETATM    9  C   UNL     1     -44.110 -53.857  14.505  1.00  0.00     0.004 C 
HETATM   10  C   UNL     1     -43.729 -54.130  15.959  1.00  0.00     0.020 C 
HETATM   11  C   UNL     1     -44.965 -55.031  13.977  1.00  0.00     0.020 C 
BRANCH   7  12
HETATM   12  O   UNL     1     -46.136 -52.349  13.978  1.00  0.00    -0.384 OA
HETATM   13  C   UNL     1     -46.891 -51.429  14.757  1.00  0.00     0.202 C 
ENDBRANCH   7  12
ENDBRANCH   1   5
BRANCH   2  14
HETATM   14  C   UNL     1     -39.304 -52.454  13.979  1.00  0.00     0.234 C 
BRANCH  14  15
HETATM   15  N   UNL     1     -39.007 -51.103  13.519  1.00  0.00    -0.316 N 
HETATM   16  C   UNL     1     -39.832 -50.055  13.891  1.00  0.00     0.095 A 
HETATM   17  C   UNL     1     -39.592 -48.806  13.472  1.00  0.00     0.017 A 
HETATM   18  C   UNL     1     -38.463 -48.536  12.619  1.00  0.00     0.007 A 
HETATM   19  C   UNL     1     -37.632 -49.525  12.260  1.00  0.00     0.074 A 
HETATM   20  C   UNL     1     -37.871 -50.914  12.736  1.00  0.00     0.247 A 
HETATM   21  O   UNL     1     -37.087 -51.813  12.440  1.00  0.00    -0.268 OA
ENDBRANCH  14  15
ENDBRANCH   2  14
TORSDOF 4
ENDMDL
MODEL 6
REMARK VINA RESULT:      -5.5      4.033      5.140
REMARK  4 active torsions:
REMARK  status: ('A' for Active; 'I' for Inactive)
REMARK    1  A    between atoms: O_2  and  C_3 
REMARK    2  A    between atoms: C_6  and  N_7 
REMARK       I    between atoms: N_7  and  C_8 
REMARK    3  A    between atoms: C_8  and  C_10 
REMARK    4  A    between atoms: C_10  and  N_11 
ROOT
HETATM    1  N   UNL     1     -42.510 -52.009  12.324  1.00  0.00    -0.354 N 
HETATM    2  C   UNL     1     -41.149 -52.113  12.088  1.00  0.00     0.236 C 
HETATM    3  O   UNL     1     -40.534 -53.177  12.138  1.00  0.00    -0.272 OA
HETATM    4  H   UNL     1     -42.943 -51.134  12.033  1.00  0.00     0.162 HD
ENDROOT
BRANCH   1   5
HETATM    5  C   UNL     1     -43.325 -53.191  12.696  1.00  0.00     0.098 C 
HETATM    6  C   UNL     1     -44.839 -53.026  12.429  1.00  0.00     0.064 C 
HETATM    7  C   UNL     1     -45.058 -52.672  13.933  1.00  0.00     0.067 C 
HETATM    8  C   UNL     1     -45.188 -51.154  14.099  1.00  0.00     0.047 C 
HETATM    9  C   UNL     1     -43.660 -53.379  14.214  1.00  0.00     0.004 C 
HETATM   10  C   UNL     1     -42.760 -52.702  15.245  1.00  0.00     0.020 C 
HETATM   11  C   UNL     1     -43.750 -54.888  14.533  1.00  0.00     0.020 C 
BRANCH   7  12
HETATM   12  O   UNL     1     -46.221 -53.321  14.522  1.00  0.00    -0.384 OA
HETATM   13  C   UNL     1     -47.079 -52.540  15.345  1.00  0.00     0.202 C 
ENDBRANCH   7  12
ENDBRANCH   1   5
BRANCH   2  14
HETATM   14  C   UNL     1     -40.469 -50.803  11.697  1.00  0.00     0.234 C 
BRANCH  14  15
HETATM   15  N   UNL     1     -39.700 -50.261  12.811  1.00  0.00    -0.316 N 
HETATM   16  C   UNL     1     -40.346 -49.554  13.810  1.00  0.00     0.095 A 
HETATM   17  C   UNL     1     -39.664 -49.033  14.838  1.00  0.00     0.017 A 
HETATM   18  C   UNL     1     -38.236 -49.204  14.916  1.00  0.00     0.007 A 
HETATM   19  C   UNL     1     -37.583 -49.903  13.977  1.00  0.00     0.074 A 
HETATM   20  C   UNL     1     -38.329 -50.508  12.841  1.00  0.00     0.247 A 
HETATM   21  O   UNL     1     -37.738 -51.183  12.001  1.00  0.00    -0.268 OA
ENDBRANCH  14  15
ENDBRANCH   2  14
TORSDOF 4
ENDMDL
MODEL 7
REMARK VINA RESULT:      -5.5      2.168      3.420
REMARK  4 active torsions:
REMARK  status: ('A' for Active; 'I' for Inactive)
REMARK    1  A    between atoms: O_2  and  C_3 
REMARK    2  A    between atoms: C_6  and  N_7 
REMARK       I    between atoms: N_7  and  C_8 
REMARK    3  A    between atoms: C_8  and  C_10 
REMARK    4  A    between atoms: C_10  and  N_11 
ROOT
HETATM    1  N   UNL     1     -42.314 -51.658  12.074  1.00  0.00    -0.354 N 
HETATM    2  C   UNL     1     -40.962 -51.364  12.000  1.00  0.00     0.236 C 
HETATM    3  O   UNL     1     -40.080 -52.148  12.348  1.00  0.00    -0.272 OA
HETATM    4  H   UNL     1     -42.930 -51.037  11.552  1.00  0.00     0.162 HD
ENDROOT
BRANCH   1   5
HETATM    5  C   UNL     1     -42.798 -52.949  12.622  1.00  0.00     0.098 C 
HETATM    6  C   UNL     1     -44.260 -53.286  12.249  1.00  0.00     0.064 C 
HETATM    7  C   UNL     1     -44.728 -52.765  13.645  1.00  0.00     0.067 C 
HETATM    8  C   UNL     1     -45.296 -51.348  13.511  1.00  0.00     0.047 C 
HETATM    9  C   UNL     1     -43.226 -52.970  14.128  1.00  0.00     0.004 C 
HETATM   10  C   UNL     1     -42.666 -51.894  15.056  1.00  0.00     0.020 C 
HETATM   11  C   UNL     1     -42.921 -54.362  14.724  1.00  0.00     0.020 C 
BRANCH   7  12
HETATM   12  O   UNL     1     -45.717 -53.621  14.285  1.00  0.00    -0.384 OA
HETATM   13  C   UNL     1     -46.864 -53.006  14.859  1.00  0.00     0.202 C 
ENDBRANCH   7  12
ENDBRANCH   1   5
BRANCH   2  14
HETATM   14  C   UNL     1     -40.639 -50.002  11.392  1.00  0.00     0.234 C 
BRANCH  14  15
HETATM   15  N   UNL     1     -41.432 -48.950  12.017  1.00  0.00    -0.316 N 
HETATM   16  C   UNL     1     -41.387 -48.783  13.391  1.00  0.00     0.095 A 
HETATM   17  C   UNL     1     -42.115 -47.835  13.995  1.00  0.00     0.017 A 
HETATM   18  C   UNL     1     -42.962 -46.971  13.215  1.00  0.00     0.007 A 
HETATM   19  C   UNL     1     -43.011 -47.091  11.881  1.00  0.00     0.074 A 
HETATM   20  C   UNL     1     -42.190 -48.123  11.192  1.00  0.00     0.247 A 
HETATM   21  O   UNL     1     -42.204 -48.208   9.966  1.00  0.00    -0.268 OA
ENDBRANCH  14  15
ENDBRANCH   2  14
TORSDOF 4
ENDMDL
MODEL 8
REMARK VINA RESULT:      -5.4      4.505      6.839
REMARK  4 active torsions:
REMARK  status: ('A' for Active; 'I' for Inactive)
REMARK    1  A    between atoms: O_2  and  C_3 
REMARK    2  A    between atoms: C_6  and  N_7 
REMARK       I    between atoms: N_7  and  C_8 
REMARK    3  A    between atoms: C_8  and  C_10 
REMARK    4  A    between atoms: C_10  and  N_11 
ROOT
HETATM    1  N   UNL     1     -41.892 -53.939  13.524  1.00  0.00    -0.354 N 
HETATM    2  C   UNL     1     -42.752 -53.154  12.774  1.00  0.00     0.236 C 
HETATM    3  O   UNL     1     -42.419 -52.087  12.262  1.00  0.00    -0.272 OA
HETATM    4  H   UNL     1     -42.204 -54.894  13.698  1.00  0.00     0.162 HD
ENDROOT
BRANCH   1   5
HETATM    5  C   UNL     1     -40.496 -53.518  13.797  1.00  0.00     0.098 C 
HETATM    6  C   UNL     1     -39.523 -54.688  14.069  1.00  0.00     0.064 C 
HETATM    7  C   UNL     1     -39.669 -54.443  15.604  1.00  0.00     0.067 C 
HETATM    8  C   UNL     1     -40.645 -55.459  16.206  1.00  0.00     0.047 C 
HETATM    9  C   UNL     1     -40.180 -52.982  15.233  1.00  0.00     0.004 C 
HETATM   10  C   UNL     1     -41.333 -52.440  16.076  1.00  0.00     0.020 C 
HETATM   11  C   UNL     1     -39.070 -51.911  15.144  1.00  0.00     0.020 C 
BRANCH   7  12
HETATM   12  O   UNL     1     -38.406 -54.503  16.326  1.00  0.00    -0.384 OA
HETATM   13  C   UNL     1     -38.355 -55.271  17.523  1.00  0.00     0.202 C 
ENDBRANCH   7  12
ENDBRANCH   1   5
BRANCH   2  14
HETATM   14  C   UNL     1     -44.145 -53.748  12.574  1.00  0.00     0.234 C 
BRANCH  14  15
HETATM   15  N   UNL     1     -45.103 -53.154  13.498  1.00  0.00    -0.316 N 
HETATM   16  C   UNL     1     -45.817 -52.030  13.116  1.00  0.00     0.095 A 
HETATM   17  C   UNL     1     -46.694 -51.454  13.949  1.00  0.00     0.017 A 
HETATM   18  C   UNL     1     -46.904 -52.001  15.264  1.00  0.00     0.007 A 
HETATM   19  C   UNL     1     -46.246 -53.102  15.656  1.00  0.00     0.074 A 
HETATM   20  C   UNL     1     -45.286 -53.768  14.735  1.00  0.00     0.247 A 
HETATM   21  O   UNL     1     -44.713 -54.798  15.078  1.00  0.00    -0.268 OA
ENDBRANCH  14  15
ENDBRANCH   2  14
TORSDOF 4
ENDMDL
MODEL 9
REMARK VINA RESULT:      -5.3      3.621      4.657
REMARK  4 active torsions:
REMARK  status: ('A' for Active; 'I' for Inactive)
REMARK    1  A    between atoms: O_2  and  C_3 
REMARK    2  A    between atoms: C_6  and  N_7 
REMARK       I    between atoms: N_7  and  C_8 
REMARK    3  A    between atoms: C_8  and  C_10 
REMARK    4  A    between atoms: C_10  and  N_11 
ROOT
HETATM    1  N   UNL     1     -40.861 -48.917  12.127  1.00  0.00    -0.354 N 
HETATM    2  C   UNL     1     -40.724 -47.597  11.732  1.00  0.00     0.236 C 
HETATM    3  O   UNL     1     -39.764 -47.182  11.084  1.00  0.00    -0.272 OA
HETATM    4  H   UNL     1     -41.789 -49.187  12.451  1.00  0.00     0.162 HD
ENDROOT
BRANCH   1   5
HETATM    5  C   UNL     1     -39.822 -49.931  11.823  1.00  0.00     0.098 C 
HETATM    6  C   UNL     1     -40.322 -51.392  11.894  1.00  0.00     0.064 C 
HETATM    7  C   UNL     1     -39.719 -51.520  13.329  1.00  0.00     0.067 C 
HETATM    8  C   UNL     1     -40.826 -51.366  14.377  1.00  0.00     0.047 C 
HETATM    9  C   UNL     1     -38.802 -50.272  12.961  1.00  0.00     0.004 C 
HETATM   10  C   UNL     1     -38.584 -49.247  14.072  1.00  0.00     0.020 C 
HETATM   11  C   UNL     1     -37.439 -50.634  12.330  1.00  0.00     0.020 C 
BRANCH   7  12
HETATM   12  O   UNL     1     -39.014 -52.774  13.555  1.00  0.00    -0.384 OA
HETATM   13  C   UNL     1     -39.219 -53.443  14.794  1.00  0.00     0.202 C 
ENDBRANCH   7  12
ENDBRANCH   1   5
BRANCH   2  14
HETATM   14  C   UNL     1     -41.896 -46.694  12.110  1.00  0.00     0.234 C 
BRANCH  14  15
HETATM   15  N   UNL     1     -42.864 -46.613  11.022  1.00  0.00    -0.316 N 
HETATM   16  C   UNL     1     -43.816 -47.608  10.876  1.00  0.00     0.095 A 
HETATM   17  C   UNL     1     -44.709 -47.567   9.878  1.00  0.00     0.017 A 
HETATM   18  C   UNL     1     -44.687 -46.478   8.937  1.00  0.00     0.007 A 
HETATM   19  C   UNL     1     -43.794 -45.486   9.064  1.00  0.00     0.074 A 
HETATM   20  C   UNL     1     -42.810 -45.504  10.180  1.00  0.00     0.247 A 
HETATM   21  O   UNL     1     -42.017 -44.577  10.321  1.00  0.00    -0.268 OA
ENDBRANCH  14  15
ENDBRANCH   2  14
TORSDOF 4
ENDMDL
