MODEL 1
REMARK VINA RESULT:      -5.7      0.000      0.000
REMARK  5 active torsions:
REMARK  status: ('A' for Active; 'I' for Inactive)
REMARK    1  A    between atoms: C_2  and  N_3 
REMARK    2  A    between atoms: C_5  and  N_6 
REMARK       I    between atoms: N_6  and  C_7 
REMARK       I    between atoms: C_7  and  N_9 
REMARK    3  A    between atoms: N_9  and  C_10 
REMARK    4  A    between atoms: N_13  and  C_14 
REMARK    5  A    between atoms: C_14  and  C_15 
REMARK       I    between atoms: C_15  and  N_17 
ROOT
HETATM    1  N   UNL     1     -41.316 -49.425  10.883  1.00  0.00    -0.306 N 
HETATM    2  C   UNL     1     -41.783 -50.042  12.022  1.00  0.00     0.321 C 
HETATM    3  O   UNL     1     -42.629 -49.592  12.790  1.00  0.00    -0.247 OA
HETATM    4  N   UNL     1     -41.182 -51.263  12.255  1.00  0.00    -0.338 N 
HETATM    5  H   UNL     1     -40.736 -49.951  10.247  1.00  0.00     0.171 HD
HETATM    6  H   UNL     1     -40.283 -51.404  11.822  1.00  0.00     0.164 HD
ENDROOT
BRANCH   4   7
HETATM    7  C   UNL     1     -41.426 -51.914  13.548  1.00  0.00     0.089 C 
HETATM    8  C   UNL     1     -40.265 -51.688  14.517  1.00  0.00     0.055 C 
HETATM    9  C   UNL     1     -39.106 -52.643  14.253  1.00  0.00     0.275 C 
HETATM   10  N   UNL     1     -39.487 -54.064  14.281  1.00  0.00     0.097 N 
HETATM   11  C   UNL     1     -40.536 -54.307  13.276  1.00  0.00     0.275 C 
HETATM   12  C   UNL     1     -41.769 -53.406  13.402  1.00  0.00     0.055 C 
BRANCH  10  13
HETATM   13  C   UNL     1     -39.915 -54.525  15.626  1.00  0.00     0.374 C 
BRANCH  13  14
HETATM   14  C   UNL     1     -39.115 -55.750  16.070  1.00  0.00     0.243 C 
HETATM   15  O   UNL     1     -39.620 -56.758  16.551  1.00  0.00    -0.272 OA
HETATM   16  N   UNL     1     -37.763 -55.651  15.882  1.00  0.00    -0.369 N 
HETATM   17  H   UNL     1     -37.364 -54.724  15.795  1.00  0.00     0.159 HD
HETATM   18  H   UNL     1     -37.194 -56.386  16.278  1.00  0.00     0.159 HD
ENDBRANCH  13  14
ENDBRANCH  10  13
ENDBRANCH   4   7
BRANCH   1  19
HETATM   19  C   UNL     1     -41.708 -48.155  10.488  1.00  0.00     0.070 A 
HETATM   20  C   UNL     1     -42.871 -47.801   9.848  1.00  0.00     0.141 A 
HETATM   21  N   UNL     1     -42.808 -46.460   9.630  1.00  0.00    -0.302 N 
HETATM   22  N   UNL     1     -41.693 -45.890  10.127  1.00  0.00    -0.308 N 
HETATM   23  C   UNL     1     -41.025 -46.927  10.650  1.00  0.00     0.138 A 
ATOM     24  HN  UNL     1     -41.423 -44.906  10.110  1.00  0.00     0.186 HD
BRANCH  21  25
HETATM   25  C   UNL     1     -43.802 -45.674   8.926  1.00  0.00     0.143 C 
HETATM   26  C   UNL     1     -45.153 -46.366   8.897  1.00  0.00     0.028 C 
ENDBRANCH  21  25
ENDBRANCH   1  19
TORSDOF 5
ENDMDL
MODEL 2
REMARK VINA RESULT:      -5.6      3.266      4.318
REMARK  5 active torsions:
REMARK  status: ('A' for Active; 'I' for Inactive)
REMARK    1  A    between atoms: C_2  and  N_3 
REMARK    2  A    between atoms: C_5  and  N_6 
REMARK       I    between atoms: N_6  and  C_7 
REMARK       I    between atoms: C_7  and  N_9 
REMARK    3  A    between atoms: N_9  and  C_10 
REMARK    4  A    between atoms: N_13  and  C_14 
REMARK    5  A    between atoms: C_14  and  C_15 
REMARK       I    between atoms: C_15  and  N_17 
ROOT
HETATM    1  N   UNL     1     -41.911 -49.040  10.903  1.00  0.00    -0.306 N 
HETATM    2  C   UNL     1     -42.505 -49.443  12.078  1.00  0.00     0.321 C 
HETATM    3  O   UNL     1     -42.896 -48.705  12.978  1.00  0.00    -0.247 OA
HETATM    4  N   UNL     1     -42.620 -50.816  12.177  1.00  0.00    -0.338 N 
HETATM    5  H   UNL     1     -41.770 -49.718  10.170  1.00  0.00     0.171 HD
HETATM    6  H   UNL     1     -41.984 -51.355  11.609  1.00  0.00     0.164 HD
ENDROOT
BRANCH   4   7
HETATM    7  C   UNL     1     -43.028 -51.381  13.468  1.00  0.00     0.089 C 
HETATM    8  C   UNL     1     -42.330 -52.714  13.743  1.00  0.00     0.055 C 
HETATM    9  C   UNL     1     -43.007 -53.874  13.020  1.00  0.00     0.275 C 
HETATM   10  N   UNL     1     -44.440 -54.009  13.324  1.00  0.00     0.097 N 
HETATM   11  C   UNL     1     -45.135 -52.760  12.965  1.00  0.00     0.275 C 
HETATM   12  C   UNL     1     -44.555 -51.495  13.606  1.00  0.00     0.055 C 
BRANCH  10  13
HETATM   13  C   UNL     1     -44.703 -54.382  14.737  1.00  0.00     0.374 C 
BRANCH  13  14
HETATM   14  C   UNL     1     -46.189 -54.251  15.075  1.00  0.00     0.243 C 
HETATM   15  O   UNL     1     -46.646 -53.388  15.814  1.00  0.00    -0.272 OA
HETATM   16  N   UNL     1     -46.997 -55.179  14.476  1.00  0.00    -0.369 N 
HETATM   17  H   UNL     1     -46.572 -56.038  14.151  1.00  0.00     0.159 HD
HETATM   18  H   UNL     1     -47.962 -55.200  14.774  1.00  0.00     0.159 HD
ENDBRANCH  13  14
ENDBRANCH  10  13
ENDBRANCH   4   7
BRANCH   1  19
HETATM   19  C   UNL     1     -41.613 -47.717  10.615  1.00  0.00     0.070 A 
HETATM   20  C   UNL     1     -40.492 -47.013  10.984  1.00  0.00     0.141 A 
HETATM   21  N   UNL     1     -40.648 -45.748  10.512  1.00  0.00    -0.302 N 
HETATM   22  N   UNL     1     -41.785 -45.576   9.810  1.00  0.00    -0.308 N 
HETATM   23  C   UNL     1     -42.370 -46.779   9.875  1.00  0.00     0.138 A 
ATOM     24  HN  UNL     1     -42.119 -44.732   9.342  1.00  0.00     0.186 HD
BRANCH  21  25
HETATM   25  C   UNL     1     -39.726 -44.650  10.726  1.00  0.00     0.143 C 
HETATM   26  C   UNL     1     -40.440 -43.393  11.191  1.00  0.00     0.028 C 
ENDBRANCH  21  25
ENDBRANCH   1  19
TORSDOF 5
ENDMDL
MODEL 3
REMARK VINA RESULT:      -5.5      4.012      4.597
REMARK  5 active torsions:
REMARK  status: ('A' for Active; 'I' for Inactive)
REMARK    1  A    between atoms: C_2  and  N_3 
REMARK    2  A    between atoms: C_5  and  N_6 
REMARK       I    between atoms: N_6  and  C_7 
REMARK       I    between atoms: C_7  and  N_9 
REMARK    3  A    between atoms: N_9  and  C_10 
REMARK    4  A    between atoms: N_13  and  C_14 
REMARK    5  A    between atoms: C_14  and  C_15 
REMARK       I    between atoms: C_15  and  N_17 
ROOT
HETATM    1  N   UNL     1     -41.555 -47.693  10.170  1.00  0.00    -0.306 N 
HETATM    2  C   UNL     1     -41.325 -48.552  11.221  1.00  0.00     0.321 C 
HETATM    3  O   UNL     1     -42.115 -49.386  11.656  1.00  0.00    -0.247 OA
HETATM    4  N   UNL     1     -40.077 -48.385  11.787  1.00  0.00    -0.338 N 
HETATM    5  H   UNL     1     -40.784 -47.159   9.799  1.00  0.00     0.171 HD
HETATM    6  H   UNL     1     -39.640 -47.489  11.637  1.00  0.00     0.164 HD
ENDROOT
BRANCH   4   7
HETATM    7  C   UNL     1     -39.794 -49.080  13.049  1.00  0.00     0.089 C 
HETATM    8  C   UNL     1     -39.880 -48.128  14.243  1.00  0.00     0.055 C 
HETATM    9  C   UNL     1     -38.607 -47.305  14.410  1.00  0.00     0.275 C 
HETATM   10  N   UNL     1     -37.385 -48.116  14.526  1.00  0.00     0.097 N 
HETATM   11  C   UNL     1     -37.245 -48.962  13.328  1.00  0.00     0.275 C 
HETATM   12  C   UNL     1     -38.460 -49.841  13.017  1.00  0.00     0.055 C 
BRANCH  10  13
HETATM   13  C   UNL     1     -37.343 -48.931  15.766  1.00  0.00     0.374 C 
BRANCH  13  14
HETATM   14  C   UNL     1     -35.904 -49.149  16.235  1.00  0.00     0.243 C 
HETATM   15  O   UNL     1     -35.025 -48.298  16.159  1.00  0.00    -0.272 OA
HETATM   16  N   UNL     1     -35.655 -50.385  16.767  1.00  0.00    -0.369 N 
HETATM   17  H   UNL     1     -36.284 -51.141  16.524  1.00  0.00     0.159 HD
HETATM   18  H   UNL     1     -34.690 -50.607  16.970  1.00  0.00     0.159 HD
ENDBRANCH  13  14
ENDBRANCH  10  13
ENDBRANCH   4   7
BRANCH   1  19
HETATM   19  C   UNL     1     -42.766 -47.617   9.499  1.00  0.00     0.070 A 
HETATM   20  C   UNL     1     -43.975 -47.202  10.002  1.00  0.00     0.141 A 
HETATM   21  N   UNL     1     -44.883 -47.327   8.998  1.00  0.00    -0.302 N 
HETATM   22  N   UNL     1     -44.345 -47.758   7.840  1.00  0.00    -0.308 N 
HETATM   23  C   UNL     1     -43.053 -47.933   8.150  1.00  0.00     0.138 A 
ATOM     24  HN  UNL     1     -44.809 -47.914   6.944  1.00  0.00     0.186 HD
BRANCH  21  25
HETATM   25  C   UNL     1     -46.303 -47.056   9.108  1.00  0.00     0.143 C 
HETATM   26  C   UNL     1     -47.129 -48.329   9.039  1.00  0.00     0.028 C 
ENDBRANCH  21  25
ENDBRANCH   1  19
TORSDOF 5
ENDMDL
MODEL 4
REMARK VINA RESULT:      -5.5      3.177      8.515
REMARK  5 active torsions:
REMARK  status: ('A' for Active; 'I' for Inactive)
REMARK    1  A    between atoms: C_2  and  N_3 
REMARK    2  A    between atoms: C_5  and  N_6 
REMARK       I    between atoms: N_6  and  C_7 
REMARK       I    between atoms: C_7  and  N_9 
REMARK    3  A    between atoms: N_9  and  C_10 
REMARK    4  A    between atoms: N_13  and  C_14 
REMARK    5  A    between atoms: C_14  and  C_15 
REMARK       I    between atoms: C_15  and  N_17 
ROOT
HETATM    1  N   UNL     1     -42.656 -51.849  12.117  1.00  0.00    -0.306 N 
HETATM    2  C   UNL     1     -42.628 -50.604  12.705  1.00  0.00     0.321 C 
HETATM    3  O   UNL     1     -42.968 -50.343  13.856  1.00  0.00    -0.247 OA
HETATM    4  N   UNL     1     -42.180 -49.617  11.849  1.00  0.00    -0.338 N 
HETATM    5  H   UNL     1     -42.211 -51.975  11.221  1.00  0.00     0.171 HD
HETATM    6  H   UNL     1     -42.263 -49.815  10.864  1.00  0.00     0.164 HD
ENDROOT
BRANCH   4   7
HETATM    7  C   UNL     1     -42.314 -48.220  12.280  1.00  0.00     0.089 C 
HETATM    8  C   UNL     1     -42.816 -47.330  11.142  1.00  0.00     0.055 C 
HETATM    9  C   UNL     1     -41.692 -46.930  10.191  1.00  0.00     0.275 C 
HETATM   10  N   UNL     1     -40.557 -46.270  10.856  1.00  0.00     0.097 N 
HETATM   11  C   UNL     1     -40.006 -47.168  11.886  1.00  0.00     0.275 C 
HETATM   12  C   UNL     1     -41.026 -47.671  12.912  1.00  0.00     0.055 C 
BRANCH  10  13
HETATM   13  C   UNL     1     -40.908 -44.946  11.430  1.00  0.00     0.374 C 
BRANCH  13  14
HETATM   14  C   UNL     1     -40.280 -43.810  10.621  1.00  0.00     0.243 C 
HETATM   15  O   UNL     1     -39.731 -43.967   9.537  1.00  0.00    -0.272 OA
HETATM   16  N   UNL     1     -40.382 -42.573  11.196  1.00  0.00    -0.369 N 
HETATM   17  H   UNL     1     -40.540 -42.527  12.195  1.00  0.00     0.159 HD
HETATM   18  H   UNL     1     -39.871 -41.823  10.753  1.00  0.00     0.159 HD
ENDBRANCH  13  14
ENDBRANCH  10  13
ENDBRANCH   4   7
BRANCH   1  19
HETATM   19  C   UNL     1     -43.147 -52.980  12.750  1.00  0.00     0.070 A 
HETATM   20  C   UNL     1     -44.436 -53.454  12.733  1.00  0.00     0.141 A 
HETATM   21  N   UNL     1     -44.459 -54.564  13.519  1.00  0.00    -0.302 N 
HETATM   22  N   UNL     1     -43.252 -54.886  14.024  1.00  0.00    -0.308 N 
HETATM   23  C   UNL     1     -42.455 -53.918  13.553  1.00  0.00     0.138 A 
ATOM     24  HN  UNL     1     -43.005 -55.676  14.621  1.00  0.00     0.186 HD
BRANCH  21  25
HETATM   25  C   UNL     1     -45.636 -55.351  13.830  1.00  0.00     0.143 C 
HETATM   26  C   UNL     1     -46.573 -54.617  14.774  1.00  0.00     0.028 C 
ENDBRANCH  21  25
ENDBRANCH   1  19
TORSDOF 5
ENDMDL
MODEL 5
REMARK VINA RESULT:      -5.4      1.239      1.860
REMARK  5 active torsions:
REMARK  status: ('A' for Active; 'I' for Inactive)
REMARK    1  A    between atoms: C_2  and  N_3 
REMARK    2  A    between atoms: C_5  and  N_6 
REMARK       I    between atoms: N_6  and  C_7 
REMARK       I    between atoms: C_7  and  N_9 
REMARK    3  A    between atoms: N_9  and  C_10 
REMARK    4  A    between atoms: N_13  and  C_14 
REMARK    5  A    between atoms: C_14  and  C_15 
REMARK       I    between atoms: C_15  and  N_17 
ROOT
HETATM    1  N   UNL     1     -41.982 -49.150  10.966  1.00  0.00    -0.306 N 
HETATM    2  C   UNL     1     -42.336 -49.848  12.099  1.00  0.00     0.321 C 
HETATM    3  O   UNL     1     -42.985 -49.407  13.044  1.00  0.00    -0.247 OA
HETATM    4  N   UNL     1     -41.866 -51.147  12.097  1.00  0.00    -0.338 N 
HETATM    5  H   UNL     1     -41.583 -49.652  10.188  1.00  0.00     0.171 HD
HETATM    6  H   UNL     1     -41.073 -51.329  11.502  1.00  0.00     0.164 HD
ENDROOT
BRANCH   4   7
HETATM    7  C   UNL     1     -41.982 -51.923  13.337  1.00  0.00     0.089 C 
HETATM    8  C   UNL     1     -40.773 -51.705  14.249  1.00  0.00     0.055 C 
HETATM    9  C   UNL     1     -39.579 -52.554  13.828  1.00  0.00     0.275 C 
HETATM   10  N   UNL     1     -39.871 -53.994  13.750  1.00  0.00     0.097 N 
HETATM   11  C   UNL     1     -40.970 -54.218  12.794  1.00  0.00     0.275 C 
HETATM   12  C   UNL     1     -42.243 -53.415  13.078  1.00  0.00     0.055 C 
BRANCH  10  13
HETATM   13  C   UNL     1     -40.178 -54.598  15.072  1.00  0.00     0.374 C 
BRANCH  13  14
HETATM   14  C   UNL     1     -38.899 -55.030  15.791  1.00  0.00     0.243 C 
HETATM   15  O   UNL     1     -38.214 -55.985  15.448  1.00  0.00    -0.272 OA
HETATM   16  N   UNL     1     -38.556 -54.256  16.866  1.00  0.00    -0.369 N 
HETATM   17  H   UNL     1     -39.284 -53.703  17.303  1.00  0.00     0.159 HD
HETATM   18  H   UNL     1     -37.791 -54.585  17.438  1.00  0.00     0.159 HD
ENDBRANCH  13  14
ENDBRANCH  10  13
ENDBRANCH   4   7
BRANCH   1  19
HETATM   19  C   UNL     1     -42.267 -47.806  10.779  1.00  0.00     0.070 A 
HETATM   20  C   UNL     1     -41.486 -46.730  11.128  1.00  0.00     0.141 A 
HETATM   21  N   UNL     1     -42.182 -45.612  10.787  1.00  0.00    -0.302 N 
HETATM   22  N   UNL     1     -43.360 -45.877  10.189  1.00  0.00    -0.308 N 
HETATM   23  C   UNL     1     -43.408 -47.216  10.186  1.00  0.00     0.138 A 
ATOM     24  HN  UNL     1     -44.049 -45.217   9.826  1.00  0.00     0.186 HD
BRANCH  21  25
HETATM   25  C   UNL     1     -41.755 -44.248  11.032  1.00  0.00     0.143 C 
HETATM   26  C   UNL     1     -40.248 -44.099  10.926  1.00  0.00     0.028 C 
ENDBRANCH  21  25
ENDBRANCH   1  19
TORSDOF 5
ENDMDL
MODEL 6
REMARK VINA RESULT:      -5.3      3.017      8.779
REMARK  5 active torsions:
REMARK  status: ('A' for Active; 'I' for Inactive)
REMARK    1  A    between atoms: C_2  and  N_3 
REMARK    2  A    between atoms: C_5  and  N_6 
REMARK       I    between atoms: N_6  and  C_7 
REMARK       I    between atoms: C_7  and  N_9 
REMARK    3  A    between atoms: N_9  and  C_10 
REMARK    4  A    between atoms: N_13  and  C_14 
REMARK    5  A    between atoms: C_14  and  C_15 
REMARK       I    between atoms: C_15  and  N_17 
ROOT
HETATM    1  N   UNL     1     -41.777 -50.908  11.691  1.00  0.00    -0.306 N 
HETATM    2  C   UNL     1     -41.415 -49.798  12.420  1.00  0.00     0.321 C 
HETATM    3  O   UNL     1     -41.152 -49.777  13.620  1.00  0.00    -0.247 OA
HETATM    4  N   UNL     1     -41.384 -48.644  11.661  1.00  0.00    -0.338 N 
HETATM    5  H   UNL     1     -41.821 -50.839  10.686  1.00  0.00     0.171 HD
HETATM    6  H   UNL     1     -41.936 -48.655  10.818  1.00  0.00     0.164 HD
ENDROOT
BRANCH   4   7
HETATM    7  C   UNL     1     -41.233 -47.363  12.361  1.00  0.00     0.089 C 
HETATM    8  C   UNL     1     -42.475 -46.487  12.200  1.00  0.00     0.055 C 
HETATM    9  C   UNL     1     -42.489 -45.755  10.862  1.00  0.00     0.275 C 
HETATM   10  N   UNL     1     -41.289 -44.940  10.617  1.00  0.00     0.097 N 
HETATM   11  C   UNL     1     -40.094 -45.802  10.671  1.00  0.00     0.275 C 
HETATM   12  C   UNL     1     -39.950 -46.619  11.959  1.00  0.00     0.055 C 
BRANCH  10  13
HETATM   13  C   UNL     1     -41.165 -43.792  11.551  1.00  0.00     0.374 C 
BRANCH  13  14
HETATM   14  C   UNL     1     -42.316 -42.802  11.364  1.00  0.00     0.243 C 
HETATM   15  O   UNL     1     -42.595 -42.275  10.294  1.00  0.00    -0.272 OA
HETATM   16  N   UNL     1     -43.039 -42.543  12.497  1.00  0.00    -0.369 N 
HETATM   17  H   UNL     1     -42.601 -42.729  13.391  1.00  0.00     0.159 HD
HETATM   18  H   UNL     1     -43.724 -41.803  12.440  1.00  0.00     0.159 HD
ENDBRANCH  13  14
ENDBRANCH  10  13
ENDBRANCH   4   7
BRANCH   1  19
HETATM   19  C   UNL     1     -41.958 -52.163  12.252  1.00  0.00     0.070 A 
HETATM   20  C   UNL     1     -43.084 -52.645  12.875  1.00  0.00     0.141 A 
HETATM   21  N   UNL     1     -42.792 -53.904  13.297  1.00  0.00    -0.302 N 
HETATM   22  N   UNL     1     -41.553 -54.309  12.954  1.00  0.00    -0.308 N 
HETATM   23  C   UNL     1     -41.049 -53.244  12.317  1.00  0.00     0.138 A 
ATOM     24  HN  UNL     1     -41.108 -55.209  13.136  1.00  0.00     0.186 HD
BRANCH  21  25
HETATM   25  C   UNL     1     -43.677 -54.764  14.058  1.00  0.00     0.143 C 
HETATM   26  C   UNL     1     -45.116 -54.653  13.585  1.00  0.00     0.028 C 
ENDBRANCH  21  25
ENDBRANCH   1  19
TORSDOF 5
ENDMDL
MODEL 7
REMARK VINA RESULT:      -5.3      3.336      3.805
REMARK  5 active torsions:
REMARK  status: ('A' for Active; 'I' for Inactive)
REMARK    1  A    between atoms: C_2  and  N_3 
REMARK    2  A    between atoms: C_5  and  N_6 
REMARK       I    between atoms: N_6  and  C_7 
REMARK       I    between atoms: C_7  and  N_9 
REMARK    3  A    between atoms: N_9  and  C_10 
REMARK    4  A    between atoms: N_13  and  C_14 
REMARK    5  A    between atoms: C_14  and  C_15 
REMARK       I    between atoms: C_15  and  N_17 
ROOT
HETATM    1  N   UNL     1     -41.900 -48.158   9.914  1.00  0.00    -0.306 N 
HETATM    2  C   UNL     1     -41.115 -47.937  11.023  1.00  0.00     0.321 C 
HETATM    3  O   UNL     1     -41.309 -47.083  11.884  1.00  0.00    -0.247 OA
HETATM    4  N   UNL     1     -40.027 -48.785  11.089  1.00  0.00    -0.338 N 
HETATM    5  H   UNL     1     -41.735 -48.982   9.357  1.00  0.00     0.171 HD
HETATM    6  H   UNL     1     -39.731 -49.192  10.215  1.00  0.00     0.164 HD
ENDROOT
BRANCH   4   7
HETATM    7  C   UNL     1     -38.997 -48.506  12.096  1.00  0.00     0.089 C 
HETATM    8  C   UNL     1     -37.772 -49.401  11.907  1.00  0.00     0.055 C 
HETATM    9  C   UNL     1     -37.980 -50.790  12.502  1.00  0.00     0.275 C 
HETATM   10  N   UNL     1     -38.352 -50.776  13.926  1.00  0.00     0.097 N 
HETATM   11  C   UNL     1     -39.591 -49.998  14.099  1.00  0.00     0.275 C 
HETATM   12  C   UNL     1     -39.541 -48.576  13.532  1.00  0.00     0.055 C 
BRANCH  10  13
HETATM   13  C   UNL     1     -37.270 -50.266  14.805  1.00  0.00     0.374 C 
BRANCH  13  14
HETATM   14  C   UNL     1     -37.660 -50.376  16.280  1.00  0.00     0.243 C 
HETATM   15  O   UNL     1     -37.787 -49.412  17.026  1.00  0.00    -0.272 OA
HETATM   16  N   UNL     1     -37.872 -51.653  16.723  1.00  0.00    -0.369 N 
HETATM   17  H   UNL     1     -37.457 -52.412  16.197  1.00  0.00     0.159 HD
HETATM   18  H   UNL     1     -38.007 -51.772  17.717  1.00  0.00     0.159 HD
ENDBRANCH  13  14
ENDBRANCH  10  13
ENDBRANCH   4   7
BRANCH   1  19
HETATM   19  C   UNL     1     -42.999 -47.378   9.589  1.00  0.00     0.070 A 
HETATM   20  C   UNL     1     -44.320 -47.753   9.590  1.00  0.00     0.141 A 
HETATM   21  N   UNL     1     -45.036 -46.676   9.171  1.00  0.00    -0.302 N 
HETATM   22  N   UNL     1     -44.277 -45.589   8.934  1.00  0.00    -0.308 N 
HETATM   23  C   UNL     1     -43.035 -46.021   9.190  1.00  0.00     0.138 A 
ATOM     24  HN  UNL     1     -44.575 -44.661   8.632  1.00  0.00     0.186 HD
BRANCH  21  25
HETATM   25  C   UNL     1     -46.471 -46.647   8.966  1.00  0.00     0.143 C 
HETATM   26  C   UNL     1     -47.069 -48.043   8.953  1.00  0.00     0.028 C 
ENDBRANCH  21  25
ENDBRANCH   1  19
TORSDOF 5
ENDMDL
MODEL 8
REMARK VINA RESULT:      -5.1      4.114      8.513
REMARK  5 active torsions:
REMARK  status: ('A' for Active; 'I' for Inactive)
REMARK    1  A    between atoms: C_2  and  N_3 
REMARK    2  A    between atoms: C_5  and  N_6 
REMARK       I    between atoms: N_6  and  C_7 
REMARK       I    between atoms: C_7  and  N_9 
REMARK    3  A    between atoms: N_9  and  C_10 
REMARK    4  A    between atoms: N_13  and  C_14 
REMARK    5  A    between atoms: C_14  and  C_15 
REMARK       I    between atoms: C_15  and  N_17 
ROOT
HETATM    1  N   UNL     1     -44.756 -51.141  13.203  1.00  0.00    -0.306 N 
HETATM    2  C   UNL     1     -43.425 -50.816  13.062  1.00  0.00     0.321 C 
HETATM    3  O   UNL     1     -42.477 -51.438  13.533  1.00  0.00    -0.247 OA
HETATM    4  N   UNL     1     -43.230 -49.666  12.322  1.00  0.00    -0.338 N 
HETATM    5  H   UNL     1     -45.440 -50.650  12.648  1.00  0.00     0.171 HD
HETATM    6  H   UNL     1     -44.012 -49.031  12.278  1.00  0.00     0.164 HD
ENDROOT
BRANCH   4   7
HETATM    7  C   UNL     1     -41.880 -49.091  12.287  1.00  0.00     0.089 C 
HETATM    8  C   UNL     1     -41.802 -47.796  13.097  1.00  0.00     0.055 C 
HETATM    9  C   UNL     1     -42.333 -46.599  12.314  1.00  0.00     0.275 C 
HETATM   10  N   UNL     1     -41.671 -46.397  11.016  1.00  0.00     0.097 N 
HETATM   11  C   UNL     1     -41.832 -47.608  10.192  1.00  0.00     0.275 C 
HETATM   12  C   UNL     1     -41.355 -48.904  10.855  1.00  0.00     0.055 C 
BRANCH  10  13
HETATM   13  C   UNL     1     -40.240 -46.022  11.144  1.00  0.00     0.374 C 
BRANCH  13  14
HETATM   14  C   UNL     1     -39.894 -44.847  10.228  1.00  0.00     0.243 C 
HETATM   15  O   UNL     1     -40.377 -43.727  10.342  1.00  0.00    -0.272 OA
HETATM   16  N   UNL     1     -38.978 -45.132   9.252  1.00  0.00    -0.369 N 
HETATM   17  H   UNL     1     -38.853 -46.102   8.988  1.00  0.00     0.159 HD
HETATM   18  H   UNL     1     -38.821 -44.418   8.554  1.00  0.00     0.159 HD
ENDBRANCH  13  14
ENDBRANCH  10  13
ENDBRANCH   4   7
BRANCH   1  19
HETATM   19  C   UNL     1     -45.203 -52.204  13.972  1.00  0.00     0.070 A 
HETATM   20  C   UNL     1     -45.333 -52.249  15.340  1.00  0.00     0.141 A 
HETATM   21  N   UNL     1     -45.771 -53.498  15.652  1.00  0.00    -0.302 N 
HETATM   22  N   UNL     1     -45.985 -54.275  14.573  1.00  0.00    -0.308 N 
HETATM   23  C   UNL     1     -45.637 -53.482  13.551  1.00  0.00     0.138 A 
ATOM     24  HN  UNL     1     -46.328 -55.236  14.542  1.00  0.00     0.186 HD
BRANCH  21  25
HETATM   25  C   UNL     1     -45.987 -54.003  16.994  1.00  0.00     0.143 C 
HETATM   26  C   UNL     1     -45.993 -52.886  18.024  1.00  0.00     0.028 C 
ENDBRANCH  21  25
ENDBRANCH   1  19
TORSDOF 5
ENDMDL
MODEL 9
REMARK VINA RESULT:      -5.1      6.652      8.103
REMARK  5 active torsions:
REMARK  status: ('A' for Active; 'I' for Inactive)
REMARK    1  A    between atoms: C_2  and  N_3 
REMARK    2  A    between atoms: C_5  and  N_6 
REMARK       I    between atoms: N_6  and  C_7 
REMARK       I    between atoms: C_7  and  N_9 
REMARK    3  A    between atoms: N_9  and  C_10 
REMARK    4  A    between atoms: N_13  and  C_14 
REMARK    5  A    between atoms: C_14  and  C_15 
REMARK       I    between atoms: C_15  and  N_17 
ROOT
HETATM    1  N   UNL     1     -47.508 -51.791  16.905  1.00  0.00    -0.306 N 
HETATM    2  C   UNL     1     -46.358 -52.548  16.931  1.00  0.00     0.321 C 
HETATM    3  O   UNL     1     -45.691 -52.811  17.928  1.00  0.00    -0.247 OA
HETATM    4  N   UNL     1     -45.984 -52.999  15.681  1.00  0.00    -0.338 N 
HETATM    5  H   UNL     1     -48.057 -51.767  16.059  1.00  0.00     0.171 HD
HETATM    6  H   UNL     1     -46.341 -52.474  14.897  1.00  0.00     0.164 HD
ENDROOT
BRANCH   4   7
HETATM    7  C   UNL     1     -44.664 -53.624  15.541  1.00  0.00     0.089 C 
HETATM    8  C   UNL     1     -43.569 -52.577  15.327  1.00  0.00     0.055 C 
HETATM    9  C   UNL     1     -43.502 -52.108  13.877  1.00  0.00     0.275 C 
HETATM   10  N   UNL     1     -43.322 -53.199  12.906  1.00  0.00     0.097 N 
HETATM   11  C   UNL     1     -44.433 -54.159  13.040  1.00  0.00     0.275 C 
HETATM   12  C   UNL     1     -44.638 -54.711  14.454  1.00  0.00     0.055 C 
BRANCH  10  13
HETATM   13  C   UNL     1     -42.008 -53.878  13.031  1.00  0.00     0.374 C 
BRANCH  13  14
HETATM   14  C   UNL     1     -40.896 -53.051  12.384  1.00  0.00     0.243 C 
HETATM   15  O   UNL     1     -39.821 -52.814  12.921  1.00  0.00    -0.272 OA
HETATM   16  N   UNL     1     -41.183 -52.586  11.129  1.00  0.00    -0.369 N 
HETATM   17  H   UNL     1     -42.157 -52.521  10.859  1.00  0.00     0.159 HD
HETATM   18  H   UNL     1     -40.526 -51.934  10.724  1.00  0.00     0.159 HD
ENDBRANCH  13  14
ENDBRANCH  10  13
ENDBRANCH   4   7
BRANCH   1  19
HETATM   19  C   UNL     1     -48.031 -51.160  18.023  1.00  0.00     0.070 A 
HETATM   20  C   UNL     1     -48.042 -49.814  18.295  1.00  0.00     0.141 A 
HETATM   21  N   UNL     1     -48.624 -49.663  19.515  1.00  0.00    -0.302 N 
HETATM   22  N   UNL     1     -49.043 -50.824  20.055  1.00  0.00    -0.308 N 
HETATM   23  C   UNL     1     -48.680 -51.735  19.142  1.00  0.00     0.138 A 
ATOM     24  HN  UNL     1     -49.521 -50.973  20.944  1.00  0.00     0.186 HD
BRANCH  21  25
HETATM   25  C   UNL     1     -48.788 -48.406  20.219  1.00  0.00     0.143 C 
HETATM   26  C   UNL     1     -48.863 -47.228  19.264  1.00  0.00     0.028 C 
ENDBRANCH  21  25
ENDBRANCH   1  19
TORSDOF 5
ENDMDL
