MODEL 1
REMARK VINA RESULT:      -5.7      0.000      0.000
REMARK  4 active torsions:
REMARK  status: ('A' for Active; 'I' for Inactive)
REMARK    1  A    between atoms: C_2  and  N_3 
REMARK    2  A    between atoms: C_2  and  C_16 
REMARK       I    between atoms: N_3  and  C_4 
REMARK    3  A    between atoms: C_4  and  C_6 
REMARK    4  A    between atoms: C_6  and  N_7 
ROOT
HETATM    1  N   UNL     1     -42.328 -51.075  12.086  1.00  0.00    -0.353 N 
HETATM    2  C   UNL     1     -41.637 -49.900  12.296  1.00  0.00     0.236 C 
HETATM    3  O   UNL     1     -41.479 -49.416  13.415  1.00  0.00    -0.272 OA
HETATM    4  H   UNL     1     -42.622 -51.299  11.141  1.00  0.00     0.163 HD
ENDROOT
BRANCH   2   5
HETATM    5  C   UNL     1     -40.975 -49.303  11.055  1.00  0.00     0.235 C 
BRANCH   5   6
HETATM    6  N   UNL     1     -41.490 -47.960  10.759  1.00  0.00    -0.301 N 
HETATM    7  C   UNL     1     -42.739 -47.831  10.193  1.00  0.00     0.102 A 
HETATM    8  C   UNL     1     -43.268 -46.641   9.921  1.00  0.00     0.092 A 
HETATM    9  C   UNL     1     -42.488 -45.425  10.185  1.00  0.00     0.252 A 
HETATM   10  O   UNL     1     -42.999 -44.334   9.947  1.00  0.00    -0.268 OA
HETATM   11  N   UNL     1     -41.209 -45.618  10.675  1.00  0.00    -0.271 N 
HETATM   12  C   UNL     1     -40.350 -44.464  10.843  1.00  0.00     0.164 C 
HETATM   13  C   UNL     1     -40.692 -46.856  11.054  1.00  0.00     0.331 A 
HETATM   14  O   UNL     1     -39.595 -46.970  11.604  1.00  0.00    -0.246 OA
ENDBRANCH   5   6
ENDBRANCH   2   5
BRANCH   1  15
HETATM   15  C   UNL     1     -43.012 -51.775  13.178  1.00  0.00     0.109 C 
HETATM   16  C   UNL     1     -43.000 -53.274  12.871  1.00  0.00     0.035 C 
BRANCH  15  17
HETATM   17  C   UNL     1     -44.425 -51.197  13.402  1.00  0.00     0.143 C 
HETATM   18  C   UNL     1     -44.825 -51.010  14.863  1.00  0.00     0.036 C 
HETATM   19  C   UNL     1     -46.298 -51.370  14.909  1.00  0.00     0.029 C 
HETATM   20  C   UNL     1     -46.662 -51.690  13.476  1.00  0.00     0.168 C 
HETATM   21  O   UNL     1     -45.435 -52.052  12.834  1.00  0.00    -0.384 OA
ENDBRANCH  15  17
ENDBRANCH   1  15
TORSDOF 4
ENDMDL
MODEL 2
REMARK VINA RESULT:      -5.7      2.605      7.332
REMARK  4 active torsions:
REMARK  status: ('A' for Active; 'I' for Inactive)
REMARK    1  A    between atoms: C_2  and  N_3 
REMARK    2  A    between atoms: C_2  and  C_16 
REMARK       I    between atoms: N_3  and  C_4 
REMARK    3  A    between atoms: C_4  and  C_6 
REMARK    4  A    between atoms: C_6  and  N_7 
ROOT
HETATM    1  N   UNL     1     -41.980 -50.510  11.864  1.00  0.00    -0.353 N 
HETATM    2  C   UNL     1     -40.962 -51.332  12.301  1.00  0.00     0.236 C 
HETATM    3  O   UNL     1     -40.033 -50.923  12.994  1.00  0.00    -0.272 OA
HETATM    4  H   UNL     1     -42.580 -50.842  11.116  1.00  0.00     0.163 HD
ENDROOT
BRANCH   2   5
HETATM    5  C   UNL     1     -41.131 -52.813  11.965  1.00  0.00     0.235 C 
BRANCH   5   6
HETATM    6  N   UNL     1     -41.787 -53.545  13.057  1.00  0.00    -0.301 N 
HETATM    7  C   UNL     1     -41.016 -54.050  14.081  1.00  0.00     0.102 A 
HETATM    8  C   UNL     1     -41.553 -54.704  15.108  1.00  0.00     0.092 A 
HETATM    9  C   UNL     1     -43.003 -54.939  15.137  1.00  0.00     0.252 A 
HETATM   10  O   UNL     1     -43.486 -55.527  16.101  1.00  0.00    -0.268 OA
HETATM   11  N   UNL     1     -43.715 -54.483  14.042  1.00  0.00    -0.271 N 
HETATM   12  C   UNL     1     -45.128 -54.789  13.958  1.00  0.00     0.164 C 
HETATM   13  C   UNL     1     -43.169 -53.712  13.017  1.00  0.00     0.331 A 
HETATM   14  O   UNL     1     -43.863 -53.218  12.125  1.00  0.00    -0.246 OA
ENDBRANCH   5   6
ENDBRANCH   2   5
BRANCH   1  15
HETATM   15  C   UNL     1     -41.967 -49.065  12.114  1.00  0.00     0.109 C 
HETATM   16  C   UNL     1     -42.997 -48.757  13.203  1.00  0.00     0.035 C 
BRANCH  15  17
HETATM   17  C   UNL     1     -42.190 -48.278  10.806  1.00  0.00     0.143 C 
HETATM   18  C   UNL     1     -41.381 -46.990  10.678  1.00  0.00     0.036 C 
HETATM   19  C   UNL     1     -42.313 -46.016   9.984  1.00  0.00     0.029 C 
HETATM   20  C   UNL     1     -43.571 -46.811   9.713  1.00  0.00     0.168 C 
HETATM   21  O   UNL     1     -43.567 -47.881  10.663  1.00  0.00    -0.384 OA
ENDBRANCH  15  17
ENDBRANCH   1  15
TORSDOF 4
ENDMDL
MODEL 3
REMARK VINA RESULT:      -5.6      4.210      7.736
REMARK  4 active torsions:
REMARK  status: ('A' for Active; 'I' for Inactive)
REMARK    1  A    between atoms: C_2  and  N_3 
REMARK    2  A    between atoms: C_2  and  C_16 
REMARK       I    between atoms: N_3  and  C_4 
REMARK    3  A    between atoms: C_4  and  C_6 
REMARK    4  A    between atoms: C_6  and  N_7 
ROOT
HETATM    1  N   UNL     1     -39.690 -52.414  14.986  1.00  0.00    -0.353 N 
HETATM    2  C   UNL     1     -39.791 -53.660  14.402  1.00  0.00     0.236 C 
HETATM    3  O   UNL     1     -38.935 -54.104  13.639  1.00  0.00    -0.272 OA
HETATM    4  H   UNL     1     -40.519 -52.012  15.410  1.00  0.00     0.163 HD
ENDROOT
BRANCH   2   5
HETATM    5  C   UNL     1     -40.981 -54.500  14.863  1.00  0.00     0.235 C 
BRANCH   5   6
HETATM    6  N   UNL     1     -42.206 -54.152  14.131  1.00  0.00    -0.301 N 
HETATM    7  C   UNL     1     -42.153 -53.174  13.164  1.00  0.00     0.102 A 
HETATM    8  C   UNL     1     -43.224 -52.828  12.453  1.00  0.00     0.092 A 
HETATM    9  C   UNL     1     -44.515 -53.471  12.733  1.00  0.00     0.252 A 
HETATM   10  O   UNL     1     -45.489 -53.155  12.054  1.00  0.00    -0.268 OA
HETATM   11  N   UNL     1     -44.527 -54.385  13.770  1.00  0.00    -0.271 N 
HETATM   12  C   UNL     1     -45.793 -54.963  14.170  1.00  0.00     0.164 C 
HETATM   13  C   UNL     1     -43.388 -54.820  14.447  1.00  0.00     0.331 A 
HETATM   14  O   UNL     1     -43.424 -55.729  15.278  1.00  0.00    -0.246 OA
ENDBRANCH   5   6
ENDBRANCH   2   5
BRANCH   1  15
HETATM   15  C   UNL     1     -38.599 -51.492  14.653  1.00  0.00     0.109 C 
HETATM   16  C   UNL     1     -38.556 -50.394  15.718  1.00  0.00     0.035 C 
BRANCH  15  17
HETATM   17  C   UNL     1     -38.750 -50.958  13.214  1.00  0.00     0.143 C 
HETATM   18  C   UNL     1     -37.468 -50.956  12.385  1.00  0.00     0.036 C 
HETATM   19  C   UNL     1     -37.547 -49.689  11.555  1.00  0.00     0.029 C 
HETATM   20  C   UNL     1     -38.879 -49.071  11.918  1.00  0.00     0.168 C 
HETATM   21  O   UNL     1     -39.211 -49.593  13.209  1.00  0.00    -0.384 OA
ENDBRANCH  15  17
ENDBRANCH   1  15
TORSDOF 4
ENDMDL
MODEL 4
REMARK VINA RESULT:      -5.5      4.756      6.117
REMARK  4 active torsions:
REMARK  status: ('A' for Active; 'I' for Inactive)
REMARK    1  A    between atoms: C_2  and  N_3 
REMARK    2  A    between atoms: C_2  and  C_16 
REMARK       I    between atoms: N_3  and  C_4 
REMARK    3  A    between atoms: C_4  and  C_6 
REMARK    4  A    between atoms: C_6  and  N_7 
ROOT
HETATM    1  N   UNL     1     -44.788 -51.970  12.645  1.00  0.00    -0.353 N 
HETATM    2  C   UNL     1     -43.927 -53.025  12.426  1.00  0.00     0.236 C 
HETATM    3  O   UNL     1     -44.307 -54.194  12.393  1.00  0.00    -0.272 OA
HETATM    4  H   UNL     1     -44.393 -51.069  12.891  1.00  0.00     0.163 HD
ENDROOT
BRANCH   2   5
HETATM    5  C   UNL     1     -42.485 -52.633  12.104  1.00  0.00     0.235 C 
BRANCH   5   6
HETATM    6  N   UNL     1     -41.587 -52.894  13.237  1.00  0.00    -0.301 N 
HETATM    7  C   UNL     1     -40.870 -54.070  13.265  1.00  0.00     0.102 A 
HETATM    8  C   UNL     1     -40.025 -54.355  14.253  1.00  0.00     0.092 A 
HETATM    9  C   UNL     1     -39.880 -53.415  15.373  1.00  0.00     0.252 A 
HETATM   10  O   UNL     1     -39.081 -53.683  16.267  1.00  0.00    -0.268 OA
HETATM   11  N   UNL     1     -40.685 -52.292  15.333  1.00  0.00    -0.271 N 
HETATM   12  C   UNL     1     -40.673 -51.389  16.465  1.00  0.00     0.164 C 
HETATM   13  C   UNL     1     -41.495 -51.944  14.252  1.00  0.00     0.331 A 
HETATM   14  O   UNL     1     -42.100 -50.872  14.201  1.00  0.00    -0.246 OA
ENDBRANCH   5   6
ENDBRANCH   2   5
BRANCH   1  15
HETATM   15  C   UNL     1     -46.205 -52.182  12.958  1.00  0.00     0.109 C 
HETATM   16  C   UNL     1     -47.033 -51.758  11.743  1.00  0.00     0.035 C 
BRANCH  15  17
HETATM   17  C   UNL     1     -46.595 -51.456  14.262  1.00  0.00     0.143 C 
HETATM   18  C   UNL     1     -45.424 -50.960  15.105  1.00  0.00     0.036 C 
HETATM   19  C   UNL     1     -45.860 -51.180  16.540  1.00  0.00     0.029 C 
HETATM   20  C   UNL     1     -47.263 -51.736  16.436  1.00  0.00     0.168 C 
HETATM   21  O   UNL     1     -47.356 -52.316  15.131  1.00  0.00    -0.384 OA
ENDBRANCH  15  17
ENDBRANCH   1  15
TORSDOF 4
ENDMDL
MODEL 5
REMARK VINA RESULT:      -5.4      3.453      4.961
REMARK  4 active torsions:
REMARK  status: ('A' for Active; 'I' for Inactive)
REMARK    1  A    between atoms: C_2  and  N_3 
REMARK    2  A    between atoms: C_2  and  C_16 
REMARK       I    between atoms: N_3  and  C_4 
REMARK    3  A    between atoms: C_4  and  C_6 
REMARK    4  A    between atoms: C_6  and  N_7 
ROOT
HETATM    1  N   UNL     1     -43.105 -54.140  13.689  1.00  0.00    -0.353 N 
HETATM    2  C   UNL     1     -41.900 -54.175  14.360  1.00  0.00     0.236 C 
HETATM    3  O   UNL     1     -41.828 -54.261  15.584  1.00  0.00    -0.272 OA
HETATM    4  H   UNL     1     -43.108 -53.838  12.720  1.00  0.00     0.163 HD
ENDROOT
BRANCH   2   5
HETATM    5  C   UNL     1     -40.660 -54.223  13.469  1.00  0.00     0.235 C 
BRANCH   5   6
HETATM    6  N   UNL     1     -40.046 -52.896  13.323  1.00  0.00    -0.301 N 
HETATM    7  C   UNL     1     -39.006 -52.544  14.154  1.00  0.00     0.102 A 
HETATM    8  C   UNL     1     -38.396 -51.365  14.057  1.00  0.00     0.092 A 
HETATM    9  C   UNL     1     -38.868 -50.386  13.068  1.00  0.00     0.252 A 
HETATM   10  O   UNL     1     -38.282 -49.311  12.978  1.00  0.00    -0.268 OA
HETATM   11  N   UNL     1     -39.968 -50.761  12.319  1.00  0.00    -0.271 N 
HETATM   12  C   UNL     1     -40.552 -49.794  11.412  1.00  0.00     0.164 C 
HETATM   13  C   UNL     1     -40.544 -52.031  12.350  1.00  0.00     0.331 A 
HETATM   14  O   UNL     1     -41.442 -52.365  11.575  1.00  0.00    -0.246 OA
ENDBRANCH   5   6
ENDBRANCH   2   5
BRANCH   1  15
HETATM   15  C   UNL     1     -44.385 -54.099  14.402  1.00  0.00     0.109 C 
HETATM   16  C   UNL     1     -45.322 -55.128  13.766  1.00  0.00     0.035 C 
BRANCH  15  17
HETATM   17  C   UNL     1     -44.957 -52.667  14.425  1.00  0.00     0.143 C 
HETATM   18  C   UNL     1     -45.039 -52.023  15.807  1.00  0.00     0.036 C 
HETATM   19  C   UNL     1     -46.327 -51.223  15.784  1.00  0.00     0.029 C 
HETATM   20  C   UNL     1     -46.876 -51.413  14.387  1.00  0.00     0.168 C 
HETATM   21  O   UNL     1     -46.301 -52.632  13.906  1.00  0.00    -0.384 OA
ENDBRANCH  15  17
ENDBRANCH   1  15
TORSDOF 4
ENDMDL
MODEL 6
REMARK VINA RESULT:      -5.4      4.003      7.898
REMARK  4 active torsions:
REMARK  status: ('A' for Active; 'I' for Inactive)
REMARK    1  A    between atoms: C_2  and  N_3 
REMARK    2  A    between atoms: C_2  and  C_16 
REMARK       I    between atoms: N_3  and  C_4 
REMARK    3  A    between atoms: C_4  and  C_6 
REMARK    4  A    between atoms: C_6  and  N_7 
ROOT
HETATM    1  N   UNL     1     -39.475 -51.093  11.831  1.00  0.00    -0.353 N 
HETATM    2  C   UNL     1     -40.794 -51.273  12.194  1.00  0.00     0.236 C 
HETATM    3  O   UNL     1     -41.454 -50.395  12.745  1.00  0.00    -0.272 OA
HETATM    4  H   UNL     1     -38.923 -51.911  11.599  1.00  0.00     0.163 HD
ENDROOT
BRANCH   2   5
HETATM    5  C   UNL     1     -41.415 -52.597  11.752  1.00  0.00     0.235 C 
BRANCH   5   6
HETATM    6  N   UNL     1     -41.926 -53.364  12.896  1.00  0.00    -0.301 N 
HETATM    7  C   UNL     1     -41.046 -53.775  13.873  1.00  0.00     0.102 A 
HETATM    8  C   UNL     1     -41.451 -54.455  14.943  1.00  0.00     0.092 A 
HETATM    9  C   UNL     1     -42.868 -54.822  15.073  1.00  0.00     0.252 A 
HETATM   10  O   UNL     1     -43.229 -55.431  16.077  1.00  0.00    -0.268 OA
HETATM   11  N   UNL     1     -43.690 -54.455  14.023  1.00  0.00    -0.271 N 
HETATM   12  C   UNL     1     -45.071 -54.891  14.039  1.00  0.00     0.164 C 
HETATM   13  C   UNL     1     -43.287 -53.658  12.952  1.00  0.00     0.331 A 
HETATM   14  O   UNL     1     -44.080 -53.248  12.103  1.00  0.00    -0.246 OA
ENDBRANCH   5   6
ENDBRANCH   2   5
BRANCH   1  15
HETATM   15  C   UNL     1     -38.740 -49.871  12.175  1.00  0.00     0.109 C 
HETATM   16  C   UNL     1     -37.490 -49.799  11.295  1.00  0.00     0.035 C 
BRANCH  15  17
HETATM   17  C   UNL     1     -38.441 -49.816  13.687  1.00  0.00     0.143 C 
HETATM   18  C   UNL     1     -38.133 -48.426  14.238  1.00  0.00     0.036 C 
HETATM   19  C   UNL     1     -37.053 -48.652  15.277  1.00  0.00     0.029 C 
HETATM   20  C   UNL     1     -36.843 -50.150  15.296  1.00  0.00     0.168 C 
HETATM   21  O   UNL     1     -37.296 -50.623  14.023  1.00  0.00    -0.384 OA
ENDBRANCH  15  17
ENDBRANCH   1  15
TORSDOF 4
ENDMDL
MODEL 7
REMARK VINA RESULT:      -5.3      2.983      7.250
REMARK  4 active torsions:
REMARK  status: ('A' for Active; 'I' for Inactive)
REMARK    1  A    between atoms: C_2  and  N_3 
REMARK    2  A    between atoms: C_2  and  C_16 
REMARK       I    between atoms: N_3  and  C_4 
REMARK    3  A    between atoms: C_4  and  C_6 
REMARK    4  A    between atoms: C_6  and  N_7 
ROOT
HETATM    1  N   UNL     1     -39.880 -50.945  13.435  1.00  0.00    -0.353 N 
HETATM    2  C   UNL     1     -40.047 -52.254  13.837  1.00  0.00     0.236 C 
HETATM    3  O   UNL     1     -39.456 -53.191  13.303  1.00  0.00    -0.272 OA
HETATM    4  H   UNL     1     -40.555 -50.255  13.747  1.00  0.00     0.163 HD
ENDROOT
BRANCH   2   5
HETATM    5  C   UNL     1     -40.926 -52.449  15.071  1.00  0.00     0.235 C 
BRANCH   5   6
HETATM    6  N   UNL     1     -42.121 -53.247  14.766  1.00  0.00    -0.301 N 
HETATM    7  C   UNL     1     -42.199 -54.541  15.231  1.00  0.00     0.102 A 
HETATM    8  C   UNL     1     -43.264 -55.307  15.005  1.00  0.00     0.092 A 
HETATM    9  C   UNL     1     -44.373 -54.782  14.198  1.00  0.00     0.252 A 
HETATM   10  O   UNL     1     -45.357 -55.494  14.015  1.00  0.00    -0.268 OA
HETATM   11  N   UNL     1     -44.204 -53.508  13.687  1.00  0.00    -0.271 N 
HETATM   12  C   UNL     1     -45.211 -52.983  12.788  1.00  0.00     0.164 C 
HETATM   13  C   UNL     1     -43.137 -52.670  14.006  1.00  0.00     0.331 A 
HETATM   14  O   UNL     1     -43.087 -51.497  13.631  1.00  0.00    -0.246 OA
ENDBRANCH   5   6
ENDBRANCH   2   5
BRANCH   1  15
HETATM   15  C   UNL     1     -39.059 -50.594  12.272  1.00  0.00     0.109 C 
HETATM   16  C   UNL     1     -37.711 -50.074  12.775  1.00  0.00     0.035 C 
BRANCH  15  17
HETATM   17  C   UNL     1     -39.804 -49.604  11.352  1.00  0.00     0.143 C 
HETATM   18  C   UNL     1     -39.526 -48.128  11.626  1.00  0.00     0.036 C 
HETATM   19  C   UNL     1     -40.857 -47.437  11.401  1.00  0.00     0.029 C 
HETATM   20  C   UNL     1     -41.797 -48.539  10.966  1.00  0.00     0.168 C 
HETATM   21  O   UNL     1     -41.232 -49.754  11.470  1.00  0.00    -0.384 OA
ENDBRANCH  15  17
ENDBRANCH   1  15
TORSDOF 4
ENDMDL
MODEL 8
REMARK VINA RESULT:      -5.2      2.363      7.432
REMARK  4 active torsions:
REMARK  status: ('A' for Active; 'I' for Inactive)
REMARK    1  A    between atoms: C_2  and  N_3 
REMARK    2  A    between atoms: C_2  and  C_16 
REMARK       I    between atoms: N_3  and  C_4 
REMARK    3  A    between atoms: C_4  and  C_6 
REMARK    4  A    between atoms: C_6  and  N_7 
ROOT
HETATM    1  N   UNL     1     -41.356 -49.523  11.083  1.00  0.00    -0.353 N 
HETATM    2  C   UNL     1     -41.609 -50.453  12.069  1.00  0.00     0.236 C 
HETATM    3  O   UNL     1     -42.279 -50.195  13.067  1.00  0.00    -0.272 OA
HETATM    4  H   UNL     1     -40.619 -49.717  10.414  1.00  0.00     0.163 HD
ENDROOT
BRANCH   2   5
HETATM    5  C   UNL     1     -41.100 -51.865  11.779  1.00  0.00     0.235 C 
BRANCH   5   6
HETATM    6  N   UNL     1     -41.640 -52.843  12.733  1.00  0.00    -0.301 N 
HETATM    7  C   UNL     1     -42.990 -53.115  12.720  1.00  0.00     0.102 A 
HETATM    8  C   UNL     1     -43.535 -54.005  13.545  1.00  0.00     0.092 A 
HETATM    9  C   UNL     1     -42.689 -54.690  14.532  1.00  0.00     0.252 A 
HETATM   10  O   UNL     1     -43.204 -55.524  15.272  1.00  0.00    -0.268 OA
HETATM   11  N   UNL     1     -41.358 -54.317  14.554  1.00  0.00    -0.271 N 
HETATM   12  C   UNL     1     -40.500 -54.870  15.582  1.00  0.00     0.164 C 
HETATM   13  C   UNL     1     -40.767 -53.460  13.626  1.00  0.00     0.331 A 
HETATM   14  O   UNL     1     -39.552 -53.252  13.604  1.00  0.00    -0.246 OA
ENDBRANCH   5   6
ENDBRANCH   2   5
BRANCH   1  15
HETATM   15  C   UNL     1     -41.788 -48.127  11.210  1.00  0.00     0.109 C 
HETATM   16  C   UNL     1     -42.834 -47.847  10.129  1.00  0.00     0.035 C 
BRANCH  15  17
HETATM   17  C   UNL     1     -40.577 -47.171  11.167  1.00  0.00     0.143 C 
HETATM   18  C   UNL     1     -40.148 -46.607  12.519  1.00  0.00     0.036 C 
HETATM   19  C   UNL     1     -39.731 -45.179  12.226  1.00  0.00     0.029 C 
HETATM   20  C   UNL     1     -39.897 -45.026  10.730  1.00  0.00     0.168 C 
HETATM   21  O   UNL     1     -40.848 -46.022  10.341  1.00  0.00    -0.384 OA
ENDBRANCH  15  17
ENDBRANCH   1  15
TORSDOF 4
ENDMDL
MODEL 9
REMARK VINA RESULT:      -5.1      3.292      7.231
REMARK  4 active torsions:
REMARK  status: ('A' for Active; 'I' for Inactive)
REMARK    1  A    between atoms: C_2  and  N_3 
REMARK    2  A    between atoms: C_2  and  C_16 
REMARK       I    between atoms: N_3  and  C_4 
REMARK    3  A    between atoms: C_4  and  C_6 
REMARK    4  A    between atoms: C_6  and  N_7 
ROOT
HETATM    1  N   UNL     1     -42.372 -50.866  12.380  1.00  0.00    -0.353 N 
HETATM    2  C   UNL     1     -43.237 -50.193  13.217  1.00  0.00     0.236 C 
HETATM    3  O   UNL     1     -42.865 -49.298  13.973  1.00  0.00    -0.272 OA
HETATM    4  H   UNL     1     -42.686 -51.734  11.960  1.00  0.00     0.163 HD
ENDROOT
BRANCH   2   5
HETATM    5  C   UNL     1     -44.714 -50.552  13.053  1.00  0.00     0.235 C 
BRANCH   5   6
HETATM    6  N   UNL     1     -45.103 -51.661  13.935  1.00  0.00    -0.301 N 
HETATM    7  C   UNL     1     -45.375 -51.399  15.259  1.00  0.00     0.102 A 
HETATM    8  C   UNL     1     -45.752 -52.357  16.103  1.00  0.00     0.092 A 
HETATM    9  C   UNL     1     -45.840 -53.745  15.628  1.00  0.00     0.252 A 
HETATM   10  O   UNL     1     -46.209 -54.614  16.413  1.00  0.00    -0.268 OA
HETATM   11  N   UNL     1     -45.475 -53.961  14.312  1.00  0.00    -0.271 N 
HETATM   12  C   UNL     1     -45.428 -55.323  13.820  1.00  0.00     0.164 C 
HETATM   13  C   UNL     1     -45.177 -52.947  13.402  1.00  0.00     0.331 A 
HETATM   14  O   UNL     1     -44.981 -53.172  12.207  1.00  0.00    -0.246 OA
ENDBRANCH   5   6
ENDBRANCH   2   5
BRANCH   1  15
HETATM   15  C   UNL     1     -40.926 -50.627  12.411  1.00  0.00     0.109 C 
HETATM   16  C   UNL     1     -40.538 -49.860  11.145  1.00  0.00     0.035 C 
BRANCH  15  17
HETATM   17  C   UNL     1     -40.153 -51.949  12.599  1.00  0.00     0.143 C 
HETATM   18  C   UNL     1     -40.985 -53.217  12.424  1.00  0.00     0.036 C 
HETATM   19  C   UNL     1     -40.447 -54.179  13.466  1.00  0.00     0.029 C 
HETATM   20  C   UNL     1     -39.317 -53.430  14.137  1.00  0.00     0.168 C 
HETATM   21  O   UNL     1     -39.589 -52.041  13.922  1.00  0.00    -0.384 OA
ENDBRANCH  15  17
ENDBRANCH   1  15
TORSDOF 4
ENDMDL
