MODEL 1
REMARK VINA RESULT:      -6.3      0.000      0.000
REMARK  4 active torsions:
REMARK  status: ('A' for Active; 'I' for Inactive)
REMARK    1  A    between atoms: C_7  and  C_8 
REMARK    2  A    between atoms: C_8  and  O_9 
REMARK    3  A    between atoms: C_8  and  C_10 
REMARK    4  A    between atoms: C_10  and  N_11 
ROOT
HETATM    1  C   UNL     1     -40.181 -52.721  14.214  1.00  0.00     0.169 C 
ENDROOT
BRANCH   1   2
HETATM    2  C   UNL     1     -40.852 -53.747  13.275  1.00  0.00     0.170 C 
BRANCH   2   3
HETATM    3  C   UNL     1     -42.362 -53.939  13.392  1.00  0.00    -0.022 A 
HETATM    4  C   UNL     1     -43.042 -54.654  14.406  1.00  0.00    -0.053 A 
HETATM    5  C   UNL     1     -42.363 -55.396  15.524  1.00  0.00     0.049 C 
HETATM    6  C   UNL     1     -44.453 -54.686  14.402  1.00  0.00     0.007 A 
HETATM    7  C   UNL     1     -45.194 -54.015  13.433  1.00  0.00     0.001 A 
HETATM    8  C   UNL     1     -44.540 -53.298  12.445  1.00  0.00     0.001 A 
HETATM    9  C   UNL     1     -43.144 -53.258  12.430  1.00  0.00     0.010 A 
ENDBRANCH   2   3
BRANCH   2  10
HETATM   10  O   UNL     1     -40.573 -53.499  11.899  1.00  0.00    -0.389 OA
HETATM   11  H   UNL     1     -40.913 -52.610  11.675  1.00  0.00     0.210 HD
ENDBRANCH   2  10
ENDBRANCH   1   2
BRANCH   1  12
HETATM   12  N   UNL     1     -39.964 -51.412  13.600  1.00  0.00    -0.307 N 
HETATM   13  C   UNL     1     -40.912 -50.432  13.687  1.00  0.00     0.186 A 
HETATM   14  N   UNL     1     -40.839 -49.279  13.115  1.00  0.00    -0.355 N 
HETATM   15  C   UNL     1     -39.736 -49.026  12.335  1.00  0.00     0.017 A 
ATOM     16  HN  UNL     1     -41.573 -48.580  13.236  1.00  0.00     0.166 HD
HETATM   17  C   UNL     1     -39.773 -47.700  11.620  1.00  0.00     0.069 C 
HETATM   18  C   UNL     1     -38.708 -49.884  12.191  1.00  0.00     0.028 A 
HETATM   19  C   UNL     1     -37.500 -49.695  11.327  1.00  0.00     0.056 C 
HETATM   20  C   UNL     1     -38.784 -51.176  12.924  1.00  0.00     0.256 A 
HETATM   21  O   UNL     1     -37.860 -51.987  12.878  1.00  0.00    -0.267 OA
ENDBRANCH   1  12
TORSDOF 4
ENDMDL
MODEL 2
REMARK VINA RESULT:      -6.2      1.872      2.563
REMARK  4 active torsions:
REMARK  status: ('A' for Active; 'I' for Inactive)
REMARK    1  A    between atoms: C_7  and  C_8 
REMARK    2  A    between atoms: C_8  and  O_9 
REMARK    3  A    between atoms: C_8  and  C_10 
REMARK    4  A    between atoms: C_10  and  N_11 
ROOT
HETATM    1  C   UNL     1     -42.561 -50.509  12.927  1.00  0.00     0.169 C 
ENDROOT
BRANCH   1   2
HETATM    2  C   UNL     1     -42.973 -51.997  12.963  1.00  0.00     0.170 C 
BRANCH   2   3
HETATM    3  C   UNL     1     -44.333 -52.346  13.562  1.00  0.00    -0.022 A 
HETATM    4  C   UNL     1     -44.673 -53.545  14.231  1.00  0.00    -0.053 A 
HETATM    5  C   UNL     1     -43.740 -54.709  14.415  1.00  0.00     0.049 C 
HETATM    6  C   UNL     1     -45.965 -53.685  14.783  1.00  0.00     0.007 A 
HETATM    7  C   UNL     1     -46.908 -52.666  14.700  1.00  0.00     0.001 A 
HETATM    8  C   UNL     1     -46.580 -51.481  14.062  1.00  0.00     0.001 A 
HETATM    9  C   UNL     1     -45.309 -51.323  13.506  1.00  0.00     0.010 A 
ENDBRANCH   2   3
BRANCH   2  10
HETATM   10  O   UNL     1     -42.917 -52.615  11.679  1.00  0.00    -0.389 OA
HETATM   11  H   UNL     1     -42.599 -51.952  11.036  1.00  0.00     0.210 HD
ENDBRANCH   2  10
ENDBRANCH   1   2
BRANCH   1  12
HETATM   12  N   UNL     1     -41.169 -50.291  12.537  1.00  0.00    -0.307 N 
HETATM   13  C   UNL     1     -40.844 -49.979  11.246  1.00  0.00     0.186 A 
HETATM   14  N   UNL     1     -39.642 -49.844  10.798  1.00  0.00    -0.355 N 
HETATM   15  C   UNL     1     -38.609 -50.058  11.678  1.00  0.00     0.017 A 
ATOM     16  HN  UNL     1     -39.466 -49.588   9.826  1.00  0.00     0.166 HD
HETATM   17  C   UNL     1     -37.239 -49.982  11.054  1.00  0.00     0.069 C 
HETATM   18  C   UNL     1     -38.782 -50.333  12.984  1.00  0.00     0.028 A 
HETATM   19  C   UNL     1     -37.709 -50.620  13.988  1.00  0.00     0.056 C 
HETATM   20  C   UNL     1     -40.179 -50.407  13.491  1.00  0.00     0.256 A 
HETATM   21  O   UNL     1     -40.411 -50.607  14.683  1.00  0.00    -0.267 OA
ENDBRANCH   1  12
TORSDOF 4
ENDMDL
MODEL 3
REMARK VINA RESULT:      -6.1      1.783      2.312
REMARK  4 active torsions:
REMARK  status: ('A' for Active; 'I' for Inactive)
REMARK    1  A    between atoms: C_7  and  C_8 
REMARK    2  A    between atoms: C_8  and  O_9 
REMARK    3  A    between atoms: C_8  and  C_10 
REMARK    4  A    between atoms: C_10  and  N_11 
ROOT
HETATM    1  C   UNL     1     -41.346 -51.306  12.122  1.00  0.00     0.169 C 
ENDROOT
BRANCH   1   2
HETATM    2  C   UNL     1     -41.058 -52.783  12.471  1.00  0.00     0.170 C 
BRANCH   2   3
HETATM    3  C   UNL     1     -42.171 -53.588  13.137  1.00  0.00    -0.022 A 
HETATM    4  C   UNL     1     -42.063 -54.345  14.327  1.00  0.00    -0.053 A 
HETATM    5  C   UNL     1     -40.792 -54.519  15.112  1.00  0.00     0.049 C 
HETATM    6  C   UNL     1     -43.209 -54.986  14.845  1.00  0.00     0.007 A 
HETATM    7  C   UNL     1     -44.449 -54.877  14.223  1.00  0.00     0.001 A 
HETATM    8  C   UNL     1     -44.570 -54.124  13.066  1.00  0.00     0.001 A 
HETATM    9  C   UNL     1     -43.447 -53.486  12.536  1.00  0.00     0.010 A 
ENDBRANCH   2   3
BRANCH   2  10
HETATM   10  O   UNL     1     -40.618 -53.539  11.346  1.00  0.00    -0.389 OA
HETATM   11  H   UNL     1     -41.268 -53.421  10.626  1.00  0.00     0.210 HD
ENDBRANCH   2  10
ENDBRANCH   1   2
BRANCH   1  12
HETATM   12  N   UNL     1     -40.312 -50.379  12.578  1.00  0.00    -0.307 N 
HETATM   13  C   UNL     1     -39.236 -50.825  13.294  1.00  0.00     0.186 A 
HETATM   14  N   UNL     1     -38.319 -50.073  13.798  1.00  0.00    -0.355 N 
HETATM   15  C   UNL     1     -38.448 -48.715  13.628  1.00  0.00     0.017 A 
ATOM     16  HN  UNL     1     -37.528 -50.470  14.305  1.00  0.00     0.166 HD
HETATM   17  C   UNL     1     -37.394 -47.900  14.333  1.00  0.00     0.069 C 
HETATM   18  C   UNL     1     -39.434 -48.140  12.914  1.00  0.00     0.028 A 
HETATM   19  C   UNL     1     -39.661 -46.672  12.724  1.00  0.00     0.056 C 
HETATM   20  C   UNL     1     -40.436 -49.037  12.278  1.00  0.00     0.256 A 
HETATM   21  O   UNL     1     -41.335 -48.584  11.573  1.00  0.00    -0.267 OA
ENDBRANCH   1  12
TORSDOF 4
ENDMDL
MODEL 4
REMARK VINA RESULT:      -6.0      1.826      2.475
REMARK  4 active torsions:
REMARK  status: ('A' for Active; 'I' for Inactive)
REMARK    1  A    between atoms: C_7  and  C_8 
REMARK    2  A    between atoms: C_8  and  O_9 
REMARK    3  A    between atoms: C_8  and  C_10 
REMARK    4  A    between atoms: C_10  and  N_11 
ROOT
HETATM    1  C   UNL     1     -40.205 -52.017  13.344  1.00  0.00     0.169 C 
ENDROOT
BRANCH   1   2
HETATM    2  C   UNL     1     -40.678 -53.401  12.847  1.00  0.00     0.170 C 
BRANCH   2   3
HETATM    3  C   UNL     1     -42.035 -53.906  13.331  1.00  0.00    -0.022 A 
HETATM    4  C   UNL     1     -42.301 -54.549  14.562  1.00  0.00    -0.053 A 
HETATM    5  C   UNL     1     -41.255 -54.887  15.588  1.00  0.00     0.049 C 
HETATM    6  C   UNL     1     -43.630 -54.902  14.884  1.00  0.00     0.007 A 
HETATM    7  C   UNL     1     -44.688 -54.617  14.027  1.00  0.00     0.001 A 
HETATM    8  C   UNL     1     -44.441 -53.973  12.826  1.00  0.00     0.001 A 
HETATM    9  C   UNL     1     -43.134 -53.619  12.487  1.00  0.00     0.010 A 
ENDBRANCH   2   3
BRANCH   2  10
HETATM   10  O   UNL     1     -40.683 -53.503  11.425  1.00  0.00    -0.389 OA
HETATM   11  H   UNL     1     -39.888 -53.049  11.084  1.00  0.00     0.210 HD
ENDBRANCH   2  10
ENDBRANCH   1   2
BRANCH   1  12
HETATM   12  N   UNL     1     -40.744 -50.897  12.573  1.00  0.00    -0.307 N 
HETATM   13  C   UNL     1     -40.225 -50.575  11.350  1.00  0.00     0.186 A 
HETATM   14  N   UNL     1     -40.585 -49.563  10.637  1.00  0.00    -0.355 N 
HETATM   15  C   UNL     1     -41.544 -48.728  11.159  1.00  0.00     0.017 A 
ATOM     16  HN  UNL     1     -40.174 -49.388   9.720  1.00  0.00     0.166 HD
HETATM   17  C   UNL     1     -41.836 -47.515  10.314  1.00  0.00     0.069 C 
HETATM   18  C   UNL     1     -42.167 -48.944  12.333  1.00  0.00     0.028 A 
HETATM   19  C   UNL     1     -43.185 -48.058  12.982  1.00  0.00     0.056 C 
HETATM   20  C   UNL     1     -41.786 -50.162  13.099  1.00  0.00     0.256 A 
HETATM   21  O   UNL     1     -42.348 -50.448  14.155  1.00  0.00    -0.267 OA
ENDBRANCH   1  12
TORSDOF 4
ENDMDL
MODEL 5
REMARK VINA RESULT:      -6.0      2.771      6.967
REMARK  4 active torsions:
REMARK  status: ('A' for Active; 'I' for Inactive)
REMARK    1  A    between atoms: C_7  and  C_8 
REMARK    2  A    between atoms: C_8  and  O_9 
REMARK    3  A    between atoms: C_8  and  C_10 
REMARK    4  A    between atoms: C_10  and  N_11 
ROOT
HETATM    1  C   UNL     1     -41.275 -49.897  12.448  1.00  0.00     0.169 C 
ENDROOT
BRANCH   1   2
HETATM    2  C   UNL     1     -41.347 -49.308  11.022  1.00  0.00     0.170 C 
BRANCH   2   3
HETATM    3  C   UNL     1     -41.304 -47.789  10.874  1.00  0.00    -0.022 A 
HETATM    4  C   UNL     1     -42.366 -46.956  10.450  1.00  0.00    -0.053 A 
HETATM    5  C   UNL     1     -43.717 -47.455  10.020  1.00  0.00     0.049 C 
HETATM    6  C   UNL     1     -42.179 -45.557  10.426  1.00  0.00     0.007 A 
HETATM    7  C   UNL     1     -40.980 -44.975  10.826  1.00  0.00     0.001 A 
HETATM    8  C   UNL     1     -39.939 -45.780  11.259  1.00  0.00     0.001 A 
HETATM    9  C   UNL     1     -40.103 -47.166  11.287  1.00  0.00     0.010 A 
ENDBRANCH   2   3
BRANCH   2  10
HETATM   10  O   UNL     1     -40.343 -49.835  10.157  1.00  0.00    -0.389 OA
HETATM   11  H   UNL     1     -40.672 -50.677   9.786  1.00  0.00     0.210 HD
ENDBRANCH   2  10
ENDBRANCH   1   2
BRANCH   1  12
HETATM   12  N   UNL     1     -42.250 -50.957  12.700  1.00  0.00    -0.307 N 
HETATM   13  C   UNL     1     -42.053 -52.219  12.213  1.00  0.00     0.186 A 
HETATM   14  N   UNL     1     -42.892 -53.192  12.321  1.00  0.00    -0.355 N 
HETATM   15  C   UNL     1     -44.087 -52.934  12.948  1.00  0.00     0.017 A 
ATOM     16  HN  UNL     1     -42.676 -54.120  11.954  1.00  0.00     0.166 HD
HETATM   17  C   UNL     1     -45.052 -54.092  12.944  1.00  0.00     0.069 C 
HETATM   18  C   UNL     1     -44.398 -51.750  13.508  1.00  0.00     0.028 A 
HETATM   19  C   UNL     1     -45.692 -51.385  14.167  1.00  0.00     0.056 C 
HETATM   20  C   UNL     1     -43.380 -50.667  13.436  1.00  0.00     0.256 A 
HETATM   21  O   UNL     1     -43.577 -49.575  13.967  1.00  0.00    -0.267 OA
ENDBRANCH   1  12
TORSDOF 4
ENDMDL
MODEL 6
REMARK VINA RESULT:      -6.0      2.285      6.097
REMARK  4 active torsions:
REMARK  status: ('A' for Active; 'I' for Inactive)
REMARK    1  A    between atoms: C_7  and  C_8 
REMARK    2  A    between atoms: C_8  and  O_9 
REMARK    3  A    between atoms: C_8  and  C_10 
REMARK    4  A    between atoms: C_10  and  N_11 
ROOT
HETATM    1  C   UNL     1     -41.160 -54.398  14.383  1.00  0.00     0.169 C 
ENDROOT
BRANCH   1   2
HETATM    2  C   UNL     1     -39.959 -53.728  13.681  1.00  0.00     0.170 C 
BRANCH   2   3
HETATM    3  C   UNL     1     -39.238 -52.602  14.420  1.00  0.00    -0.022 A 
HETATM    4  C   UNL     1     -38.888 -51.339  13.890  1.00  0.00    -0.053 A 
HETATM    5  C   UNL     1     -39.132 -50.917  12.467  1.00  0.00     0.049 C 
HETATM    6  C   UNL     1     -38.275 -50.383  14.728  1.00  0.00     0.007 A 
HETATM    7  C   UNL     1     -38.023 -50.647  16.071  1.00  0.00     0.001 A 
HETATM    8  C   UNL     1     -38.377 -51.875  16.606  1.00  0.00     0.001 A 
HETATM    9  C   UNL     1     -38.980 -52.835  15.792  1.00  0.00     0.010 A 
ENDBRANCH   2   3
BRANCH   2  10
HETATM   10  O   UNL     1     -38.961 -54.665  13.283  1.00  0.00    -0.389 OA
HETATM   11  H   UNL     1     -39.061 -54.829  12.326  1.00  0.00     0.210 HD
ENDBRANCH   2  10
ENDBRANCH   1   2
BRANCH   1  12
HETATM   12  N   UNL     1     -42.458 -54.010  13.832  1.00  0.00    -0.307 N 
HETATM   13  C   UNL     1     -42.550 -53.037  12.875  1.00  0.00     0.186 A 
HETATM   14  N   UNL     1     -43.653 -52.580  12.389  1.00  0.00    -0.355 N 
HETATM   15  C   UNL     1     -44.827 -53.089  12.891  1.00  0.00     0.017 A 
ATOM     16  HN  UNL     1     -43.654 -51.866  11.659  1.00  0.00     0.166 HD
HETATM   17  C   UNL     1     -46.069 -52.431  12.347  1.00  0.00     0.069 C 
HETATM   18  C   UNL     1     -44.885 -54.075  13.805  1.00  0.00     0.028 A 
HETATM   19  C   UNL     1     -46.122 -54.646  14.427  1.00  0.00     0.056 C 
HETATM   20  C   UNL     1     -43.597 -54.637  14.293  1.00  0.00     0.256 A 
HETATM   21  O   UNL     1     -43.575 -55.572  15.092  1.00  0.00    -0.267 OA
ENDBRANCH   1  12
TORSDOF 4
ENDMDL
MODEL 7
REMARK VINA RESULT:      -5.8      1.809      6.276
REMARK  4 active torsions:
REMARK  status: ('A' for Active; 'I' for Inactive)
REMARK    1  A    between atoms: C_7  and  C_8 
REMARK    2  A    between atoms: C_8  and  O_9 
REMARK    3  A    between atoms: C_8  and  C_10 
REMARK    4  A    between atoms: C_10  and  N_11 
ROOT
HETATM    1  C   UNL     1     -39.232 -51.905  13.346  1.00  0.00     0.169 C 
ENDROOT
BRANCH   1   2
HETATM    2  C   UNL     1     -38.891 -50.773  12.352  1.00  0.00     0.170 C 
BRANCH   2   3
HETATM    3  C   UNL     1     -38.712 -49.364  12.911  1.00  0.00    -0.022 A 
HETATM    4  C   UNL     1     -39.500 -48.231  12.602  1.00  0.00    -0.053 A 
HETATM    5  C   UNL     1     -40.632 -48.228  11.612  1.00  0.00     0.049 C 
HETATM    6  C   UNL     1     -39.238 -47.008  13.255  1.00  0.00     0.007 A 
HETATM    7  C   UNL     1     -38.233 -46.892  14.211  1.00  0.00     0.001 A 
HETATM    8  C   UNL     1     -37.466 -47.999  14.534  1.00  0.00     0.001 A 
HETATM    9  C   UNL     1     -37.706 -49.217  13.896  1.00  0.00     0.010 A 
ENDBRANCH   2   3
BRANCH   2  10
HETATM   10  O   UNL     1     -37.734 -51.057  11.570  1.00  0.00    -0.389 OA
HETATM   11  H   UNL     1     -37.069 -50.363  11.745  1.00  0.00     0.210 HD
ENDBRANCH   2  10
ENDBRANCH   1   2
BRANCH   1  12
HETATM   12  N   UNL     1     -40.547 -52.507  13.129  1.00  0.00    -0.307 N 
HETATM   13  C   UNL     1     -41.344 -52.094  12.098  1.00  0.00     0.186 A 
HETATM   14  N   UNL     1     -42.543 -52.513  11.876  1.00  0.00    -0.355 N 
HETATM   15  C   UNL     1     -43.071 -53.422  12.761  1.00  0.00     0.017 A 
ATOM     16  HN  UNL     1     -43.080 -52.181  11.074  1.00  0.00     0.166 HD
HETATM   17  C   UNL     1     -44.509 -53.784  12.493  1.00  0.00     0.069 C 
HETATM   18  C   UNL     1     -42.387 -53.943  13.797  1.00  0.00     0.028 A 
HETATM   19  C   UNL     1     -42.910 -54.900  14.823  1.00  0.00     0.056 C 
HETATM   20  C   UNL     1     -40.979 -53.499  13.984  1.00  0.00     0.256 A 
HETATM   21  O   UNL     1     -40.280 -53.969  14.880  1.00  0.00    -0.267 OA
ENDBRANCH   1  12
TORSDOF 4
ENDMDL
MODEL 8
REMARK VINA RESULT:      -5.8      3.745      5.786
REMARK  4 active torsions:
REMARK  status: ('A' for Active; 'I' for Inactive)
REMARK    1  A    between atoms: C_7  and  C_8 
REMARK    2  A    between atoms: C_8  and  O_9 
REMARK    3  A    between atoms: C_8  and  C_10 
REMARK    4  A    between atoms: C_10  and  N_11 
ROOT
HETATM    1  C   UNL     1     -45.747 -53.549  13.192  1.00  0.00     0.169 C 
ENDROOT
BRANCH   1   2
HETATM    2  C   UNL     1     -46.262 -52.110  13.419  1.00  0.00     0.170 C 
BRANCH   2   3
HETATM    3  C   UNL     1     -46.193 -51.544  14.835  1.00  0.00    -0.022 A 
HETATM    4  C   UNL     1     -45.121 -50.809  15.394  1.00  0.00    -0.053 A 
HETATM    5  C   UNL     1     -43.832 -50.509  14.680  1.00  0.00     0.049 C 
HETATM    6  C   UNL     1     -45.241 -50.302  16.706  1.00  0.00     0.007 A 
HETATM    7  C   UNL     1     -46.396 -50.491  17.458  1.00  0.00     0.001 A 
HETATM    8  C   UNL     1     -47.459 -51.195  16.915  1.00  0.00     0.001 A 
HETATM    9  C   UNL     1     -47.358 -51.708  15.620  1.00  0.00     0.010 A 
ENDBRANCH   2   3
BRANCH   2  10
HETATM   10  O   UNL     1     -45.633 -51.159  12.563  1.00  0.00    -0.389 OA
HETATM   11  H   UNL     1     -45.365 -51.617  11.743  1.00  0.00     0.210 HD
ENDBRANCH   2  10
ENDBRANCH   1   2
BRANCH   1  12
HETATM   12  N   UNL     1     -44.312 -53.705  13.421  1.00  0.00    -0.307 N 
HETATM   13  C   UNL     1     -43.404 -53.284  12.489  1.00  0.00     0.186 A 
HETATM   14  N   UNL     1     -42.128 -53.449  12.573  1.00  0.00    -0.355 N 
HETATM   15  C   UNL     1     -41.646 -54.125  13.668  1.00  0.00     0.017 A 
ATOM     16  HN  UNL     1     -41.500 -53.091  11.852  1.00  0.00     0.166 HD
HETATM   17  C   UNL     1     -40.158 -54.366  13.641  1.00  0.00     0.069 C 
HETATM   18  C   UNL     1     -42.420 -54.561  14.679  1.00  0.00     0.028 A 
HETATM   19  C   UNL     1     -41.971 -55.339  15.877  1.00  0.00     0.056 C 
HETATM   20  C   UNL     1     -43.880 -54.290  14.594  1.00  0.00     0.256 A 
HETATM   21  O   UNL     1     -44.640 -54.617  15.504  1.00  0.00    -0.267 OA
ENDBRANCH   1  12
TORSDOF 4
ENDMDL
MODEL 9
REMARK VINA RESULT:      -5.8      2.162      6.240
REMARK  4 active torsions:
REMARK  status: ('A' for Active; 'I' for Inactive)
REMARK    1  A    between atoms: C_7  and  C_8 
REMARK    2  A    between atoms: C_8  and  O_9 
REMARK    3  A    between atoms: C_8  and  C_10 
REMARK    4  A    between atoms: C_10  and  N_11 
ROOT
HETATM    1  C   UNL     1     -41.568 -52.829  13.602  1.00  0.00     0.169 C 
ENDROOT
BRANCH   1   2
HETATM    2  C   UNL     1     -41.004 -52.214  12.302  1.00  0.00     0.170 C 
BRANCH   2   3
HETATM    3  C   UNL     1     -39.900 -51.168  12.429  1.00  0.00    -0.022 A 
HETATM    4  C   UNL     1     -39.914 -49.861  11.887  1.00  0.00    -0.053 A 
HETATM    5  C   UNL     1     -41.024 -49.306  11.038  1.00  0.00     0.049 C 
HETATM    6  C   UNL     1     -38.833 -48.993  12.149  1.00  0.00     0.007 A 
HETATM    7  C   UNL     1     -37.759 -49.384  12.943  1.00  0.00     0.001 A 
HETATM    8  C   UNL     1     -37.743 -50.655  13.493  1.00  0.00     0.001 A 
HETATM    9  C   UNL     1     -38.801 -51.530  13.243  1.00  0.00     0.010 A 
ENDBRANCH   2   3
BRANCH   2  10
HETATM   10  O   UNL     1     -40.535 -53.199  11.384  1.00  0.00    -0.389 OA
HETATM   11  H   UNL     1     -39.622 -53.441  11.637  1.00  0.00     0.210 HD
ENDBRANCH   2  10
ENDBRANCH   1   2
BRANCH   1  12
HETATM   12  N   UNL     1     -42.985 -52.548  13.822  1.00  0.00    -0.307 N 
HETATM   13  C   UNL     1     -43.468 -51.272  13.732  1.00  0.00     0.186 A 
HETATM   14  N   UNL     1     -44.683 -50.921  13.983  1.00  0.00    -0.355 N 
HETATM   15  C   UNL     1     -45.553 -51.900  14.400  1.00  0.00     0.017 A 
ATOM     16  HN  UNL     1     -44.988 -49.953  13.877  1.00  0.00     0.166 HD
HETATM   17  C   UNL     1     -46.923 -51.394  14.772  1.00  0.00     0.069 C 
HETATM   18  C   UNL     1     -45.224 -53.202  14.497  1.00  0.00     0.028 A 
HETATM   19  C   UNL     1     -46.103 -54.313  14.983  1.00  0.00     0.056 C 
HETATM   20  C   UNL     1     -43.836 -53.590  14.127  1.00  0.00     0.256 A 
HETATM   21  O   UNL     1     -43.481 -54.768  14.145  1.00  0.00    -0.267 OA
ENDBRANCH   1  12
TORSDOF 4
ENDMDL
