MODEL 1
REMARK VINA RESULT:      -6.6      0.000      0.000
REMARK  4 active torsions:
REMARK  status: ('A' for Active; 'I' for Inactive)
REMARK       I    between atoms: C_2  and  N_3 
REMARK       I    between atoms: C_2  and  N_14 
REMARK    1  A    between atoms: N_3  and  C_4 
REMARK    2  A    between atoms: C_4  and  C_5 
REMARK    3  A    between atoms: C_5  and  N_6 
REMARK    4  A    between atoms: N_14  and  C_15 
ROOT
HETATM    1  O   UNL     1     -38.999 -52.779  13.354  1.00  0.00    -0.247 OA
HETATM    2  C   UNL     1     -39.796 -51.990  12.842  1.00  0.00     0.322 C 
HETATM    3  N   UNL     1     -41.145 -52.185  12.863  1.00  0.00    -0.341 N 
HETATM    4  N   UNL     1     -39.324 -50.902  12.182  1.00  0.00    -0.288 N 
HETATM    5  H   UNL     1     -41.725 -51.370  12.686  1.00  0.00     0.164 HD
HETATM    6  H   UNL     1     -38.322 -50.824  12.122  1.00  0.00     0.172 HD
ENDROOT
BRANCH   3   7
HETATM    7  C   UNL     1     -41.731 -53.312  13.551  1.00  0.00     0.144 C 
BRANCH   7   8
HETATM    8  C   UNL     1     -43.091 -53.731  12.974  1.00  0.00     0.145 C 
BRANCH   8   9
HETATM    9  N   UNL     1     -44.192 -53.278  13.827  1.00  0.00    -0.351 N 
HETATM   10  C   UNL     1     -44.325 -51.844  14.072  1.00  0.00     0.126 C 
HETATM   11  C   UNL     1     -45.644 -51.287  13.566  1.00  0.00     0.020 C 
HETATM   12  C   UNL     1     -46.798 -51.444  14.554  1.00  0.00     0.002 C 
HETATM   13  C   UNL     1     -46.765 -52.687  15.442  1.00  0.00     0.009 C 
HETATM   14  C   UNL     1     -46.392 -53.962  14.713  1.00  0.00     0.103 C 
HETATM   15  C   UNL     1     -44.906 -54.226  14.540  1.00  0.00     0.219 C 
HETATM   16  O   UNL     1     -44.427 -55.313  14.861  1.00  0.00    -0.273 OA
ENDBRANCH   8   9
ENDBRANCH   7   8
ENDBRANCH   3   7
BRANCH   4  17
HETATM   17  C   UNL     1     -40.092 -49.974  11.541  1.00  0.00     0.168 A 
HETATM   18  N   UNL     1     -40.501 -49.959  10.296  1.00  0.00    -0.279 N 
HETATM   19  N   UNL     1     -41.222 -48.817  10.009  1.00  0.00    -0.303 N 
ATOM     20  HN  UNL     1     -40.308 -50.701   9.622  1.00  0.00     0.189 HD
HETATM   21  C   UNL     1     -41.320 -48.031  11.057  1.00  0.00     0.160 A 
ATOM     22  HN  UNL     1     -41.629 -48.611   9.096  1.00  0.00     0.186 HD
HETATM   23  S   UNL     1     -40.578 -48.637  12.483  1.00  0.00    -0.046 SA
ENDBRANCH   4  17
TORSDOF 4
ENDMDL
MODEL 2
REMARK VINA RESULT:      -6.4      2.625      3.188
REMARK  4 active torsions:
REMARK  status: ('A' for Active; 'I' for Inactive)
REMARK       I    between atoms: C_2  and  N_3 
REMARK       I    between atoms: C_2  and  N_14 
REMARK    1  A    between atoms: N_3  and  C_4 
REMARK    2  A    between atoms: C_4  and  C_5 
REMARK    3  A    between atoms: C_5  and  N_6 
REMARK    4  A    between atoms: N_14  and  C_15 
ROOT
HETATM    1  O   UNL     1     -42.156 -48.527  13.595  1.00  0.00    -0.247 OA
HETATM    2  C   UNL     1     -42.407 -48.747  12.409  1.00  0.00     0.322 C 
HETATM    3  N   UNL     1     -42.348 -49.993  11.861  1.00  0.00    -0.341 N 
HETATM    4  N   UNL     1     -42.706 -47.708  11.588  1.00  0.00    -0.288 N 
HETATM    5  H   UNL     1     -42.840 -50.127  10.981  1.00  0.00     0.164 HD
HETATM    6  H   UNL     1     -42.672 -46.793  12.006  1.00  0.00     0.172 HD
ENDROOT
BRANCH   3   7
HETATM    7  C   UNL     1     -42.046 -51.155  12.664  1.00  0.00     0.144 C 
BRANCH   7   8
HETATM    8  C   UNL     1     -43.067 -52.289  12.495  1.00  0.00     0.145 C 
BRANCH   8   9
HETATM    9  N   UNL     1     -44.162 -52.166  13.460  1.00  0.00    -0.351 N 
HETATM   10  C   UNL     1     -43.821 -52.093  14.878  1.00  0.00     0.126 C 
HETATM   11  C   UNL     1     -44.272 -50.791  15.519  1.00  0.00     0.020 C 
HETATM   12  C   UNL     1     -45.725 -50.809  15.990  1.00  0.00     0.002 C 
HETATM   13  C   UNL     1     -46.696 -51.648  15.159  1.00  0.00     0.009 C 
HETATM   14  C   UNL     1     -46.528 -51.492  13.662  1.00  0.00     0.103 C 
HETATM   15  C   UNL     1     -45.459 -52.355  13.013  1.00  0.00     0.219 C 
HETATM   16  O   UNL     1     -45.726 -53.036  12.024  1.00  0.00    -0.273 OA
ENDBRANCH   8   9
ENDBRANCH   7   8
ENDBRANCH   3   7
BRANCH   4  17
HETATM   17  C   UNL     1     -42.967 -47.808  10.252  1.00  0.00     0.168 A 
HETATM   18  N   UNL     1     -42.154 -48.125   9.275  1.00  0.00    -0.279 N 
HETATM   19  N   UNL     1     -42.784 -48.069   8.047  1.00  0.00    -0.303 N 
ATOM     20  HN  UNL     1     -41.175 -48.381   9.405  1.00  0.00     0.189 HD
HETATM   21  C   UNL     1     -44.043 -47.713   8.166  1.00  0.00     0.160 A 
ATOM     22  HN  UNL     1     -42.328 -48.278   7.159  1.00  0.00     0.186 HD
HETATM   23  S   UNL     1     -44.570 -47.459   9.782  1.00  0.00    -0.046 SA
ENDBRANCH   4  17
TORSDOF 4
ENDMDL
MODEL 3
REMARK VINA RESULT:      -6.4      2.974      4.782
REMARK  4 active torsions:
REMARK  status: ('A' for Active; 'I' for Inactive)
REMARK       I    between atoms: C_2  and  N_3 
REMARK       I    between atoms: C_2  and  N_14 
REMARK    1  A    between atoms: N_3  and  C_4 
REMARK    2  A    between atoms: C_4  and  C_5 
REMARK    3  A    between atoms: C_5  and  N_6 
REMARK    4  A    between atoms: N_14  and  C_15 
ROOT
HETATM    1  O   UNL     1     -40.656 -47.443  11.388  1.00  0.00    -0.247 OA
HETATM    2  C   UNL     1     -41.646 -47.879  10.798  1.00  0.00     0.322 C 
HETATM    3  N   UNL     1     -42.266 -49.039  11.152  1.00  0.00    -0.341 N 
HETATM    4  N   UNL     1     -42.120 -47.213   9.714  1.00  0.00    -0.288 N 
HETATM    5  H   UNL     1     -43.217 -49.168  10.815  1.00  0.00     0.164 HD
HETATM    6  H   UNL     1     -41.598 -46.399   9.434  1.00  0.00     0.172 HD
ENDROOT
BRANCH   3   7
HETATM    7  C   UNL     1     -41.832 -49.805  12.297  1.00  0.00     0.144 C 
BRANCH   7   8
HETATM    8  C   UNL     1     -41.073 -51.084  11.916  1.00  0.00     0.145 C 
BRANCH   8   9
HETATM    9  N   UNL     1     -41.191 -52.103  12.961  1.00  0.00    -0.351 N 
HETATM   10  C   UNL     1     -42.468 -52.222  13.661  1.00  0.00     0.126 C 
HETATM   11  C   UNL     1     -43.109 -53.587  13.476  1.00  0.00     0.020 C 
HETATM   12  C   UNL     1     -42.605 -54.641  14.459  1.00  0.00     0.002 C 
HETATM   13  C   UNL     1     -41.146 -54.517  14.897  1.00  0.00     0.009 C 
HETATM   14  C   UNL     1     -40.183 -54.205  13.770  1.00  0.00     0.103 C 
HETATM   15  C   UNL     1     -40.041 -52.741  13.393  1.00  0.00     0.219 C 
HETATM   16  O   UNL     1     -38.926 -52.226  13.307  1.00  0.00    -0.273 OA
ENDBRANCH   8   9
ENDBRANCH   7   8
ENDBRANCH   3   7
BRANCH   4  17
HETATM   17  C   UNL     1     -43.182 -47.604   8.950  1.00  0.00     0.168 A 
HETATM   18  N   UNL     1     -43.184 -48.123   7.747  1.00  0.00    -0.279 N 
HETATM   19  N   UNL     1     -44.469 -48.340   7.287  1.00  0.00    -0.303 N 
ATOM     20  HN  UNL     1     -42.341 -48.341   7.215  1.00  0.00     0.189 HD
HETATM   21  C   UNL     1     -45.368 -47.972   8.172  1.00  0.00     0.160 A 
ATOM     22  HN  UNL     1     -44.691 -48.736   6.374  1.00  0.00     0.186 HD
HETATM   23  S   UNL     1     -44.722 -47.373   9.647  1.00  0.00    -0.046 SA
ENDBRANCH   4  17
TORSDOF 4
ENDMDL
MODEL 4
REMARK VINA RESULT:      -6.3      1.317      1.831
REMARK  4 active torsions:
REMARK  status: ('A' for Active; 'I' for Inactive)
REMARK       I    between atoms: C_2  and  N_3 
REMARK       I    between atoms: C_2  and  N_14 
REMARK    1  A    between atoms: N_3  and  C_4 
REMARK    2  A    between atoms: C_4  and  C_5 
REMARK    3  A    between atoms: C_5  and  N_6 
REMARK    4  A    between atoms: N_14  and  C_15 
ROOT
HETATM    1  O   UNL     1     -39.004 -52.458  13.383  1.00  0.00    -0.247 OA
HETATM    2  C   UNL     1     -39.828 -51.781  12.766  1.00  0.00     0.322 C 
HETATM    3  N   UNL     1     -41.101 -52.203  12.529  1.00  0.00    -0.341 N 
HETATM    4  N   UNL     1     -39.451 -50.583  12.250  1.00  0.00    -0.288 N 
HETATM    5  H   UNL     1     -41.779 -51.486  12.281  1.00  0.00     0.164 HD
HETATM    6  H   UNL     1     -38.484 -50.332  12.380  1.00  0.00     0.172 HD
ENDROOT
BRANCH   3   7
HETATM    7  C   UNL     1     -41.587 -53.459  13.049  1.00  0.00     0.144 C 
BRANCH   7   8
HETATM    8  C   UNL     1     -42.295 -53.319  14.405  1.00  0.00     0.145 C 
BRANCH   8   9
HETATM    9  N   UNL     1     -43.649 -52.786  14.244  1.00  0.00    -0.351 N 
HETATM   10  C   UNL     1     -44.627 -53.603  13.529  1.00  0.00     0.126 C 
HETATM   11  C   UNL     1     -45.817 -53.979  14.395  1.00  0.00     0.020 C 
HETATM   12  C   UNL     1     -46.910 -52.914  14.433  1.00  0.00     0.002 C 
HETATM   13  C   UNL     1     -46.445 -51.461  14.334  1.00  0.00     0.009 C 
HETATM   14  C   UNL     1     -45.230 -51.138  15.180  1.00  0.00     0.103 C 
HETATM   15  C   UNL     1     -43.879 -51.459  14.566  1.00  0.00     0.219 C 
HETATM   16  O   UNL     1     -42.991 -50.608  14.538  1.00  0.00    -0.273 OA
ENDBRANCH   8   9
ENDBRANCH   7   8
ENDBRANCH   3   7
BRANCH   4  17
HETATM   17  C   UNL     1     -40.249 -49.754  11.517  1.00  0.00     0.168 A 
HETATM   18  N   UNL     1     -40.555 -49.816  10.244  1.00  0.00    -0.279 N 
HETATM   19  N   UNL     1     -41.357 -48.759   9.860  1.00  0.00    -0.303 N 
ATOM     20  HN  UNL     1     -40.240 -50.555   9.615  1.00  0.00     0.189 HD
HETATM   21  C   UNL     1     -41.614 -47.955  10.867  1.00  0.00     0.160 A 
ATOM     22  HN  UNL     1     -41.706 -48.620   8.911  1.00  0.00     0.186 HD
HETATM   23  S   UNL     1     -40.935 -48.443  12.368  1.00  0.00    -0.046 SA
ENDBRANCH   4  17
TORSDOF 4
ENDMDL
MODEL 5
REMARK VINA RESULT:      -6.0      3.590      7.386
REMARK  4 active torsions:
REMARK  status: ('A' for Active; 'I' for Inactive)
REMARK       I    between atoms: C_2  and  N_3 
REMARK       I    between atoms: C_2  and  N_14 
REMARK    1  A    between atoms: N_3  and  C_4 
REMARK    2  A    between atoms: C_4  and  C_5 
REMARK    3  A    between atoms: C_5  and  N_6 
REMARK    4  A    between atoms: N_14  and  C_15 
ROOT
HETATM    1  O   UNL     1     -39.465 -49.191  11.271  1.00  0.00    -0.247 OA
HETATM    2  C   UNL     1     -40.529 -49.800  11.392  1.00  0.00     0.322 C 
HETATM    3  N   UNL     1     -41.730 -49.267  11.032  1.00  0.00    -0.341 N 
HETATM    4  N   UNL     1     -40.527 -51.036  11.953  1.00  0.00    -0.288 N 
HETATM    5  H   UNL     1     -42.495 -49.923  10.893  1.00  0.00     0.164 HD
HETATM    6  H   UNL     1     -39.634 -51.373  12.273  1.00  0.00     0.172 HD
ENDROOT
BRANCH   3   7
HETATM    7  C   UNL     1     -41.821 -47.962  10.420  1.00  0.00     0.144 C 
BRANCH   7   8
HETATM    8  C   UNL     1     -42.583 -46.943  11.281  1.00  0.00     0.145 C 
BRANCH   8   9
HETATM    9  N   UNL     1     -41.677 -45.936  11.838  1.00  0.00    -0.351 N 
HETATM   10  C   UNL     1     -41.195 -46.128  13.204  1.00  0.00     0.126 C 
HETATM   11  C   UNL     1     -39.683 -46.263  13.274  1.00  0.00     0.020 C 
HETATM   12  C   UNL     1     -38.948 -44.926  13.327  1.00  0.00     0.002 C 
HETATM   13  C   UNL     1     -39.594 -43.767  12.568  1.00  0.00     0.009 C 
HETATM   14  C   UNL     1     -40.115 -44.137  11.195  1.00  0.00     0.103 C 
HETATM   15  C   UNL     1     -41.504 -44.750  11.146  1.00  0.00     0.219 C 
HETATM   16  O   UNL     1     -42.355 -44.300  10.379  1.00  0.00    -0.273 OA
ENDBRANCH   8   9
ENDBRANCH   7   8
ENDBRANCH   3   7
BRANCH   4  17
HETATM   17  C   UNL     1     -41.634 -51.802  12.179  1.00  0.00     0.168 A 
HETATM   18  N   UNL     1     -42.234 -52.642  11.371  1.00  0.00    -0.279 N 
HETATM   19  N   UNL     1     -43.360 -53.191  11.951  1.00  0.00    -0.303 N 
ATOM     20  HN  UNL     1     -41.908 -52.862  10.429  1.00  0.00     0.189 HD
HETATM   21  C   UNL     1     -43.549 -52.735  13.169  1.00  0.00     0.160 A 
ATOM     22  HN  UNL     1     -43.970 -53.867  11.490  1.00  0.00     0.186 HD
HETATM   23  S   UNL     1     -42.349 -51.635  13.718  1.00  0.00    -0.046 SA
ENDBRANCH   4  17
TORSDOF 4
ENDMDL
MODEL 6
REMARK VINA RESULT:      -5.9      2.411      3.698
REMARK  4 active torsions:
REMARK  status: ('A' for Active; 'I' for Inactive)
REMARK       I    between atoms: C_2  and  N_3 
REMARK       I    between atoms: C_2  and  N_14 
REMARK    1  A    between atoms: N_3  and  C_4 
REMARK    2  A    between atoms: C_4  and  C_5 
REMARK    3  A    between atoms: C_5  and  N_6 
REMARK    4  A    between atoms: N_14  and  C_15 
ROOT
HETATM    1  O   UNL     1     -40.852 -49.862  11.845  1.00  0.00    -0.247 OA
HETATM    2  C   UNL     1     -41.773 -49.164  11.417  1.00  0.00     0.322 C 
HETATM    3  N   UNL     1     -42.976 -49.061  12.048  1.00  0.00    -0.341 N 
HETATM    4  N   UNL     1     -41.615 -48.503  10.242  1.00  0.00    -0.288 N 
HETATM    5  H   UNL     1     -43.554 -48.262  11.798  1.00  0.00     0.164 HD
HETATM    6  H   UNL     1     -40.742 -48.655   9.765  1.00  0.00     0.172 HD
ENDROOT
BRANCH   3   7
HETATM    7  C   UNL     1     -43.225 -49.724  13.306  1.00  0.00     0.144 C 
BRANCH   7   8
HETATM    8  C   UNL     1     -44.365 -50.751  13.233  1.00  0.00     0.145 C 
BRANCH   8   9
HETATM    9  N   UNL     1     -43.886 -52.099  13.545  1.00  0.00    -0.351 N 
HETATM   10  C   UNL     1     -42.929 -52.715  12.630  1.00  0.00     0.126 C 
HETATM   11  C   UNL     1     -41.603 -53.033  13.300  1.00  0.00     0.020 C 
HETATM   12  C   UNL     1     -41.589 -54.373  14.031  1.00  0.00     0.002 C 
HETATM   13  C   UNL     1     -42.909 -54.814  14.664  1.00  0.00     0.009 C 
HETATM   14  C   UNL     1     -43.645 -53.712  15.398  1.00  0.00     0.103 C 
HETATM   15  C   UNL     1     -44.523 -52.809  14.548  1.00  0.00     0.219 C 
HETATM   16  O   UNL     1     -45.691 -52.597  14.871  1.00  0.00    -0.273 OA
ENDBRANCH   8   9
ENDBRANCH   7   8
ENDBRANCH   3   7
BRANCH   4  17
HETATM   17  C   UNL     1     -42.563 -47.728   9.639  1.00  0.00     0.168 A 
HETATM   18  N   UNL     1     -43.482 -48.076   8.771  1.00  0.00    -0.279 N 
HETATM   19  N   UNL     1     -44.226 -46.990   8.354  1.00  0.00    -0.303 N 
ATOM     20  HN  UNL     1     -43.628 -49.031   8.445  1.00  0.00     0.189 HD
HETATM   21  C   UNL     1     -43.828 -45.879   8.932  1.00  0.00     0.160 A 
ATOM     22  HN  UNL     1     -44.990 -47.044   7.680  1.00  0.00     0.186 HD
HETATM   23  S   UNL     1     -42.546 -46.075  10.059  1.00  0.00    -0.046 SA
ENDBRANCH   4  17
TORSDOF 4
ENDMDL
MODEL 7
REMARK VINA RESULT:      -5.9      2.445      4.096
REMARK  4 active torsions:
REMARK  status: ('A' for Active; 'I' for Inactive)
REMARK       I    between atoms: C_2  and  N_3 
REMARK       I    between atoms: C_2  and  N_14 
REMARK    1  A    between atoms: N_3  and  C_4 
REMARK    2  A    between atoms: C_4  and  C_5 
REMARK    3  A    between atoms: C_5  and  N_6 
REMARK    4  A    between atoms: N_14  and  C_15 
ROOT
HETATM    1  O   UNL     1     -43.881 -50.281  14.778  1.00  0.00    -0.247 OA
HETATM    2  C   UNL     1     -43.664 -50.113  13.577  1.00  0.00     0.322 C 
HETATM    3  N   UNL     1     -44.086 -50.986  12.620  1.00  0.00    -0.341 N 
HETATM    4  N   UNL     1     -42.930 -49.042  13.178  1.00  0.00    -0.288 N 
HETATM    5  H   UNL     1     -44.123 -50.634  11.667  1.00  0.00     0.164 HD
HETATM    6  H   UNL     1     -42.572 -48.455  13.913  1.00  0.00     0.172 HD
ENDROOT
BRANCH   3   7
HETATM    7  C   UNL     1     -44.880 -52.145  12.957  1.00  0.00     0.144 C 
BRANCH   7   8
HETATM    8  C   UNL     1     -44.164 -53.473  12.667  1.00  0.00     0.145 C 
BRANCH   8   9
HETATM    9  N   UNL     1     -42.955 -53.614  13.481  1.00  0.00    -0.351 N 
HETATM   10  C   UNL     1     -43.116 -53.816  14.918  1.00  0.00     0.126 C 
HETATM   11  C   UNL     1     -42.535 -55.138  15.389  1.00  0.00     0.020 C 
HETATM   12  C   UNL     1     -41.038 -55.081  15.684  1.00  0.00     0.002 C 
HETATM   13  C   UNL     1     -40.212 -54.129  14.818  1.00  0.00     0.009 C 
HETATM   14  C   UNL     1     -40.555 -54.175  13.343  1.00  0.00     0.103 C 
HETATM   15  C   UNL     1     -41.732 -53.322  12.901  1.00  0.00     0.219 C 
HETATM   16  O   UNL     1     -41.617 -52.551  11.948  1.00  0.00    -0.273 OA
ENDBRANCH   8   9
ENDBRANCH   7   8
ENDBRANCH   3   7
BRANCH   4  17
HETATM   17  C   UNL     1     -42.587 -48.759  11.888  1.00  0.00     0.168 A 
HETATM   18  N   UNL     1     -41.679 -49.327  11.133  1.00  0.00    -0.279 N 
HETATM   19  N   UNL     1     -41.594 -48.722   9.894  1.00  0.00    -0.303 N 
ATOM     20  HN  UNL     1     -41.105 -50.119  11.425  1.00  0.00     0.189 HD
HETATM   21  C   UNL     1     -42.445 -47.728   9.781  1.00  0.00     0.160 A 
ATOM     22  HN  UNL     1     -40.949 -49.012   9.158  1.00  0.00     0.186 HD
HETATM   23  S   UNL     1     -43.444 -47.478  11.157  1.00  0.00    -0.046 SA
ENDBRANCH   4  17
TORSDOF 4
ENDMDL
MODEL 8
REMARK VINA RESULT:      -5.8      2.000      2.425
REMARK  4 active torsions:
REMARK  status: ('A' for Active; 'I' for Inactive)
REMARK       I    between atoms: C_2  and  N_3 
REMARK       I    between atoms: C_2  and  N_14 
REMARK    1  A    between atoms: N_3  and  C_4 
REMARK    2  A    between atoms: C_4  and  C_5 
REMARK    3  A    between atoms: C_5  and  N_6 
REMARK    4  A    between atoms: N_14  and  C_15 
ROOT
HETATM    1  O   UNL     1     -43.032 -49.919  12.775  1.00  0.00    -0.247 OA
HETATM    2  C   UNL     1     -41.930 -50.379  12.471  1.00  0.00     0.322 C 
HETATM    3  N   UNL     1     -41.727 -51.701  12.211  1.00  0.00    -0.341 N 
HETATM    4  N   UNL     1     -40.851 -49.555  12.440  1.00  0.00    -0.288 N 
HETATM    5  H   UNL     1     -40.883 -51.939  11.697  1.00  0.00     0.164 HD
HETATM    6  H   UNL     1     -41.019 -48.598  12.706  1.00  0.00     0.172 HD
ENDROOT
BRANCH   3   7
HETATM    7  C   UNL     1     -42.821 -52.644  12.214  1.00  0.00     0.144 C 
BRANCH   7   8
HETATM    8  C   UNL     1     -42.943 -53.423  13.532  1.00  0.00     0.145 C 
BRANCH   8   9
HETATM    9  N   UNL     1     -44.184 -53.090  14.233  1.00  0.00    -0.351 N 
HETATM   10  C   UNL     1     -44.082 -52.434  15.534  1.00  0.00     0.126 C 
HETATM   11  C   UNL     1     -44.732 -51.060  15.546  1.00  0.00     0.020 C 
HETATM   12  C   UNL     1     -46.235 -51.094  15.812  1.00  0.00     0.002 C 
HETATM   13  C   UNL     1     -46.991 -52.310  15.278  1.00  0.00     0.009 C 
HETATM   14  C   UNL     1     -46.598 -52.719  13.874  1.00  0.00     0.103 C 
HETATM   15  C   UNL     1     -45.373 -53.610  13.751  1.00  0.00     0.219 C 
HETATM   16  O   UNL     1     -45.424 -54.648  13.092  1.00  0.00    -0.273 OA
ENDBRANCH   8   9
ENDBRANCH   7   8
ENDBRANCH   3   7
BRANCH   4  17
HETATM   17  C   UNL     1     -39.573 -49.939  12.156  1.00  0.00     0.168 A 
HETATM   18  N   UNL     1     -38.967 -49.995  10.995  1.00  0.00    -0.279 N 
HETATM   19  N   UNL     1     -37.682 -50.485  11.112  1.00  0.00    -0.303 N 
ATOM     20  HN  UNL     1     -39.394 -49.710  10.112  1.00  0.00     0.189 HD
HETATM   21  C   UNL     1     -37.386 -50.774  12.360  1.00  0.00     0.160 A 
ATOM     22  HN  UNL     1     -37.041 -50.609  10.328  1.00  0.00     0.186 HD
HETATM   23  S   UNL     1     -38.633 -50.431  13.491  1.00  0.00    -0.046 SA
ENDBRANCH   4  17
TORSDOF 4
ENDMDL
MODEL 9
REMARK VINA RESULT:      -5.7      3.674      7.444
REMARK  4 active torsions:
REMARK  status: ('A' for Active; 'I' for Inactive)
REMARK       I    between atoms: C_2  and  N_3 
REMARK       I    between atoms: C_2  and  N_14 
REMARK    1  A    between atoms: N_3  and  C_4 
REMARK    2  A    between atoms: C_4  and  C_5 
REMARK    3  A    between atoms: C_5  and  N_6 
REMARK    4  A    between atoms: N_14  and  C_15 
ROOT
HETATM    1  O   UNL     1     -37.855 -49.452  12.087  1.00  0.00    -0.247 OA
HETATM    2  C   UNL     1     -39.023 -49.844  12.113  1.00  0.00     0.322 C 
HETATM    3  N   UNL     1     -40.085 -48.995  12.196  1.00  0.00    -0.341 N 
HETATM    4  N   UNL     1     -39.277 -51.178  12.111  1.00  0.00    -0.288 N 
HETATM    5  H   UNL     1     -40.990 -49.370  11.923  1.00  0.00     0.164 HD
HETATM    6  H   UNL     1     -38.470 -51.780  12.121  1.00  0.00     0.172 HD
ENDROOT
BRANCH   3   7
HETATM    7  C   UNL     1     -39.905 -47.562  12.195  1.00  0.00     0.144 C 
BRANCH   7   8
HETATM    8  C   UNL     1     -40.334 -46.901  10.876  1.00  0.00     0.145 C 
BRANCH   8   9
HETATM    9  N   UNL     1     -40.977 -45.608  11.116  1.00  0.00    -0.351 N 
HETATM   10  C   UNL     1     -42.341 -45.607  11.641  1.00  0.00     0.126 C 
HETATM   11  C   UNL     1     -42.443 -44.925  12.995  1.00  0.00     0.020 C 
HETATM   12  C   UNL     1     -42.601 -43.409  12.908  1.00  0.00     0.002 C 
HETATM   13  C   UNL     1     -41.900 -42.720  11.738  1.00  0.00     0.009 C 
HETATM   14  C   UNL     1     -40.492 -43.215  11.478  1.00  0.00     0.103 C 
HETATM   15  C   UNL     1     -40.367 -44.466  10.626  1.00  0.00     0.219 C 
HETATM   16  O   UNL     1     -39.607 -44.485   9.658  1.00  0.00    -0.273 OA
ENDBRANCH   8   9
ENDBRANCH   7   8
ENDBRANCH   3   7
BRANCH   4  17
HETATM   17  C   UNL     1     -40.517 -51.745  12.174  1.00  0.00     0.168 A 
HETATM   18  N   UNL     1     -41.259 -52.215  11.201  1.00  0.00    -0.279 N 
HETATM   19  N   UNL     1     -42.480 -52.665  11.662  1.00  0.00    -0.303 N 
ATOM     20  HN  UNL     1     -40.969 -52.244  10.223  1.00  0.00     0.189 HD
HETATM   21  C   UNL     1     -42.593 -52.511  12.962  1.00  0.00     0.160 A 
ATOM     22  HN  UNL     1     -43.205 -53.067  11.067  1.00  0.00     0.186 HD
HETATM   23  S   UNL     1     -41.208 -51.845  13.730  1.00  0.00    -0.046 SA
ENDBRANCH   4  17
TORSDOF 4
ENDMDL
