MODEL 1
REMARK VINA RESULT:      -6.3      0.000      0.000
REMARK  9 active torsions:
REMARK  status: ('A' for Active; 'I' for Inactive)
REMARK    1  A    between atoms: N_1  and  C_8 
REMARK    2  A    between atoms: C_6  and  N_9 
REMARK    3  A    between atoms: N_9  and  C_18 
REMARK    4  A    between atoms: C_14  and  C_20 
REMARK    5  A    between atoms: C_14  and  C_21 
REMARK    6  A    between atoms: C_18  and  C_19 
REMARK    7  A    between atoms: C_19  and  O_22 
REMARK    8  A    between atoms: C_20  and  O_24 
REMARK    9  A    between atoms: C_21  and  O_25 
ROOT
HETATM    1  N   UNL     1     -42.277 -49.405  12.370  1.00  0.00    -0.322 N 
HETATM    2  C   UNL     1     -42.615 -51.325  13.350  1.00  0.00     0.122 A 
HETATM    3  C   UNL     1     -41.920 -50.729  12.290  1.00  0.00     0.140 A 
HETATM    4  N   UNL     1     -43.363 -50.397  14.044  1.00  0.00    -0.346 N 
ATOM      5  HN  UNL     1     -43.965 -50.559  14.851  1.00  0.00     0.167 HD
HETATM    6  C   UNL     1     -42.474 -52.722  13.573  1.00  0.00     0.135 A 
HETATM    7  C   UNL     1     -43.127 -49.260  13.433  1.00  0.00     0.185 A 
HETATM    8  N   UNL     1     -41.094 -51.352  11.440  1.00  0.00    -0.336 N 
ATOM      9  HN  UNL     1     -40.591 -50.896  10.679  1.00  0.00     0.168 HD
HETATM   10  N   UNL     1     -41.647 -53.382  12.711  1.00  0.00    -0.337 N 
ATOM     11  HN  UNL     1     -41.503 -54.387  12.800  1.00  0.00     0.168 HD
HETATM   12  C   UNL     1     -41.019 -52.679  11.732  1.00  0.00     0.183 A 
ENDROOT
BRANCH   1  13
HETATM   13  C   UNL     1     -41.937 -48.230  11.616  1.00  0.00     0.094 C 
HETATM   14  C   UNL     1     -43.120 -47.208  11.567  1.00  0.00     0.039 C 
HETATM   15  C   UNL     1     -42.446 -46.638  10.274  1.00  0.00     0.006 C 
HETATM   16  C   UNL     1     -41.940 -48.137  10.080  1.00  0.00     0.039 C 
BRANCH  15  17
HETATM   17  C   UNL     1     -43.429 -46.125   9.222  1.00  0.00     0.175 C 
BRANCH  17  18
HETATM   18  O   UNL     1     -42.768 -45.976   7.969  1.00  0.00    -0.400 OA
HETATM   19  H   UNL     1     -43.275 -45.315   7.454  1.00  0.00     0.209 HD
ENDBRANCH  17  18
ENDBRANCH  15  17
BRANCH  15  20
HETATM   20  C   UNL     1     -41.413 -45.543  10.617  1.00  0.00     0.175 C 
BRANCH  20  21
HETATM   21  O   UNL     1     -40.624 -45.249   9.470  1.00  0.00    -0.400 OA
HETATM   22  H   UNL     1     -39.700 -45.468   9.692  1.00  0.00     0.209 HD
ENDBRANCH  20  21
ENDBRANCH  15  20
ENDBRANCH   1  13
BRANCH   6  23
HETATM   23  N   UNL     1     -43.131 -53.375  14.615  1.00  0.00    -0.367 N 
HETATM   24  C   UNL     1     -42.396 -53.479  15.875  1.00  0.00     0.151 C 
BRANCH  23  25
HETATM   25  C   UNL     1     -44.153 -54.398  14.371  1.00  0.00     0.161 C 
BRANCH  25  26
HETATM   26  C   UNL     1     -45.590 -53.839  14.070  1.00  0.00     0.069 C 
HETATM   27  C   UNL     1     -46.621 -54.918  14.469  1.00  0.00     0.047 C 
HETATM   28  C   UNL     1     -45.940 -52.578  14.879  1.00  0.00     0.047 C 
BRANCH  26  29
HETATM   29  O   UNL     1     -45.810 -53.441  12.704  1.00  0.00    -0.384 OA
HETATM   30  C   UNL     1     -46.324 -52.142  12.484  1.00  0.00     0.202 C 
ENDBRANCH  26  29
ENDBRANCH  25  26
ENDBRANCH  23  25
ENDBRANCH   6  23
TORSDOF 9
ENDMDL
MODEL 2
REMARK VINA RESULT:      -5.7      3.303      7.356
REMARK  9 active torsions:
REMARK  status: ('A' for Active; 'I' for Inactive)
REMARK    1  A    between atoms: N_1  and  C_8 
REMARK    2  A    between atoms: C_6  and  N_9 
REMARK    3  A    between atoms: N_9  and  C_18 
REMARK    4  A    between atoms: C_14  and  C_20 
REMARK    5  A    between atoms: C_14  and  C_21 
REMARK    6  A    between atoms: C_18  and  C_19 
REMARK    7  A    between atoms: C_19  and  O_22 
REMARK    8  A    between atoms: C_20  and  O_24 
REMARK    9  A    between atoms: C_21  and  O_25 
ROOT
HETATM    1  N   UNL     1     -42.191 -51.764  12.723  1.00  0.00    -0.322 N 
HETATM    2  C   UNL     1     -40.262 -50.808  12.367  1.00  0.00     0.122 A 
HETATM    3  C   UNL     1     -41.635 -50.658  12.129  1.00  0.00     0.140 A 
HETATM    4  N   UNL     1     -40.000 -51.960  13.078  1.00  0.00    -0.346 N 
ATOM      5  HN  UNL     1     -39.092 -52.314  13.379  1.00  0.00     0.167 HD
HETATM    6  C   UNL     1     -39.364 -49.819  11.883  1.00  0.00     0.135 A 
HETATM    7  C   UNL     1     -41.179 -52.499  13.280  1.00  0.00     0.185 A 
HETATM    8  N   UNL     1     -42.216 -49.639  11.483  1.00  0.00    -0.336 N 
ATOM      9  HN  UNL     1     -43.220 -49.547  11.328  1.00  0.00     0.168 HD
HETATM   10  N   UNL     1     -39.931 -48.776  11.210  1.00  0.00    -0.337 N 
ATOM     11  HN  UNL     1     -39.350 -48.032  10.824  1.00  0.00     0.168 HD
HETATM   12  C   UNL     1     -41.282 -48.744  11.062  1.00  0.00     0.183 A 
ENDROOT
BRANCH   1  13
HETATM   13  C   UNL     1     -43.535 -52.249  12.875  1.00  0.00     0.094 C 
HETATM   14  C   UNL     1     -43.826 -52.709  14.341  1.00  0.00     0.039 C 
HETATM   15  C   UNL     1     -44.971 -53.587  13.736  1.00  0.00     0.006 C 
HETATM   16  C   UNL     1     -44.019 -53.649  12.459  1.00  0.00     0.039 C 
BRANCH  15  17
HETATM   17  C   UNL     1     -45.201 -54.913  14.460  1.00  0.00     0.175 C 
BRANCH  17  18
HETATM   18  O   UNL     1     -46.047 -55.754  13.681  1.00  0.00    -0.400 OA
HETATM   19  H   UNL     1     -46.053 -55.390  12.771  1.00  0.00     0.209 HD
ENDBRANCH  17  18
ENDBRANCH  15  17
BRANCH  15  20
HETATM   20  C   UNL     1     -46.294 -52.796  13.641  1.00  0.00     0.175 C 
BRANCH  20  21
HETATM   21  O   UNL     1     -47.307 -53.460  14.387  1.00  0.00    -0.400 OA
HETATM   22  H   UNL     1     -46.953 -54.332  14.642  1.00  0.00     0.209 HD
ENDBRANCH  20  21
ENDBRANCH  15  20
ENDBRANCH   1  13
BRANCH   6  23
HETATM   23  N   UNL     1     -37.988 -49.903  12.093  1.00  0.00    -0.367 N 
HETATM   24  C   UNL     1     -37.159 -50.014  10.894  1.00  0.00     0.151 C 
BRANCH  23  25
HETATM   25  C   UNL     1     -37.421 -50.452  13.330  1.00  0.00     0.161 C 
BRANCH  25  26
HETATM   26  C   UNL     1     -37.611 -49.549  14.602  1.00  0.00     0.069 C 
HETATM   27  C   UNL     1     -36.513 -49.920  15.624  1.00  0.00     0.047 C 
HETATM   28  C   UNL     1     -37.455 -48.046  14.316  1.00  0.00     0.047 C 
BRANCH  26  29
HETATM   29  O   UNL     1     -38.905 -49.647  15.226  1.00  0.00    -0.384 OA
HETATM   30  C   UNL     1     -39.659 -48.456  15.338  1.00  0.00     0.202 C 
ENDBRANCH  26  29
ENDBRANCH  25  26
ENDBRANCH  23  25
ENDBRANCH   6  23
TORSDOF 9
ENDMDL
MODEL 3
REMARK VINA RESULT:      -5.6      1.500      2.680
REMARK  9 active torsions:
REMARK  status: ('A' for Active; 'I' for Inactive)
REMARK    1  A    between atoms: N_1  and  C_8 
REMARK    2  A    between atoms: C_6  and  N_9 
REMARK    3  A    between atoms: N_9  and  C_18 
REMARK    4  A    between atoms: C_14  and  C_20 
REMARK    5  A    between atoms: C_14  and  C_21 
REMARK    6  A    between atoms: C_18  and  C_19 
REMARK    7  A    between atoms: C_19  and  O_22 
REMARK    8  A    between atoms: C_20  and  O_24 
REMARK    9  A    between atoms: C_21  and  O_25 
ROOT
HETATM    1  N   UNL     1     -42.418 -49.627  12.218  1.00  0.00    -0.322 N 
HETATM    2  C   UNL     1     -42.874 -51.573  13.094  1.00  0.00     0.122 A 
HETATM    3  C   UNL     1     -41.993 -50.933  12.212  1.00  0.00     0.140 A 
HETATM    4  N   UNL     1     -43.795 -50.688  13.613  1.00  0.00    -0.346 N 
ATOM      5  HN  UNL     1     -44.549 -50.886  14.270  1.00  0.00     0.167 HD
HETATM    6  C   UNL     1     -42.722 -52.965  13.337  1.00  0.00     0.135 A 
HETATM    7  C   UNL     1     -43.483 -49.534  13.073  1.00  0.00     0.185 A 
HETATM    8  N   UNL     1     -40.976 -51.509  11.558  1.00  0.00    -0.336 N 
ATOM      9  HN  UNL     1     -40.342 -51.021  10.926  1.00  0.00     0.168 HD
HETATM   10  N   UNL     1     -41.700 -53.578  12.671  1.00  0.00    -0.337 N 
ATOM     11  HN  UNL     1     -41.534 -54.577  12.785  1.00  0.00     0.168 HD
HETATM   12  C   UNL     1     -40.907 -52.835  11.854  1.00  0.00     0.183 A 
ENDROOT
BRANCH   1  13
HETATM   13  C   UNL     1     -41.977 -48.428  11.560  1.00  0.00     0.094 C 
HETATM   14  C   UNL     1     -43.050 -47.293  11.636  1.00  0.00     0.039 C 
HETATM   15  C   UNL     1     -42.349 -46.679  10.378  1.00  0.00     0.006 C 
HETATM   16  C   UNL     1     -42.002 -48.198  10.039  1.00  0.00     0.039 C 
BRANCH  15  17
HETATM   17  C   UNL     1     -43.297 -45.979   9.405  1.00  0.00     0.175 C 
BRANCH  17  18
HETATM   18  O   UNL     1     -42.714 -45.933   8.106  1.00  0.00    -0.400 OA
HETATM   19  H   UNL     1     -41.823 -46.335   8.177  1.00  0.00     0.209 HD
ENDBRANCH  17  18
ENDBRANCH  15  17
BRANCH  15  20
HETATM   20  C   UNL     1     -41.203 -45.727  10.785  1.00  0.00     0.175 C 
BRANCH  20  21
HETATM   21  O   UNL     1     -40.561 -45.223   9.620  1.00  0.00    -0.400 OA
HETATM   22  H   UNL     1     -39.777 -44.723   9.916  1.00  0.00     0.209 HD
ENDBRANCH  20  21
ENDBRANCH  15  20
ENDBRANCH   1  13
BRANCH   6  23
HETATM   23  N   UNL     1     -43.558 -53.660  14.210  1.00  0.00    -0.367 N 
HETATM   24  C   UNL     1     -44.865 -54.046  13.679  1.00  0.00     0.151 C 
BRANCH  23  25
HETATM   25  C   UNL     1     -43.467 -53.505  15.666  1.00  0.00     0.161 C 
BRANCH  25  26
HETATM   26  C   UNL     1     -42.278 -54.280  16.339  1.00  0.00     0.069 C 
HETATM   27  C   UNL     1     -42.363 -54.061  17.866  1.00  0.00     0.047 C 
HETATM   28  C   UNL     1     -42.329 -55.801  16.112  1.00  0.00     0.047 C 
BRANCH  26  29
HETATM   29  O   UNL     1     -40.969 -53.907  15.871  1.00  0.00    -0.384 OA
HETATM   30  C   UNL     1     -40.027 -54.947  15.689  1.00  0.00     0.202 C 
ENDBRANCH  26  29
ENDBRANCH  25  26
ENDBRANCH  23  25
ENDBRANCH   6  23
TORSDOF 9
ENDMDL
MODEL 4
REMARK VINA RESULT:      -5.6      2.317      2.995
REMARK  9 active torsions:
REMARK  status: ('A' for Active; 'I' for Inactive)
REMARK    1  A    between atoms: N_1  and  C_8 
REMARK    2  A    between atoms: C_6  and  N_9 
REMARK    3  A    between atoms: N_9  and  C_18 
REMARK    4  A    between atoms: C_14  and  C_20 
REMARK    5  A    between atoms: C_14  and  C_21 
REMARK    6  A    between atoms: C_18  and  C_19 
REMARK    7  A    between atoms: C_19  and  O_22 
REMARK    8  A    between atoms: C_20  and  O_24 
REMARK    9  A    between atoms: C_21  and  O_25 
ROOT
HETATM    1  N   UNL     1     -41.645 -48.939  11.747  1.00  0.00    -0.322 N 
HETATM    2  C   UNL     1     -40.694 -50.555  12.865  1.00  0.00     0.122 A 
HETATM    3  C   UNL     1     -40.429 -49.555  11.920  1.00  0.00     0.140 A 
HETATM    4  N   UNL     1     -42.019 -50.543  13.249  1.00  0.00    -0.346 N 
ATOM      5  HN  UNL     1     -42.481 -51.161  13.915  1.00  0.00     0.167 HD
HETATM    6  C   UNL     1     -39.637 -51.403  13.291  1.00  0.00     0.135 A 
HETATM    7  C   UNL     1     -42.551 -49.557  12.566  1.00  0.00     0.185 A 
HETATM    8  N   UNL     1     -39.240 -49.293  11.363  1.00  0.00    -0.336 N 
ATOM      9  HN  UNL     1     -39.068 -48.554  10.681  1.00  0.00     0.168 HD
HETATM   10  N   UNL     1     -38.417 -51.164  12.728  1.00  0.00    -0.337 N 
ATOM     11  HN  UNL     1     -37.611 -51.738  12.975  1.00  0.00     0.168 HD
HETATM   12  C   UNL     1     -38.292 -50.149  11.832  1.00  0.00     0.183 A 
ENDROOT
BRANCH   1  13
HETATM   13  C   UNL     1     -42.104 -47.840  10.943  1.00  0.00     0.094 C 
HETATM   14  C   UNL     1     -43.637 -47.587  11.125  1.00  0.00     0.039 C 
HETATM   15  C   UNL     1     -43.588 -46.884   9.728  1.00  0.00     0.006 C 
HETATM   16  C   UNL     1     -42.409 -47.917   9.437  1.00  0.00     0.039 C 
BRANCH  15  17
HETATM   17  C   UNL     1     -44.852 -47.062   8.887  1.00  0.00     0.175 C 
BRANCH  17  18
HETATM   18  O   UNL     1     -45.989 -46.605   9.614  1.00  0.00    -0.400 OA
HETATM   19  H   UNL     1     -46.274 -45.763   9.200  1.00  0.00     0.209 HD
ENDBRANCH  17  18
ENDBRANCH  15  17
BRANCH  15  20
HETATM   20  C   UNL     1     -43.246 -45.385   9.866  1.00  0.00     0.175 C 
BRANCH  20  21
HETATM   21  O   UNL     1     -44.182 -44.607   9.128  1.00  0.00    -0.400 OA
HETATM   22  H   UNL     1     -44.432 -43.850   9.688  1.00  0.00     0.209 HD
ENDBRANCH  20  21
ENDBRANCH  15  20
ENDBRANCH   1  13
BRANCH   6  23
HETATM   23  N   UNL     1     -39.831 -52.411  14.235  1.00  0.00    -0.367 N 
HETATM   24  C   UNL     1     -38.865 -52.461  15.332  1.00  0.00     0.151 C 
BRANCH  23  25
HETATM   25  C   UNL     1     -40.505 -53.671  13.902  1.00  0.00     0.161 C 
BRANCH  25  26
HETATM   26  C   UNL     1     -41.889 -53.889  14.615  1.00  0.00     0.069 C 
HETATM   27  C   UNL     1     -42.929 -54.272  13.540  1.00  0.00     0.047 C 
HETATM   28  C   UNL     1     -41.876 -55.035  15.642  1.00  0.00     0.047 C 
BRANCH  26  29
HETATM   29  O   UNL     1     -42.366 -52.759  15.368  1.00  0.00    -0.384 OA
HETATM   30  C   UNL     1     -43.766 -52.635  15.529  1.00  0.00     0.202 C 
ENDBRANCH  26  29
ENDBRANCH  25  26
ENDBRANCH  23  25
ENDBRANCH   6  23
TORSDOF 9
ENDMDL
MODEL 5
REMARK VINA RESULT:      -5.5      2.359      3.239
REMARK  9 active torsions:
REMARK  status: ('A' for Active; 'I' for Inactive)
REMARK    1  A    between atoms: N_1  and  C_8 
REMARK    2  A    between atoms: C_6  and  N_9 
REMARK    3  A    between atoms: N_9  and  C_18 
REMARK    4  A    between atoms: C_14  and  C_20 
REMARK    5  A    between atoms: C_14  and  C_21 
REMARK    6  A    between atoms: C_18  and  C_19 
REMARK    7  A    between atoms: C_19  and  O_22 
REMARK    8  A    between atoms: C_20  and  O_24 
REMARK    9  A    between atoms: C_21  and  O_25 
ROOT
HETATM    1  N   UNL     1     -40.594 -47.889  11.722  1.00  0.00    -0.322 N 
HETATM    2  C   UNL     1     -40.245 -49.942  12.373  1.00  0.00     0.122 A 
HETATM    3  C   UNL     1     -39.626 -48.862  11.730  1.00  0.00     0.140 A 
HETATM    4  N   UNL     1     -41.538 -49.632  12.739  1.00  0.00    -0.346 N 
ATOM      5  HN  UNL     1     -42.213 -50.232  13.213  1.00  0.00     0.167 HD
HETATM    6  C   UNL     1     -39.515 -51.147  12.563  1.00  0.00     0.135 A 
HETATM    7  C   UNL     1     -41.706 -48.394  12.341  1.00  0.00     0.185 A 
HETATM    8  N   UNL     1     -38.368 -48.836  11.270  1.00  0.00    -0.336 N 
ATOM      9  HN  UNL     1     -37.935 -48.034  10.811  1.00  0.00     0.168 HD
HETATM   10  N   UNL     1     -38.235 -51.149  12.090  1.00  0.00    -0.337 N 
ATOM     11  HN  UNL     1     -37.652 -51.981  12.179  1.00  0.00     0.168 HD
HETATM   12  C   UNL     1     -37.749 -50.026  11.498  1.00  0.00     0.183 A 
ENDROOT
BRANCH   1  13
HETATM   13  C   UNL     1     -40.650 -46.537  11.238  1.00  0.00     0.094 C 
HETATM   14  C   UNL     1     -41.115 -45.539  12.350  1.00  0.00     0.039 C 
HETATM   15  C   UNL     1     -41.543 -44.589  11.182  1.00  0.00     0.006 C 
HETATM   16  C   UNL     1     -41.792 -45.950  10.390  1.00  0.00     0.039 C 
BRANCH  15  17
HETATM   17  C   UNL     1     -42.787 -43.751  11.473  1.00  0.00     0.175 C 
BRANCH  17  18
HETATM   18  O   UNL     1     -43.384 -43.324  10.252  1.00  0.00    -0.400 OA
HETATM   19  H   UNL     1     -44.235 -42.897  10.483  1.00  0.00     0.209 HD
ENDBRANCH  17  18
ENDBRANCH  15  17
BRANCH  15  20
HETATM   20  C   UNL     1     -40.376 -43.677  10.746  1.00  0.00     0.175 C 
BRANCH  20  21
HETATM   21  O   UNL     1     -40.722 -42.314  10.964  1.00  0.00    -0.400 OA
HETATM   22  H   UNL     1     -40.867 -41.910  10.089  1.00  0.00     0.209 HD
ENDBRANCH  20  21
ENDBRANCH  15  20
ENDBRANCH   1  13
BRANCH   6  23
HETATM   23  N   UNL     1     -40.070 -52.255  13.203  1.00  0.00    -0.367 N 
HETATM   24  C   UNL     1     -39.214 -52.933  14.175  1.00  0.00     0.151 C 
BRANCH  23  25
HETATM   25  C   UNL     1     -41.120 -53.069  12.580  1.00  0.00     0.161 C 
BRANCH  25  26
HETATM   26  C   UNL     1     -42.468 -53.136  13.384  1.00  0.00     0.069 C 
HETATM   27  C   UNL     1     -43.634 -53.129  12.371  1.00  0.00     0.047 C 
HETATM   28  C   UNL     1     -42.622 -54.419  14.220  1.00  0.00     0.047 C 
BRANCH  26  29
HETATM   29  O   UNL     1     -42.655 -52.078  14.342  1.00  0.00    -0.384 OA
HETATM   30  C   UNL     1     -43.980 -51.644  14.576  1.00  0.00     0.202 C 
ENDBRANCH  26  29
ENDBRANCH  25  26
ENDBRANCH  23  25
ENDBRANCH   6  23
TORSDOF 9
ENDMDL
MODEL 6
REMARK VINA RESULT:      -5.5      3.103      4.607
REMARK  9 active torsions:
REMARK  status: ('A' for Active; 'I' for Inactive)
REMARK    1  A    between atoms: N_1  and  C_8 
REMARK    2  A    between atoms: C_6  and  N_9 
REMARK    3  A    between atoms: N_9  and  C_18 
REMARK    4  A    between atoms: C_14  and  C_20 
REMARK    5  A    between atoms: C_14  and  C_21 
REMARK    6  A    between atoms: C_18  and  C_19 
REMARK    7  A    between atoms: C_19  and  O_22 
REMARK    8  A    between atoms: C_20  and  O_24 
REMARK    9  A    between atoms: C_21  and  O_25 
ROOT
HETATM    1  N   UNL     1     -41.661 -49.506  12.012  1.00  0.00    -0.322 N 
HETATM    2  C   UNL     1     -40.845 -51.108  13.249  1.00  0.00     0.122 A 
HETATM    3  C   UNL     1     -41.986 -50.738  12.524  1.00  0.00     0.140 A 
HETATM    4  N   UNL     1     -39.869 -50.137  13.177  1.00  0.00    -0.346 N 
ATOM      5  HN  UNL     1     -38.948 -50.145  13.613  1.00  0.00     0.167 HD
HETATM    6  C   UNL     1     -40.829 -52.359  13.923  1.00  0.00     0.135 A 
HETATM    7  C   UNL     1     -40.392 -49.200  12.422  1.00  0.00     0.185 A 
HETATM    8  N   UNL     1     -43.100 -51.468  12.381  1.00  0.00    -0.336 N 
ATOM      9  HN  UNL     1     -43.916 -51.182  11.841  1.00  0.00     0.168 HD
HETATM   10  N   UNL     1     -41.958 -53.116  13.803  1.00  0.00    -0.337 N 
ATOM     11  HN  UNL     1     -42.025 -54.021  14.268  1.00  0.00     0.168 HD
HETATM   12  C   UNL     1     -42.990 -52.645  13.055  1.00  0.00     0.183 A 
ENDROOT
BRANCH   1  13
HETATM   13  C   UNL     1     -42.345 -48.558  11.176  1.00  0.00     0.094 C 
HETATM   14  C   UNL     1     -41.373 -47.470  10.613  1.00  0.00     0.039 C 
HETATM   15  C   UNL     1     -42.641 -46.571  10.430  1.00  0.00     0.006 C 
HETATM   16  C   UNL     1     -43.189 -47.378  11.690  1.00  0.00     0.039 C 
BRANCH  15  17
HETATM   17  C   UNL     1     -42.394 -45.079  10.650  1.00  0.00     0.175 C 
BRANCH  17  18
HETATM   18  O   UNL     1     -43.469 -44.321  10.102  1.00  0.00    -0.400 OA
HETATM   19  H   UNL     1     -43.108 -43.820   9.342  1.00  0.00     0.209 HD
ENDBRANCH  17  18
ENDBRANCH  15  17
BRANCH  15  20
HETATM   20  C   UNL     1     -43.299 -46.804   9.053  1.00  0.00     0.175 C 
BRANCH  20  21
HETATM   21  O   UNL     1     -42.703 -45.951   8.083  1.00  0.00    -0.400 OA
HETATM   22  H   UNL     1     -43.151 -46.122   7.234  1.00  0.00     0.209 HD
ENDBRANCH  20  21
ENDBRANCH  15  20
ENDBRANCH   1  13
BRANCH   6  23
HETATM   23  N   UNL     1     -39.722 -52.791  14.654  1.00  0.00    -0.367 N 
HETATM   24  C   UNL     1     -39.089 -54.026  14.195  1.00  0.00     0.151 C 
BRANCH  23  25
HETATM   25  C   UNL     1     -39.547 -52.457  16.072  1.00  0.00     0.161 C 
BRANCH  25  26
HETATM   26  C   UNL     1     -38.566 -51.262  16.353  1.00  0.00     0.069 C 
HETATM   27  C   UNL     1     -39.401 -50.062  16.852  1.00  0.00     0.047 C 
HETATM   28  C   UNL     1     -37.531 -51.563  17.452  1.00  0.00     0.047 C 
BRANCH  26  29
HETATM   29  O   UNL     1     -37.765 -50.859  15.228  1.00  0.00    -0.384 OA
HETATM   30  C   UNL     1     -36.954 -49.711  15.391  1.00  0.00     0.202 C 
ENDBRANCH  26  29
ENDBRANCH  25  26
ENDBRANCH  23  25
ENDBRANCH   6  23
TORSDOF 9
ENDMDL
MODEL 7
REMARK VINA RESULT:      -5.4      1.873      7.710
REMARK  9 active torsions:
REMARK  status: ('A' for Active; 'I' for Inactive)
REMARK    1  A    between atoms: N_1  and  C_8 
REMARK    2  A    between atoms: C_6  and  N_9 
REMARK    3  A    between atoms: N_9  and  C_18 
REMARK    4  A    between atoms: C_14  and  C_20 
REMARK    5  A    between atoms: C_14  and  C_21 
REMARK    6  A    between atoms: C_18  and  C_19 
REMARK    7  A    between atoms: C_19  and  O_22 
REMARK    8  A    between atoms: C_20  and  O_24 
REMARK    9  A    between atoms: C_21  and  O_25 
ROOT
HETATM    1  N   UNL     1     -42.848 -50.519  13.029  1.00  0.00    -0.322 N 
HETATM    2  C   UNL     1     -41.593 -48.756  12.747  1.00  0.00     0.122 A 
HETATM    3  C   UNL     1     -41.753 -50.083  12.324  1.00  0.00     0.140 A 
HETATM    4  N   UNL     1     -42.555 -48.405  13.670  1.00  0.00    -0.346 N 
ATOM      5  HN  UNL     1     -42.668 -47.509  14.142  1.00  0.00     0.167 HD
HETATM    6  C   UNL     1     -40.532 -47.981  12.207  1.00  0.00     0.135 A 
HETATM    7  C   UNL     1     -43.292 -49.482  13.805  1.00  0.00     0.185 A 
HETATM    8  N   UNL     1     -40.994 -50.720  11.423  1.00  0.00    -0.336 N 
ATOM      9  HN  UNL     1     -41.134 -51.684  11.124  1.00  0.00     0.168 HD
HETATM   10  N   UNL     1     -39.736 -48.612  11.295  1.00  0.00    -0.337 N 
ATOM     11  HN  UNL     1     -38.947 -48.124  10.871  1.00  0.00     0.168 HD
HETATM   12  C   UNL     1     -40.011 -49.900  10.960  1.00  0.00     0.183 A 
ENDROOT
BRANCH   1  13
HETATM   13  C   UNL     1     -43.572 -51.759  13.085  1.00  0.00     0.094 C 
HETATM   14  C   UNL     1     -44.315 -51.938  14.450  1.00  0.00     0.039 C 
HETATM   15  C   UNL     1     -44.295 -53.473  14.149  1.00  0.00     0.006 C 
HETATM   16  C   UNL     1     -42.944 -53.133  13.375  1.00  0.00     0.039 C 
BRANCH  15  17
HETATM   17  C   UNL     1     -44.149 -54.358  15.387  1.00  0.00     0.175 C 
BRANCH  17  18
HETATM   18  O   UNL     1     -45.408 -54.493  16.041  1.00  0.00    -0.400 OA
HETATM   19  H   UNL     1     -45.909 -53.668  15.871  1.00  0.00     0.209 HD
ENDBRANCH  17  18
ENDBRANCH  15  17
BRANCH  15  20
HETATM   20  C   UNL     1     -45.534 -53.900  13.333  1.00  0.00     0.175 C 
BRANCH  20  21
HETATM   21  O   UNL     1     -45.747 -55.300  13.475  1.00  0.00    -0.400 OA
HETATM   22  H   UNL     1     -46.278 -55.430  14.282  1.00  0.00     0.209 HD
ENDBRANCH  20  21
ENDBRANCH  15  20
ENDBRANCH   1  13
BRANCH   6  23
HETATM   23  N   UNL     1     -40.323 -46.653  12.578  1.00  0.00    -0.367 N 
HETATM   24  C   UNL     1     -39.492 -46.438  13.762  1.00  0.00     0.151 C 
BRANCH  23  25
HETATM   25  C   UNL     1     -41.286 -45.594  12.257  1.00  0.00     0.161 C 
BRANCH  25  26
HETATM   26  C   UNL     1     -40.985 -44.806  10.931  1.00  0.00     0.069 C 
HETATM   27  C   UNL     1     -40.899 -43.302  11.272  1.00  0.00     0.047 C 
HETATM   28  C   UNL     1     -39.642 -45.186  10.283  1.00  0.00     0.047 C 
BRANCH  26  29
HETATM   29  O   UNL     1     -41.943 -45.009   9.876  1.00  0.00    -0.384 OA
HETATM   30  C   UNL     1     -42.841 -46.093  10.018  1.00  0.00     0.202 C 
ENDBRANCH  26  29
ENDBRANCH  25  26
ENDBRANCH  23  25
ENDBRANCH   6  23
TORSDOF 9
ENDMDL
MODEL 8
REMARK VINA RESULT:      -5.4      1.553      2.066
REMARK  9 active torsions:
REMARK  status: ('A' for Active; 'I' for Inactive)
REMARK    1  A    between atoms: N_1  and  C_8 
REMARK    2  A    between atoms: C_6  and  N_9 
REMARK    3  A    between atoms: N_9  and  C_18 
REMARK    4  A    between atoms: C_14  and  C_20 
REMARK    5  A    between atoms: C_14  and  C_21 
REMARK    6  A    between atoms: C_18  and  C_19 
REMARK    7  A    between atoms: C_19  and  O_22 
REMARK    8  A    between atoms: C_20  and  O_24 
REMARK    9  A    between atoms: C_21  and  O_25 
ROOT
HETATM    1  N   UNL     1     -41.965 -48.614  12.195  1.00  0.00    -0.322 N 
HETATM    2  C   UNL     1     -42.489 -50.492  13.174  1.00  0.00     0.122 A 
HETATM    3  C   UNL     1     -41.700 -49.961  12.145  1.00  0.00     0.140 A 
HETATM    4  N   UNL     1     -43.202 -49.504  13.820  1.00  0.00    -0.346 N 
ATOM      5  HN  UNL     1     -43.854 -49.612  14.597  1.00  0.00     0.167 HD
HETATM    6  C   UNL     1     -42.459 -51.892  13.417  1.00  0.00     0.135 A 
HETATM    7  C   UNL     1     -42.854 -48.395  13.212  1.00  0.00     0.185 A 
HETATM    8  N   UNL     1     -40.879 -50.652  11.344  1.00  0.00    -0.336 N 
ATOM      9  HN  UNL     1     -40.308 -50.243  10.606  1.00  0.00     0.168 HD
HETATM   10  N   UNL     1     -41.640 -52.620  12.604  1.00  0.00    -0.337 N 
ATOM     11  HN  UNL     1     -41.573 -53.633  12.710  1.00  0.00     0.168 HD
HETATM   12  C   UNL     1     -40.914 -51.977  11.652  1.00  0.00     0.183 A 
ENDROOT
BRANCH   1  13
HETATM   13  C   UNL     1     -41.504 -47.476  11.448  1.00  0.00     0.094 C 
HETATM   14  C   UNL     1     -41.183 -46.260  12.378  1.00  0.00     0.039 C 
HETATM   15  C   UNL     1     -41.387 -45.362  11.112  1.00  0.00     0.006 C 
HETATM   16  C   UNL     1     -42.412 -46.503  10.676  1.00  0.00     0.039 C 
BRANCH  15  17
HETATM   17  C   UNL     1     -41.999 -43.992  11.402  1.00  0.00     0.175 C 
BRANCH  17  18
HETATM   18  O   UNL     1     -42.722 -43.531  10.264  1.00  0.00    -0.400 OA
HETATM   19  H   UNL     1     -42.971 -42.600  10.440  1.00  0.00     0.209 HD
ENDBRANCH  17  18
ENDBRANCH  15  17
BRANCH  15  20
HETATM   20  C   UNL     1     -40.071 -45.202  10.321  1.00  0.00     0.175 C 
BRANCH  20  21
HETATM   21  O   UNL     1     -39.946 -43.861   9.861  1.00  0.00    -0.400 OA
HETATM   22  H   UNL     1     -39.716 -43.312  10.633  1.00  0.00     0.209 HD
ENDBRANCH  20  21
ENDBRANCH  15  20
ENDBRANCH   1  13
BRANCH   6  23
HETATM   23  N   UNL     1     -43.213 -52.483  14.431  1.00  0.00    -0.367 N 
HETATM   24  C   UNL     1     -42.463 -53.235  15.436  1.00  0.00     0.151 C 
BRANCH  23  25
HETATM   25  C   UNL     1     -44.612 -52.878  14.232  1.00  0.00     0.161 C 
BRANCH  25  26
HETATM   26  C   UNL     1     -45.667 -51.950  14.936  1.00  0.00     0.069 C 
HETATM   27  C   UNL     1     -46.647 -51.433  13.860  1.00  0.00     0.047 C 
HETATM   28  C   UNL     1     -46.518 -52.679  15.990  1.00  0.00     0.047 C 
BRANCH  26  29
HETATM   29  O   UNL     1     -45.108 -50.837  15.656  1.00  0.00    -0.384 OA
HETATM   30  C   UNL     1     -45.706 -50.502  16.893  1.00  0.00     0.202 C 
ENDBRANCH  26  29
ENDBRANCH  25  26
ENDBRANCH  23  25
ENDBRANCH   6  23
TORSDOF 9
ENDMDL
MODEL 9
REMARK VINA RESULT:      -5.2      2.100      7.885
REMARK  9 active torsions:
REMARK  status: ('A' for Active; 'I' for Inactive)
REMARK    1  A    between atoms: N_1  and  C_8 
REMARK    2  A    between atoms: C_6  and  N_9 
REMARK    3  A    between atoms: N_9  and  C_18 
REMARK    4  A    between atoms: C_14  and  C_20 
REMARK    5  A    between atoms: C_14  and  C_21 
REMARK    6  A    between atoms: C_18  and  C_19 
REMARK    7  A    between atoms: C_19  and  O_22 
REMARK    8  A    between atoms: C_20  and  O_24 
REMARK    9  A    between atoms: C_21  and  O_25 
ROOT
HETATM    1  N   UNL     1     -42.553 -50.871  13.067  1.00  0.00    -0.322 N 
HETATM    2  C   UNL     1     -41.810 -49.103  12.027  1.00  0.00     0.122 A 
HETATM    3  C   UNL     1     -41.454 -50.410  12.384  1.00  0.00     0.140 A 
HETATM    4  N   UNL     1     -43.074 -48.787  12.476  1.00  0.00    -0.346 N 
ATOM      5  HN  UNL     1     -43.575 -47.906  12.361  1.00  0.00     0.167 HD
HETATM    6  C   UNL     1     -40.888 -48.311  11.290  1.00  0.00     0.135 A 
HETATM    7  C   UNL     1     -43.489 -49.873  13.085  1.00  0.00     0.185 A 
HETATM    8  N   UNL     1     -40.302 -51.023  12.084  1.00  0.00    -0.336 N 
ATOM      9  HN  UNL     1     -40.068 -51.980  12.348  1.00  0.00     0.168 HD
HETATM   10  N   UNL     1     -39.701 -48.910  10.982  1.00  0.00    -0.337 N 
ATOM     11  HN  UNL     1     -38.984 -48.402  10.464  1.00  0.00     0.168 HD
HETATM   12  C   UNL     1     -39.488 -50.193  11.377  1.00  0.00     0.183 A 
ENDROOT
BRANCH   1  13
HETATM   13  C   UNL     1     -42.886 -52.117  13.702  1.00  0.00     0.094 C 
HETATM   14  C   UNL     1     -43.627 -53.088  12.725  1.00  0.00     0.039 C 
HETATM   15  C   UNL     1     -44.193 -53.788  14.006  1.00  0.00     0.006 C 
HETATM   16  C   UNL     1     -44.082 -52.332  14.645  1.00  0.00     0.039 C 
BRANCH  15  17
HETATM   17  C   UNL     1     -45.609 -54.341  13.849  1.00  0.00     0.175 C 
BRANCH  17  18
HETATM   18  O   UNL     1     -45.582 -55.766  13.882  1.00  0.00    -0.400 OA
HETATM   19  H   UNL     1     -46.434 -56.060  14.266  1.00  0.00     0.209 HD
ENDBRANCH  17  18
ENDBRANCH  15  17
BRANCH  15  20
HETATM   20  C   UNL     1     -43.240 -54.896  14.506  1.00  0.00     0.175 C 
BRANCH  20  21
HETATM   21  O   UNL     1     -43.628 -55.311  15.811  1.00  0.00    -0.400 OA
HETATM   22  H   UNL     1     -42.824 -55.318  16.362  1.00  0.00     0.209 HD
ENDBRANCH  20  21
ENDBRANCH  15  20
ENDBRANCH   1  13
BRANCH   6  23
HETATM   23  N   UNL     1     -41.183 -47.007  10.895  1.00  0.00    -0.367 N 
HETATM   24  C   UNL     1     -42.290 -46.854   9.952  1.00  0.00     0.151 C 
BRANCH  23  25
HETATM   25  C   UNL     1     -40.168 -45.947  10.885  1.00  0.00     0.161 C 
BRANCH  25  26
HETATM   26  C   UNL     1     -40.426 -44.776  11.901  1.00  0.00     0.069 C 
HETATM   27  C   UNL     1     -39.154 -44.594  12.759  1.00  0.00     0.047 C 
HETATM   28  C   UNL     1     -40.692 -43.422  11.221  1.00  0.00     0.047 C 
BRANCH  26  29
HETATM   29  O   UNL     1     -41.566 -44.959  12.759  1.00  0.00    -0.384 OA
HETATM   30  C   UNL     1     -41.619 -44.179  13.938  1.00  0.00     0.202 C 
ENDBRANCH  26  29
ENDBRANCH  25  26
ENDBRANCH  23  25
ENDBRANCH   6  23
TORSDOF 9
ENDMDL
