MODEL 1
REMARK VINA RESULT:      -6.1      0.000      0.000
REMARK  4 active torsions:
REMARK  status: ('A' for Active; 'I' for Inactive)
REMARK    1  A    between atoms: C_2  and  C_3 
REMARK       I    between atoms: C_2  and  N_16 
REMARK    2  A    between atoms: C_3  and  N_4 
REMARK    3  A    between atoms: C_8  and  C_12 
REMARK    4  A    between atoms: N_16  and  C_17 
ROOT
HETATM    1  N   UNL     1     -41.372 -50.527  11.917  1.00  0.00    -0.302 N 
HETATM    2  C   UNL     1     -42.436 -49.710  12.217  1.00  0.00     0.186 A 
HETATM    3  N   UNL     1     -43.540 -50.102  12.760  1.00  0.00    -0.355 N 
ATOM      4  HN  UNL     1     -44.301 -49.450  12.951  1.00  0.00     0.166 HD
HETATM    5  C   UNL     1     -43.645 -51.433  13.069  1.00  0.00     0.019 A 
HETATM    6  C   UNL     1     -42.676 -52.328  12.838  1.00  0.00     0.100 A 
HETATM    7  C   UNL     1     -41.415 -51.862  12.239  1.00  0.00     0.250 A 
HETATM    8  O   UNL     1     -40.492 -52.654  12.081  1.00  0.00    -0.268 OA
ENDROOT
BRANCH   1   9
HETATM    9  C   UNL     1     -40.124 -49.942  11.439  1.00  0.00     0.235 C 
BRANCH   9  10
HETATM   10  C   UNL     1     -39.824 -48.528  11.945  1.00  0.00     0.236 C 
HETATM   11  O   UNL     1     -39.186 -48.357  12.982  1.00  0.00    -0.272 OA
HETATM   12  N   UNL     1     -40.180 -47.486  11.118  1.00  0.00    -0.355 N 
HETATM   13  H   UNL     1     -40.797 -47.676  10.338  1.00  0.00     0.162 HD
BRANCH  12  14
HETATM   14  C   UNL     1     -39.907 -46.104  11.468  1.00  0.00     0.084 C 
HETATM   15  C   UNL     1     -40.978 -45.500  12.380  1.00  0.00     0.025 C 
HETATM   16  C   UNL     1     -41.120 -44.035  11.962  1.00  0.00     0.002 C 
HETATM   17  C   UNL     1     -40.100 -43.807  10.855  1.00  0.00     0.002 C 
HETATM   18  C   UNL     1     -39.886 -45.185  10.252  1.00  0.00     0.025 C 
ENDBRANCH  12  14
ENDBRANCH   9  10
ENDBRANCH   1   9
BRANCH   5  19
HETATM   19  C   UNL     1     -44.872 -51.919  13.768  1.00  0.00     0.036 C 
HETATM   20  C   UNL     1     -46.225 -51.526  13.111  1.00  0.00     0.011 C 
HETATM   21  C   UNL     1     -46.808 -51.456  14.537  1.00  0.00     0.001 C 
HETATM   22  C   UNL     1     -45.374 -51.152  15.021  1.00  0.00     0.011 C 
ENDBRANCH   5  19
TORSDOF 4
ENDMDL
MODEL 2
REMARK VINA RESULT:      -6.0      3.003      6.688
REMARK  4 active torsions:
REMARK  status: ('A' for Active; 'I' for Inactive)
REMARK    1  A    between atoms: C_2  and  C_3 
REMARK       I    between atoms: C_2  and  N_16 
REMARK    2  A    between atoms: C_3  and  N_4 
REMARK    3  A    between atoms: C_8  and  C_12 
REMARK    4  A    between atoms: N_16  and  C_17 
ROOT
HETATM    1  N   UNL     1     -40.662 -49.959  12.402  1.00  0.00    -0.302 N 
HETATM    2  C   UNL     1     -40.451 -49.772  11.057  1.00  0.00     0.186 A 
HETATM    3  N   UNL     1     -41.162 -49.009  10.295  1.00  0.00    -0.355 N 
ATOM      4  HN  UNL     1     -40.964 -48.916   9.299  1.00  0.00     0.166 HD
HETATM    5  C   UNL     1     -42.196 -48.328  10.885  1.00  0.00     0.019 A 
HETATM    6  C   UNL     1     -42.496 -48.416  12.187  1.00  0.00     0.100 A 
HETATM    7  C   UNL     1     -41.663 -49.272  13.046  1.00  0.00     0.250 A 
HETATM    8  O   UNL     1     -41.882 -49.315  14.252  1.00  0.00    -0.268 OA
ENDROOT
BRANCH   1   9
HETATM    9  C   UNL     1     -39.703 -50.733  13.183  1.00  0.00     0.235 C 
BRANCH   9  10
HETATM   10  C   UNL     1     -40.056 -52.209  13.382  1.00  0.00     0.236 C 
HETATM   11  O   UNL     1     -39.176 -53.068  13.383  1.00  0.00    -0.272 OA
HETATM   12  N   UNL     1     -41.367 -52.495  13.694  1.00  0.00    -0.355 N 
HETATM   13  H   UNL     1     -42.062 -51.771  13.570  1.00  0.00     0.162 HD
BRANCH  12  14
HETATM   14  C   UNL     1     -41.812 -53.854  13.950  1.00  0.00     0.084 C 
HETATM   15  C   UNL     1     -43.268 -54.087  13.535  1.00  0.00     0.025 C 
HETATM   16  C   UNL     1     -43.855 -55.056  14.565  1.00  0.00     0.002 C 
HETATM   17  C   UNL     1     -42.722 -55.399  15.523  1.00  0.00     0.002 C 
HETATM   18  C   UNL     1     -41.780 -54.209  15.432  1.00  0.00     0.025 C 
ENDBRANCH  12  14
ENDBRANCH   9  10
ENDBRANCH   1   9
BRANCH   5  19
HETATM   19  C   UNL     1     -42.997 -47.375  10.061  1.00  0.00     0.036 C 
HETATM   20  C   UNL     1     -44.541 -47.508  10.182  1.00  0.00     0.011 C 
HETATM   21  C   UNL     1     -44.615 -47.092   8.699  1.00  0.00     0.001 C 
HETATM   22  C   UNL     1     -43.191 -47.670   8.550  1.00  0.00     0.011 C 
ENDBRANCH   5  19
TORSDOF 4
ENDMDL
MODEL 3
REMARK VINA RESULT:      -5.9      3.581      6.504
REMARK  4 active torsions:
REMARK  status: ('A' for Active; 'I' for Inactive)
REMARK    1  A    between atoms: C_2  and  C_3 
REMARK       I    between atoms: C_2  and  N_16 
REMARK    2  A    between atoms: C_3  and  N_4 
REMARK    3  A    between atoms: C_8  and  C_12 
REMARK    4  A    between atoms: N_16  and  C_17 
ROOT
HETATM    1  N   UNL     1     -39.288 -49.002  11.947  1.00  0.00    -0.302 N 
HETATM    2  C   UNL     1     -40.027 -49.665  10.996  1.00  0.00     0.186 A 
HETATM    3  N   UNL     1     -41.148 -49.249  10.508  1.00  0.00    -0.355 N 
ATOM      4  HN  UNL     1     -41.658 -49.789   9.810  1.00  0.00     0.166 HD
HETATM    5  C   UNL     1     -41.623 -48.050  10.972  1.00  0.00     0.019 A 
HETATM    6  C   UNL     1     -40.992 -47.305  11.888  1.00  0.00     0.100 A 
HETATM    7  C   UNL     1     -39.704 -47.780  12.417  1.00  0.00     0.250 A 
HETATM    8  O   UNL     1     -39.079 -47.081  13.208  1.00  0.00    -0.268 OA
ENDROOT
BRANCH   1   9
HETATM    9  C   UNL     1     -37.966 -49.502  12.312  1.00  0.00     0.235 C 
BRANCH   9  10
HETATM   10  C   UNL     1     -37.915 -50.969  12.748  1.00  0.00     0.236 C 
HETATM   11  O   UNL     1     -37.014 -51.708  12.354  1.00  0.00    -0.272 OA
HETATM   12  N   UNL     1     -38.832 -51.365  13.696  1.00  0.00    -0.355 N 
HETATM   13  H   UNL     1     -39.612 -50.753  13.899  1.00  0.00     0.162 HD
BRANCH  12  14
HETATM   14  C   UNL     1     -38.853 -52.718  14.221  1.00  0.00     0.084 C 
HETATM   15  C   UNL     1     -40.041 -53.536  13.706  1.00  0.00     0.025 C 
HETATM   16  C   UNL     1     -40.472 -54.439  14.864  1.00  0.00     0.002 C 
HETATM   17  C   UNL     1     -39.502 -54.163  16.005  1.00  0.00     0.002 C 
HETATM   18  C   UNL     1     -39.000 -52.754  15.738  1.00  0.00     0.025 C 
ENDBRANCH  12  14
ENDBRANCH   9  10
ENDBRANCH   1   9
BRANCH   5  19
HETATM   19  C   UNL     1     -42.876 -47.492  10.382  1.00  0.00     0.036 C 
HETATM   20  C   UNL     1     -43.052 -47.697   8.851  1.00  0.00     0.011 C 
HETATM   21  C   UNL     1     -43.775 -46.336   8.830  1.00  0.00     0.001 C 
HETATM   22  C   UNL     1     -42.952 -45.970  10.084  1.00  0.00     0.011 C 
ENDBRANCH   5  19
TORSDOF 4
ENDMDL
MODEL 4
REMARK VINA RESULT:      -5.8      2.871      3.396
REMARK  4 active torsions:
REMARK  status: ('A' for Active; 'I' for Inactive)
REMARK    1  A    between atoms: C_2  and  C_3 
REMARK       I    between atoms: C_2  and  N_16 
REMARK    2  A    between atoms: C_3  and  N_4 
REMARK    3  A    between atoms: C_8  and  C_12 
REMARK    4  A    between atoms: N_16  and  C_17 
ROOT
HETATM    1  N   UNL     1     -41.311 -50.794  11.923  1.00  0.00    -0.302 N 
HETATM    2  C   UNL     1     -42.268 -49.900  12.341  1.00  0.00     0.186 A 
HETATM    3  N   UNL     1     -43.391 -50.221  12.892  1.00  0.00    -0.355 N 
ATOM      4  HN  UNL     1     -44.069 -49.513  13.173  1.00  0.00     0.166 HD
HETATM    5  C   UNL     1     -43.632 -51.558  13.081  1.00  0.00     0.019 A 
HETATM    6  C   UNL     1     -42.776 -52.524  12.729  1.00  0.00     0.100 A 
HETATM    7  C   UNL     1     -41.491 -52.141  12.123  1.00  0.00     0.250 A 
HETATM    8  O   UNL     1     -40.666 -53.008  11.854  1.00  0.00    -0.268 OA
ENDROOT
BRANCH   1   9
HETATM    9  C   UNL     1     -40.022 -50.302  11.447  1.00  0.00     0.235 C 
BRANCH   9  10
HETATM   10  C   UNL     1     -38.880 -50.362  12.466  1.00  0.00     0.236 C 
HETATM   11  O   UNL     1     -38.007 -51.224  12.377  1.00  0.00    -0.272 OA
HETATM   12  N   UNL     1     -38.811 -49.334  13.380  1.00  0.00    -0.355 N 
HETATM   13  H   UNL     1     -39.609 -48.720  13.478  1.00  0.00     0.162 HD
BRANCH  12  14
HETATM   14  C   UNL     1     -37.747 -49.257  14.365  1.00  0.00     0.084 C 
HETATM   15  C   UNL     1     -38.213 -49.644  15.771  1.00  0.00     0.025 C 
HETATM   16  C   UNL     1     -37.445 -48.740  16.739  1.00  0.00     0.002 C 
HETATM   17  C   UNL     1     -36.520 -47.886  15.883  1.00  0.00     0.002 C 
HETATM   18  C   UNL     1     -37.199 -47.843  14.524  1.00  0.00     0.025 C 
ENDBRANCH  12  14
ENDBRANCH   9  10
ENDBRANCH   1   9
BRANCH   5  19
HETATM   19  C   UNL     1     -44.882 -51.974  13.784  1.00  0.00     0.036 C 
HETATM   20  C   UNL     1     -46.214 -51.553  13.102  1.00  0.00     0.011 C 
HETATM   21  C   UNL     1     -46.805 -51.414  14.519  1.00  0.00     0.001 C 
HETATM   22  C   UNL     1     -45.365 -51.149  15.007  1.00  0.00     0.011 C 
ENDBRANCH   5  19
TORSDOF 4
ENDMDL
MODEL 5
REMARK VINA RESULT:      -5.8      1.071      6.761
REMARK  4 active torsions:
REMARK  status: ('A' for Active; 'I' for Inactive)
REMARK    1  A    between atoms: C_2  and  C_3 
REMARK       I    between atoms: C_2  and  N_16 
REMARK    2  A    between atoms: C_3  and  N_4 
REMARK    3  A    between atoms: C_8  and  C_12 
REMARK    4  A    between atoms: N_16  and  C_17 
ROOT
HETATM    1  N   UNL     1     -40.721 -49.725  11.861  1.00  0.00    -0.302 N 
HETATM    2  C   UNL     1     -41.226 -48.898  10.887  1.00  0.00     0.186 A 
HETATM    3  N   UNL     1     -40.994 -47.630  10.799  1.00  0.00    -0.355 N 
ATOM      4  HN  UNL     1     -41.405 -47.064  10.057  1.00  0.00     0.166 HD
HETATM    5  C   UNL     1     -40.171 -47.080  11.747  1.00  0.00     0.019 A 
HETATM    6  C   UNL     1     -39.608 -47.781  12.739  1.00  0.00     0.100 A 
HETATM    7  C   UNL     1     -39.863 -49.228  12.813  1.00  0.00     0.250 A 
HETATM    8  O   UNL     1     -39.305 -49.898  13.675  1.00  0.00    -0.268 OA
ENDROOT
BRANCH   1   9
HETATM    9  C   UNL     1     -40.938 -51.166  11.770  1.00  0.00     0.235 C 
BRANCH   9  10
HETATM   10  C   UNL     1     -41.940 -51.744  12.772  1.00  0.00     0.236 C 
HETATM   11  O   UNL     1     -41.558 -52.456  13.699  1.00  0.00    -0.272 OA
HETATM   12  N   UNL     1     -43.245 -51.316  12.660  1.00  0.00    -0.355 N 
HETATM   13  H   UNL     1     -43.522 -50.825  11.820  1.00  0.00     0.162 HD
BRANCH  12  14
HETATM   14  C   UNL     1     -44.276 -51.759  13.581  1.00  0.00     0.084 C 
HETATM   15  C   UNL     1     -45.658 -51.841  12.927  1.00  0.00     0.025 C 
HETATM   16  C   UNL     1     -46.665 -51.420  14.000  1.00  0.00     0.002 C 
HETATM   17  C   UNL     1     -45.855 -51.149  15.261  1.00  0.00     0.002 C 
HETATM   18  C   UNL     1     -44.468 -50.799  14.749  1.00  0.00     0.025 C 
ENDBRANCH  12  14
ENDBRANCH   9  10
ENDBRANCH   1   9
BRANCH   5  19
HETATM   19  C   UNL     1     -39.812 -45.634  11.641  1.00  0.00     0.036 C 
HETATM   20  C   UNL     1     -40.966 -44.629  11.913  1.00  0.00     0.011 C 
HETATM   21  C   UNL     1     -40.307 -43.709  10.866  1.00  0.00     0.001 C 
HETATM   22  C   UNL     1     -39.716 -44.987  10.234  1.00  0.00     0.011 C 
ENDBRANCH   5  19
TORSDOF 4
ENDMDL
MODEL 6
REMARK VINA RESULT:      -5.8      1.494      1.794
REMARK  4 active torsions:
REMARK  status: ('A' for Active; 'I' for Inactive)
REMARK    1  A    between atoms: C_2  and  C_3 
REMARK       I    between atoms: C_2  and  N_16 
REMARK    2  A    between atoms: C_3  and  N_4 
REMARK    3  A    between atoms: C_8  and  C_12 
REMARK    4  A    between atoms: N_16  and  C_17 
ROOT
HETATM    1  N   UNL     1     -40.299 -50.600  11.997  1.00  0.00    -0.302 N 
HETATM    2  C   UNL     1     -41.608 -50.221  11.817  1.00  0.00     0.186 A 
HETATM    3  N   UNL     1     -42.634 -50.881  12.240  1.00  0.00    -0.355 N 
ATOM      4  HN  UNL     1     -43.585 -50.556  12.068  1.00  0.00     0.166 HD
HETATM    5  C   UNL     1     -42.388 -52.040  12.930  1.00  0.00     0.019 A 
HETATM    6  C   UNL     1     -41.160 -52.509  13.181  1.00  0.00     0.100 A 
HETATM    7  C   UNL     1     -40.000 -51.734  12.712  1.00  0.00     0.250 A 
HETATM    8  O   UNL     1     -38.867 -52.114  12.988  1.00  0.00    -0.268 OA
ENDROOT
BRANCH   1   9
HETATM    9  C   UNL     1     -39.224 -49.696  11.599  1.00  0.00     0.235 C 
BRANCH   9  10
HETATM   10  C   UNL     1     -39.351 -48.258  12.111  1.00  0.00     0.236 C 
HETATM   11  O   UNL     1     -38.961 -47.959  13.238  1.00  0.00    -0.272 OA
HETATM   12  N   UNL     1     -39.787 -47.316  11.206  1.00  0.00    -0.355 N 
HETATM   13  H   UNL     1     -40.196 -47.632  10.337  1.00  0.00     0.162 HD
BRANCH  12  14
HETATM   14  C   UNL     1     -39.904 -45.912  11.561  1.00  0.00     0.084 C 
HETATM   15  C   UNL     1     -41.305 -45.542  12.056  1.00  0.00     0.025 C 
HETATM   16  C   UNL     1     -41.576 -44.124  11.547  1.00  0.00     0.002 C 
HETATM   17  C   UNL     1     -40.317 -43.686  10.812  1.00  0.00     0.002 C 
HETATM   18  C   UNL     1     -39.666 -44.987  10.373  1.00  0.00     0.025 C 
ENDBRANCH  12  14
ENDBRANCH   9  10
ENDBRANCH   1   9
BRANCH   5  19
HETATM   19  C   UNL     1     -43.540 -52.797  13.506  1.00  0.00     0.036 C 
HETATM   20  C   UNL     1     -43.224 -54.236  14.002  1.00  0.00     0.011 C 
HETATM   21  C   UNL     1     -44.651 -54.618  13.560  1.00  0.00     0.001 C 
HETATM   22  C   UNL     1     -44.557 -53.462  12.541  1.00  0.00     0.011 C 
ENDBRANCH   5  19
TORSDOF 4
ENDMDL
MODEL 7
REMARK VINA RESULT:      -5.7      2.125      7.185
REMARK  4 active torsions:
REMARK  status: ('A' for Active; 'I' for Inactive)
REMARK    1  A    between atoms: C_2  and  C_3 
REMARK       I    between atoms: C_2  and  N_16 
REMARK    2  A    between atoms: C_3  and  N_4 
REMARK    3  A    between atoms: C_8  and  C_12 
REMARK    4  A    between atoms: N_16  and  C_17 
ROOT
HETATM    1  N   UNL     1     -39.557 -50.675  13.286  1.00  0.00    -0.302 N 
HETATM    2  C   UNL     1     -40.559 -49.761  13.511  1.00  0.00     0.186 A 
HETATM    3  N   UNL     1     -40.634 -48.595  12.962  1.00  0.00    -0.355 N 
ATOM      4  HN  UNL     1     -41.397 -47.954  13.175  1.00  0.00     0.166 HD
HETATM    5  C   UNL     1     -39.640 -48.257  12.079  1.00  0.00     0.019 A 
HETATM    6  C   UNL     1     -38.618 -49.063  11.767  1.00  0.00     0.100 A 
HETATM    7  C   UNL     1     -38.559 -50.397  12.384  1.00  0.00     0.250 A 
HETATM    8  O   UNL     1     -37.666 -51.174  12.061  1.00  0.00    -0.268 OA
ENDROOT
BRANCH   1   9
HETATM    9  C   UNL     1     -39.660 -52.015  13.855  1.00  0.00     0.235 C 
BRANCH   9  10
HETATM   10  C   UNL     1     -40.729 -52.915  13.228  1.00  0.00     0.236 C 
HETATM   11  O   UNL     1     -40.525 -53.471  12.150  1.00  0.00    -0.272 OA
HETATM   12  N   UNL     1     -41.848 -53.170  13.991  1.00  0.00    -0.355 N 
HETATM   13  H   UNL     1     -42.013 -52.603  14.812  1.00  0.00     0.162 HD
BRANCH  12  14
HETATM   14  C   UNL     1     -42.908 -54.045  13.522  1.00  0.00     0.084 C 
HETATM   15  C   UNL     1     -44.000 -53.293  12.755  1.00  0.00     0.025 C 
HETATM   16  C   UNL     1     -45.320 -53.984  13.105  1.00  0.00     0.002 C 
HETATM   17  C   UNL     1     -44.965 -55.144  14.026  1.00  0.00     0.002 C 
HETATM   18  C   UNL     1     -43.651 -54.726  14.666  1.00  0.00     0.025 C 
ENDBRANCH  12  14
ENDBRANCH   9  10
ENDBRANCH   1   9
BRANCH   5  19
HETATM   19  C   UNL     1     -39.726 -46.950  11.361  1.00  0.00     0.036 C 
HETATM   20  C   UNL     1     -39.810 -45.687  12.263  1.00  0.00     0.011 C 
HETATM   21  C   UNL     1     -40.700 -45.062  11.170  1.00  0.00     0.001 C 
HETATM   22  C   UNL     1     -41.094 -46.503  10.779  1.00  0.00     0.011 C 
ENDBRANCH   5  19
TORSDOF 4
ENDMDL
MODEL 8
REMARK VINA RESULT:      -5.7      3.517      7.544
REMARK  4 active torsions:
REMARK  status: ('A' for Active; 'I' for Inactive)
REMARK    1  A    between atoms: C_2  and  C_3 
REMARK       I    between atoms: C_2  and  N_16 
REMARK    2  A    between atoms: C_3  and  N_4 
REMARK    3  A    between atoms: C_8  and  C_12 
REMARK    4  A    between atoms: N_16  and  C_17 
ROOT
HETATM    1  N   UNL     1     -41.814 -53.382  13.267  1.00  0.00    -0.302 N 
HETATM    2  C   UNL     1     -41.516 -52.805  12.055  1.00  0.00     0.186 A 
HETATM    3  N   UNL     1     -40.621 -51.893  11.870  1.00  0.00    -0.355 N 
ATOM      4  HN  UNL     1     -40.450 -51.494  10.947  1.00  0.00     0.166 HD
HETATM    5  C   UNL     1     -39.912 -51.483  12.969  1.00  0.00     0.019 A 
HETATM    6  C   UNL     1     -40.100 -51.975  14.200  1.00  0.00     0.100 A 
HETATM    7  C   UNL     1     -41.107 -53.030  14.391  1.00  0.00     0.250 A 
HETATM    8  O   UNL     1     -41.248 -53.539  15.498  1.00  0.00    -0.268 OA
ENDROOT
BRANCH   1   9
HETATM    9  C   UNL     1     -42.744 -54.505  13.323  1.00  0.00     0.235 C 
BRANCH   9  10
HETATM   10  C   UNL     1     -44.202 -54.138  13.613  1.00  0.00     0.236 C 
HETATM   11  O   UNL     1     -45.101 -54.501  12.855  1.00  0.00    -0.272 OA
HETATM   12  N   UNL     1     -44.456 -53.515  14.814  1.00  0.00    -0.355 N 
HETATM   13  H   UNL     1     -43.677 -53.144  15.341  1.00  0.00     0.162 HD
BRANCH  12  14
HETATM   14  C   UNL     1     -45.804 -53.159  15.221  1.00  0.00     0.084 C 
HETATM   15  C   UNL     1     -46.294 -51.859  14.575  1.00  0.00     0.025 C 
HETATM   16  C   UNL     1     -47.157 -51.159  15.627  1.00  0.00     0.002 C 
HETATM   17  C   UNL     1     -47.189 -52.082  16.837  1.00  0.00     0.002 C 
HETATM   18  C   UNL     1     -45.914 -52.901  16.719  1.00  0.00     0.025 C 
ENDBRANCH  12  14
ENDBRANCH   9  10
ENDBRANCH   1   9
BRANCH   5  19
HETATM   19  C   UNL     1     -38.814 -50.487  12.790  1.00  0.00     0.036 C 
HETATM   20  C   UNL     1     -38.883 -49.630  11.495  1.00  0.00     0.011 C 
HETATM   21  C   UNL     1     -37.341 -49.644  11.497  1.00  0.00     0.001 C 
HETATM   22  C   UNL     1     -37.435 -50.975  12.274  1.00  0.00     0.011 C 
ENDBRANCH   5  19
TORSDOF 4
ENDMDL
MODEL 9
REMARK VINA RESULT:      -5.7      3.152      4.178
REMARK  4 active torsions:
REMARK  status: ('A' for Active; 'I' for Inactive)
REMARK    1  A    between atoms: C_2  and  C_3 
REMARK       I    between atoms: C_2  and  N_16 
REMARK    2  A    between atoms: C_3  and  N_4 
REMARK    3  A    between atoms: C_8  and  C_12 
REMARK    4  A    between atoms: N_16  and  C_17 
ROOT
HETATM    1  N   UNL     1     -42.536 -54.044  13.382  1.00  0.00    -0.302 N 
HETATM    2  C   UNL     1     -43.385 -53.228  12.673  1.00  0.00     0.186 A 
HETATM    3  N   UNL     1     -44.569 -52.882  13.054  1.00  0.00    -0.355 N 
ATOM      4  HN  UNL     1     -45.159 -52.281  12.480  1.00  0.00     0.166 HD
HETATM    5  C   UNL     1     -44.998 -53.361  14.266  1.00  0.00     0.019 A 
HETATM    6  C   UNL     1     -44.262 -54.153  15.054  1.00  0.00     0.100 A 
HETATM    7  C   UNL     1     -42.906 -54.520  14.616  1.00  0.00     0.250 A 
HETATM    8  O   UNL     1     -42.192 -55.191  15.354  1.00  0.00    -0.268 OA
ENDROOT
BRANCH   1   9
HETATM    9  C   UNL     1     -41.168 -54.245  12.914  1.00  0.00     0.235 C 
BRANCH   9  10
HETATM   10  C   UNL     1     -40.142 -53.231  13.428  1.00  0.00     0.236 C 
HETATM   11  O   UNL     1     -39.217 -53.591  14.155  1.00  0.00    -0.272 OA
HETATM   12  N   UNL     1     -40.232 -51.951  12.928  1.00  0.00    -0.355 N 
HETATM   13  H   UNL     1     -41.070 -51.685  12.427  1.00  0.00     0.162 HD
BRANCH  12  14
HETATM   14  C   UNL     1     -39.288 -50.914  13.306  1.00  0.00     0.084 C 
HETATM   15  C   UNL     1     -39.958 -49.555  13.525  1.00  0.00     0.025 C 
HETATM   16  C   UNL     1     -38.963 -48.503  13.027  1.00  0.00     0.002 C 
HETATM   17  C   UNL     1     -37.725 -49.267  12.575  1.00  0.00     0.002 C 
HETATM   18  C   UNL     1     -38.245 -50.652  12.226  1.00  0.00     0.025 C 
ENDBRANCH  12  14
ENDBRANCH   9  10
ENDBRANCH   1   9
BRANCH   5  19
HETATM   19  C   UNL     1     -46.329 -52.925  14.784  1.00  0.00     0.036 C 
HETATM   20  C   UNL     1     -46.694 -51.434  14.543  1.00  0.00     0.011 C 
HETATM   21  C   UNL     1     -47.446 -51.481  15.888  1.00  0.00     0.001 C 
HETATM   22  C   UNL     1     -46.479 -52.612  16.297  1.00  0.00     0.011 C 
ENDBRANCH   5  19
TORSDOF 4
ENDMDL
