MODEL 1
REMARK VINA RESULT:      -6.1      0.000      0.000
REMARK  7 active torsions:
REMARK  status: ('A' for Active; 'I' for Inactive)
REMARK    1  A    between atoms: C_2  and  C_3 
REMARK    2  A    between atoms: C_2  and  C_18 
REMARK    3  A    between atoms: C_3  and  N_4 
REMARK       I    between atoms: N_4  and  C_5 
REMARK    4  A    between atoms: C_5  and  C_7 
REMARK    5  A    between atoms: C_7  and  C_8 
REMARK    6  A    between atoms: C_11  and  C_14 
REMARK    7  A    between atoms: C_18  and  O_20 
ROOT
HETATM    1  N   UNL     1     -42.177 -48.582  10.304  1.00  0.00    -0.360 N 
HETATM    2  C   UNL     1     -41.952 -48.981  11.609  1.00  0.00     0.223 C 
HETATM    3  O   UNL     1     -42.305 -48.298  12.568  1.00  0.00    -0.273 OA
HETATM    4  H   UNL     1     -41.644 -49.041   9.576  1.00  0.00     0.162 HD
ENDROOT
BRANCH   2   5
HETATM    5  C   UNL     1     -41.240 -50.317  11.759  1.00  0.00     0.160 C 
BRANCH   5   6
HETATM    6  C   UNL     1     -42.121 -51.387  12.323  1.00  0.00     0.025 A 
HETATM    7  C   UNL     1     -41.824 -52.727  12.487  1.00  0.00     0.077 A 
HETATM    8  S   UNL     1     -43.157 -53.562  13.143  1.00  0.00    -0.086 SA
HETATM    9  C   UNL     1     -44.081 -52.101  13.126  1.00  0.00     0.058 A 
HETATM   10  N   UNL     1     -43.417 -51.043  12.696  1.00  0.00    -0.356 N 
ATOM     11  HN  UNL     1     -43.803 -50.101  12.645  1.00  0.00     0.166 HD
BRANCH   9  12
HETATM   12  C   UNL     1     -45.544 -52.091  13.566  1.00  0.00    -0.002 C 
HETATM   13  C   UNL     1     -45.741 -51.164  14.780  1.00  0.00     0.021 C 
HETATM   14  C   UNL     1     -46.439 -51.576  12.421  1.00  0.00     0.021 C 
HETATM   15  C   UNL     1     -46.009 -53.517  13.924  1.00  0.00     0.021 C 
ENDBRANCH   9  12
ENDBRANCH   5   6
ENDBRANCH   2   5
BRANCH   1  16
HETATM   16  C   UNL     1     -42.787 -47.290  10.038  1.00  0.00     0.137 C 
BRANCH  16  17
HETATM   17  C   UNL     1     -43.918 -47.361   9.015  1.00  0.00     0.097 C 
HETATM   18  C   UNL     1     -43.430 -47.866   7.655  1.00  0.00     0.022 C 
BRANCH  17  19
HETATM   19  C   UNL     1     -44.501 -45.971   8.863  1.00  0.00     0.145 C 
HETATM   20  O   UNL     1     -43.845 -44.943   8.854  1.00  0.00    -0.650 OA
BRANCH  19  21
HETATM   21  O   UNL     1     -45.849 -45.959   8.757  1.00  0.00    -0.776 OA
HETATM   22  H   UNL     1     -46.196 -46.006   7.845  1.00  0.00     0.167 HD
ENDBRANCH  19  21
ENDBRANCH  17  19
ENDBRANCH  16  17
ENDBRANCH   1  16
TORSDOF 7
ENDMDL
MODEL 2
REMARK VINA RESULT:      -6.0      2.958      3.660
REMARK  7 active torsions:
REMARK  status: ('A' for Active; 'I' for Inactive)
REMARK    1  A    between atoms: C_2  and  C_3 
REMARK    2  A    between atoms: C_2  and  C_18 
REMARK    3  A    between atoms: C_3  and  N_4 
REMARK       I    between atoms: N_4  and  C_5 
REMARK    4  A    between atoms: C_5  and  C_7 
REMARK    5  A    between atoms: C_7  and  C_8 
REMARK    6  A    between atoms: C_11  and  C_14 
REMARK    7  A    between atoms: C_18  and  O_20 
ROOT
HETATM    1  N   UNL     1     -42.595 -48.234  10.280  1.00  0.00    -0.360 N 
HETATM    2  C   UNL     1     -41.949 -48.903  11.303  1.00  0.00     0.223 C 
HETATM    3  O   UNL     1     -42.412 -48.953  12.441  1.00  0.00    -0.273 OA
HETATM    4  H   UNL     1     -42.054 -48.005   9.456  1.00  0.00     0.162 HD
ENDROOT
BRANCH   2   5
HETATM    5  C   UNL     1     -40.634 -49.560  10.913  1.00  0.00     0.160 C 
BRANCH   5   6
HETATM    6  C   UNL     1     -40.048 -50.388  12.013  1.00  0.00     0.025 A 
HETATM    7  C   UNL     1     -38.863 -50.175  12.691  1.00  0.00     0.077 A 
HETATM    8  S   UNL     1     -38.599 -51.405  13.842  1.00  0.00    -0.086 SA
HETATM    9  C   UNL     1     -40.056 -52.188  13.339  1.00  0.00     0.058 A 
HETATM   10  N   UNL     1     -40.722 -51.544  12.397  1.00  0.00    -0.356 N 
ATOM     11  HN  UNL     1     -41.611 -51.853  12.004  1.00  0.00     0.166 HD
BRANCH   9  12
HETATM   12  C   UNL     1     -40.485 -53.520  13.952  1.00  0.00    -0.002 C 
HETATM   13  C   UNL     1     -41.624 -54.155  13.131  1.00  0.00     0.021 C 
HETATM   14  C   UNL     1     -39.299 -54.505  13.964  1.00  0.00     0.021 C 
HETATM   15  C   UNL     1     -40.948 -53.318  15.409  1.00  0.00     0.021 C 
ENDBRANCH   9  12
ENDBRANCH   5   6
ENDBRANCH   2   5
BRANCH   1  16
HETATM   16  C   UNL     1     -43.825 -47.509  10.554  1.00  0.00     0.137 C 
BRANCH  16  17
HETATM   17  C   UNL     1     -44.522 -47.013   9.289  1.00  0.00     0.097 C 
HETATM   18  C   UNL     1     -45.814 -47.783   9.006  1.00  0.00     0.022 C 
BRANCH  17  19
HETATM   19  C   UNL     1     -43.563 -47.182   8.129  1.00  0.00     0.145 C 
HETATM   20  O   UNL     1     -43.504 -48.172   7.419  1.00  0.00    -0.650 OA
BRANCH  19  21
HETATM   21  O   UNL     1     -42.738 -46.126   7.950  1.00  0.00    -0.776 OA
HETATM   22  H   UNL     1     -42.364 -46.035   7.054  1.00  0.00     0.167 HD
ENDBRANCH  19  21
ENDBRANCH  17  19
ENDBRANCH  16  17
ENDBRANCH   1  16
TORSDOF 7
ENDMDL
MODEL 3
REMARK VINA RESULT:      -6.0      3.307      6.872
REMARK  7 active torsions:
REMARK  status: ('A' for Active; 'I' for Inactive)
REMARK    1  A    between atoms: C_2  and  C_3 
REMARK    2  A    between atoms: C_2  and  C_18 
REMARK    3  A    between atoms: C_3  and  N_4 
REMARK       I    between atoms: N_4  and  C_5 
REMARK    4  A    between atoms: C_5  and  C_7 
REMARK    5  A    between atoms: C_7  and  C_8 
REMARK    6  A    between atoms: C_11  and  C_14 
REMARK    7  A    between atoms: C_18  and  O_20 
ROOT
HETATM    1  N   UNL     1     -42.251 -51.989  12.127  1.00  0.00    -0.360 N 
HETATM    2  C   UNL     1     -42.247 -50.678  12.568  1.00  0.00     0.223 C 
HETATM    3  O   UNL     1     -43.159 -50.220  13.253  1.00  0.00    -0.273 OA
HETATM    4  H   UNL     1     -41.627 -52.229  11.367  1.00  0.00     0.162 HD
ENDROOT
BRANCH   2   5
HETATM    5  C   UNL     1     -41.039 -49.859  12.139  1.00  0.00     0.160 C 
BRANCH   5   6
HETATM    6  C   UNL     1     -41.414 -48.599  11.424  1.00  0.00     0.025 A 
HETATM    7  C   UNL     1     -40.832 -47.352  11.548  1.00  0.00     0.077 A 
HETATM    8  S   UNL     1     -41.622 -46.218  10.550  1.00  0.00    -0.086 SA
HETATM    9  C   UNL     1     -42.734 -47.439  10.042  1.00  0.00     0.058 A 
HETATM   10  N   UNL     1     -42.501 -48.634  10.555  1.00  0.00    -0.356 N 
ATOM     11  HN  UNL     1     -43.045 -49.470  10.342  1.00  0.00     0.166 HD
BRANCH   9  12
HETATM   12  C   UNL     1     -43.884 -47.110   9.091  1.00  0.00    -0.002 C 
HETATM   13  C   UNL     1     -43.991 -45.589   8.872  1.00  0.00     0.021 C 
HETATM   14  C   UNL     1     -43.646 -47.774   7.720  1.00  0.00     0.021 C 
HETATM   15  C   UNL     1     -45.216 -47.647   9.652  1.00  0.00     0.021 C 
ENDBRANCH   9  12
ENDBRANCH   5   6
ENDBRANCH   2   5
BRANCH   1  16
HETATM   16  C   UNL     1     -43.389 -52.845  12.417  1.00  0.00     0.137 C 
BRANCH  16  17
HETATM   17  C   UNL     1     -42.999 -54.139  13.129  1.00  0.00     0.097 C 
HETATM   18  C   UNL     1     -43.644 -54.250  14.512  1.00  0.00     0.022 C 
BRANCH  17  19
HETATM   19  C   UNL     1     -41.491 -54.162  13.266  1.00  0.00     0.145 C 
HETATM   20  O   UNL     1     -40.883 -53.841  14.274  1.00  0.00    -0.650 OA
BRANCH  19  21
HETATM   21  O   UNL     1     -40.851 -54.557  12.142  1.00  0.00    -0.776 OA
HETATM   22  H   UNL     1     -40.643 -55.509  12.093  1.00  0.00     0.167 HD
ENDBRANCH  19  21
ENDBRANCH  17  19
ENDBRANCH  16  17
ENDBRANCH   1  16
TORSDOF 7
ENDMDL
MODEL 4
REMARK VINA RESULT:      -5.8      3.226      6.895
REMARK  7 active torsions:
REMARK  status: ('A' for Active; 'I' for Inactive)
REMARK    1  A    between atoms: C_2  and  C_3 
REMARK    2  A    between atoms: C_2  and  C_18 
REMARK    3  A    between atoms: C_3  and  N_4 
REMARK       I    between atoms: N_4  and  C_5 
REMARK    4  A    between atoms: C_5  and  C_7 
REMARK    5  A    between atoms: C_7  and  C_8 
REMARK    6  A    between atoms: C_11  and  C_14 
REMARK    7  A    between atoms: C_18  and  O_20 
ROOT
HETATM    1  N   UNL     1     -42.502 -52.100  12.278  1.00  0.00    -0.360 N 
HETATM    2  C   UNL     1     -42.470 -50.766  12.642  1.00  0.00     0.223 C 
HETATM    3  O   UNL     1     -43.395 -50.236  13.253  1.00  0.00    -0.273 OA
HETATM    4  H   UNL     1     -41.852 -52.406  11.566  1.00  0.00     0.162 HD
ENDROOT
BRANCH   2   5
HETATM    5  C   UNL     1     -41.213 -50.016  12.226  1.00  0.00     0.160 C 
BRANCH   5   6
HETATM    6  C   UNL     1     -41.509 -48.748  11.488  1.00  0.00     0.025 A 
HETATM    7  C   UNL     1     -40.861 -47.533  11.603  1.00  0.00     0.077 A 
HETATM    8  S   UNL     1     -41.575 -46.372  10.579  1.00  0.00    -0.086 SA
HETATM    9  C   UNL     1     -42.746 -47.538  10.073  1.00  0.00     0.058 A 
HETATM   10  N   UNL     1     -42.585 -48.736  10.605  1.00  0.00    -0.356 N 
ATOM     11  HN  UNL     1     -43.172 -49.544  10.397  1.00  0.00     0.166 HD
BRANCH   9  12
HETATM   12  C   UNL     1     -43.863 -47.160   9.102  1.00  0.00    -0.002 C 
HETATM   13  C   UNL     1     -45.230 -47.629   9.636  1.00  0.00     0.021 C 
HETATM   14  C   UNL     1     -43.919 -45.629   8.927  1.00  0.00     0.021 C 
HETATM   15  C   UNL     1     -43.606 -47.785   7.716  1.00  0.00     0.021 C 
ENDBRANCH   9  12
ENDBRANCH   5   6
ENDBRANCH   2   5
BRANCH   1  16
HETATM   16  C   UNL     1     -43.684 -52.898  12.561  1.00  0.00     0.137 C 
BRANCH  16  17
HETATM   17  C   UNL     1     -43.634 -53.578  13.927  1.00  0.00     0.097 C 
HETATM   18  C   UNL     1     -42.391 -54.457  14.085  1.00  0.00     0.022 C 
BRANCH  17  19
HETATM   19  C   UNL     1     -44.880 -54.426  14.075  1.00  0.00     0.145 C 
HETATM   20  O   UNL     1     -45.271 -54.904  15.127  1.00  0.00    -0.650 OA
BRANCH  19  21
HETATM   21  O   UNL     1     -45.532 -54.636  12.909  1.00  0.00    -0.776 OA
HETATM   22  H   UNL     1     -45.067 -54.326  12.109  1.00  0.00     0.167 HD
ENDBRANCH  19  21
ENDBRANCH  17  19
ENDBRANCH  16  17
ENDBRANCH   1  16
TORSDOF 7
ENDMDL
MODEL 5
REMARK VINA RESULT:      -5.8      3.745      5.202
REMARK  7 active torsions:
REMARK  status: ('A' for Active; 'I' for Inactive)
REMARK    1  A    between atoms: C_2  and  C_3 
REMARK    2  A    between atoms: C_2  and  C_18 
REMARK    3  A    between atoms: C_3  and  N_4 
REMARK       I    between atoms: N_4  and  C_5 
REMARK    4  A    between atoms: C_5  and  C_7 
REMARK    5  A    between atoms: C_7  and  C_8 
REMARK    6  A    between atoms: C_11  and  C_14 
REMARK    7  A    between atoms: C_18  and  O_20 
ROOT
HETATM    1  N   UNL     1     -39.804 -51.098  11.638  1.00  0.00    -0.360 N 
HETATM    2  C   UNL     1     -41.134 -51.263  11.978  1.00  0.00     0.223 C 
HETATM    3  O   UNL     1     -41.860 -50.308  12.245  1.00  0.00    -0.273 OA
HETATM    4  H   UNL     1     -39.204 -51.912  11.687  1.00  0.00     0.162 HD
ENDROOT
BRANCH   2   5
HETATM    5  C   UNL     1     -41.619 -52.705  11.997  1.00  0.00     0.160 C 
BRANCH   5   6
HETATM    6  C   UNL     1     -42.606 -52.973  13.090  1.00  0.00     0.025 A 
HETATM    7  C   UNL     1     -42.469 -53.839  14.158  1.00  0.00     0.077 A 
HETATM    8  S   UNL     1     -43.873 -53.827  15.125  1.00  0.00    -0.086 SA
HETATM    9  C   UNL     1     -44.612 -52.703  14.039  1.00  0.00     0.058 A 
HETATM   10  N   UNL     1     -43.838 -52.327  13.037  1.00  0.00    -0.356 N 
ATOM     11  HN  UNL     1     -44.108 -51.654  12.320  1.00  0.00     0.166 HD
BRANCH   9  12
HETATM   12  C   UNL     1     -46.048 -52.230  14.255  1.00  0.00    -0.002 C 
HETATM   13  C   UNL     1     -46.952 -53.405  14.672  1.00  0.00     0.021 C 
HETATM   14  C   UNL     1     -46.096 -51.170  15.375  1.00  0.00     0.021 C 
HETATM   15  C   UNL     1     -46.600 -51.583  12.969  1.00  0.00     0.021 C 
ENDBRANCH   9  12
ENDBRANCH   5   6
ENDBRANCH   2   5
BRANCH   1  16
HETATM   16  C   UNL     1     -39.212 -49.770  11.655  1.00  0.00     0.137 C 
BRANCH  16  17
HETATM   17  C   UNL     1     -37.691 -49.794  11.779  1.00  0.00     0.097 C 
HETATM   18  C   UNL     1     -37.006 -49.914  10.417  1.00  0.00     0.022 C 
BRANCH  17  19
HETATM   19  C   UNL     1     -37.310 -50.976  12.647  1.00  0.00     0.145 C 
HETATM   20  O   UNL     1     -36.786 -51.997  12.234  1.00  0.00    -0.650 OA
BRANCH  19  21
HETATM   21  O   UNL     1     -37.625 -50.812  13.952  1.00  0.00    -0.776 OA
HETATM   22  H   UNL     1     -36.911 -50.450  14.511  1.00  0.00     0.167 HD
ENDBRANCH  19  21
ENDBRANCH  17  19
ENDBRANCH  16  17
ENDBRANCH   1  16
TORSDOF 7
ENDMDL
MODEL 6
REMARK VINA RESULT:      -5.7      3.303      6.405
REMARK  7 active torsions:
REMARK  status: ('A' for Active; 'I' for Inactive)
REMARK    1  A    between atoms: C_2  and  C_3 
REMARK    2  A    between atoms: C_2  and  C_18 
REMARK    3  A    between atoms: C_3  and  N_4 
REMARK       I    between atoms: N_4  and  C_5 
REMARK    4  A    between atoms: C_5  and  C_7 
REMARK    5  A    between atoms: C_7  and  C_8 
REMARK    6  A    between atoms: C_11  and  C_14 
REMARK    7  A    between atoms: C_18  and  O_20 
ROOT
HETATM    1  N   UNL     1     -43.604 -51.046  13.361  1.00  0.00    -0.360 N 
HETATM    2  C   UNL     1     -42.462 -50.313  13.627  1.00  0.00     0.223 C 
HETATM    3  O   UNL     1     -42.159 -49.972  14.769  1.00  0.00    -0.273 OA
HETATM    4  H   UNL     1     -43.933 -51.068  12.404  1.00  0.00     0.162 HD
ENDROOT
BRANCH   2   5
HETATM    5  C   UNL     1     -41.623 -49.963  12.407  1.00  0.00     0.160 C 
BRANCH   5   6
HETATM    6  C   UNL     1     -42.002 -48.651  11.795  1.00  0.00     0.025 A 
HETATM    7  C   UNL     1     -41.642 -47.386  12.219  1.00  0.00     0.077 A 
HETATM    8  S   UNL     1     -42.342 -46.196  11.220  1.00  0.00    -0.086 SA
HETATM    9  C   UNL     1     -43.133 -47.429  10.303  1.00  0.00     0.058 A 
HETATM   10  N   UNL     1     -42.854 -48.660  10.695  1.00  0.00    -0.356 N 
ATOM     11  HN  UNL     1     -43.216 -49.504  10.250  1.00  0.00     0.166 HD
BRANCH   9  12
HETATM   12  C   UNL     1     -44.078 -47.074   9.157  1.00  0.00    -0.002 C 
HETATM   13  C   UNL     1     -44.100 -45.552   8.921  1.00  0.00     0.021 C 
HETATM   14  C   UNL     1     -43.610 -47.752   7.853  1.00  0.00     0.021 C 
HETATM   15  C   UNL     1     -45.505 -47.571   9.463  1.00  0.00     0.021 C 
ENDBRANCH   9  12
ENDBRANCH   5   6
ENDBRANCH   2   5
BRANCH   1  16
HETATM   16  C   UNL     1     -44.519 -51.376  14.441  1.00  0.00     0.137 C 
BRANCH  16  17
HETATM   17  C   UNL     1     -45.978 -51.431  13.994  1.00  0.00     0.097 C 
HETATM   18  C   UNL     1     -46.943 -51.399  15.181  1.00  0.00     0.022 C 
BRANCH  17  19
HETATM   19  C   UNL     1     -46.180 -52.709  13.207  1.00  0.00     0.145 C 
HETATM   20  O   UNL     1     -45.886 -52.852  12.032  1.00  0.00    -0.650 OA
BRANCH  19  21
HETATM   21  O   UNL     1     -46.749 -53.703  13.927  1.00  0.00    -0.776 OA
HETATM   22  H   UNL     1     -46.260 -54.548  13.930  1.00  0.00     0.167 HD
ENDBRANCH  19  21
ENDBRANCH  17  19
ENDBRANCH  16  17
ENDBRANCH   1  16
TORSDOF 7
ENDMDL
MODEL 7
REMARK VINA RESULT:      -5.6      3.443      6.356
REMARK  7 active torsions:
REMARK  status: ('A' for Active; 'I' for Inactive)
REMARK    1  A    between atoms: C_2  and  C_3 
REMARK    2  A    between atoms: C_2  and  C_18 
REMARK    3  A    between atoms: C_3  and  N_4 
REMARK       I    between atoms: N_4  and  C_5 
REMARK    4  A    between atoms: C_5  and  C_7 
REMARK    5  A    between atoms: C_7  and  C_8 
REMARK    6  A    between atoms: C_11  and  C_14 
REMARK    7  A    between atoms: C_18  and  O_20 
ROOT
HETATM    1  N   UNL     1     -42.982 -53.236  13.766  1.00  0.00    -0.360 N 
HETATM    2  C   UNL     1     -44.212 -53.148  13.141  1.00  0.00     0.223 C 
HETATM    3  O   UNL     1     -44.618 -54.021  12.377  1.00  0.00    -0.273 OA
HETATM    4  H   UNL     1     -42.597 -52.388  14.164  1.00  0.00     0.162 HD
ENDROOT
BRANCH   2   5
HETATM    5  C   UNL     1     -45.012 -51.896  13.470  1.00  0.00     0.160 C 
BRANCH   5   6
HETATM    6  C   UNL     1     -44.158 -50.674  13.594  1.00  0.00     0.025 A 
HETATM    7  C   UNL     1     -43.755 -50.039  14.753  1.00  0.00     0.077 A 
HETATM    8  S   UNL     1     -42.813 -48.665  14.389  1.00  0.00    -0.086 SA
HETATM    9  C   UNL     1     -43.034 -48.960  12.701  1.00  0.00     0.058 A 
HETATM   10  N   UNL     1     -43.735 -50.046  12.426  1.00  0.00    -0.356 N 
ATOM     11  HN  UNL     1     -43.938 -50.379  11.483  1.00  0.00     0.166 HD
BRANCH   9  12
HETATM   12  C   UNL     1     -42.462 -48.006  11.654  1.00  0.00    -0.002 C 
HETATM   13  C   UNL     1     -43.560 -47.553  10.673  1.00  0.00     0.021 C 
HETATM   14  C   UNL     1     -41.886 -46.749  12.339  1.00  0.00     0.021 C 
HETATM   15  C   UNL     1     -41.319 -48.685  10.874  1.00  0.00     0.021 C 
ENDBRANCH   9  12
ENDBRANCH   5   6
ENDBRANCH   2   5
BRANCH   1  16
HETATM   16  C   UNL     1     -42.101 -54.354  13.473  1.00  0.00     0.137 C 
BRANCH  16  17
HETATM   17  C   UNL     1     -40.753 -53.921  12.901  1.00  0.00     0.097 C 
HETATM   18  C   UNL     1     -39.652 -53.919  13.963  1.00  0.00     0.022 C 
BRANCH  17  19
HETATM   19  C   UNL     1     -40.913 -52.527  12.330  1.00  0.00     0.145 C 
HETATM   20  O   UNL     1     -40.722 -51.497  12.956  1.00  0.00    -0.650 OA
BRANCH  19  21
HETATM   21  O   UNL     1     -41.317 -52.514  11.039  1.00  0.00    -0.776 OA
HETATM   22  H   UNL     1     -40.601 -52.544  10.378  1.00  0.00     0.167 HD
ENDBRANCH  19  21
ENDBRANCH  17  19
ENDBRANCH  16  17
ENDBRANCH   1  16
TORSDOF 7
ENDMDL
MODEL 8
REMARK VINA RESULT:      -5.6      3.496      5.044
REMARK  7 active torsions:
REMARK  status: ('A' for Active; 'I' for Inactive)
REMARK    1  A    between atoms: C_2  and  C_3 
REMARK    2  A    between atoms: C_2  and  C_18 
REMARK    3  A    between atoms: C_3  and  N_4 
REMARK       I    between atoms: N_4  and  C_5 
REMARK    4  A    between atoms: C_5  and  C_7 
REMARK    5  A    between atoms: C_7  and  C_8 
REMARK    6  A    between atoms: C_11  and  C_14 
REMARK    7  A    between atoms: C_18  and  O_20 
ROOT
HETATM    1  N   UNL     1     -42.631 -48.250  10.247  1.00  0.00    -0.360 N 
HETATM    2  C   UNL     1     -41.961 -48.818  11.315  1.00  0.00     0.223 C 
HETATM    3  O   UNL     1     -42.405 -48.769  12.461  1.00  0.00    -0.273 OA
HETATM    4  H   UNL     1     -42.105 -48.093   9.396  1.00  0.00     0.162 HD
ENDROOT
BRANCH   2   5
HETATM    5  C   UNL     1     -40.646 -49.497  10.964  1.00  0.00     0.160 C 
BRANCH   5   6
HETATM    6  C   UNL     1     -39.808 -49.800  12.165  1.00  0.00     0.025 A 
HETATM    7  C   UNL     1     -39.385 -51.039  12.609  1.00  0.00     0.077 A 
HETATM    8  S   UNL     1     -38.474 -50.885  14.042  1.00  0.00    -0.086 SA
HETATM    9  C   UNL     1     -38.734 -49.176  14.024  1.00  0.00     0.058 A 
HETATM   10  N   UNL     1     -39.424 -48.742  12.985  1.00  0.00    -0.356 N 
ATOM     11  HN  UNL     1     -39.647 -47.763  12.807  1.00  0.00     0.166 HD
BRANCH   9  12
HETATM   12  C   UNL     1     -38.204 -48.288  15.149  1.00  0.00    -0.002 C 
HETATM   13  C   UNL     1     -37.910 -49.123  16.409  1.00  0.00     0.021 C 
HETATM   14  C   UNL     1     -36.893 -47.604  14.712  1.00  0.00     0.021 C 
HETATM   15  C   UNL     1     -39.224 -47.182  15.487  1.00  0.00     0.021 C 
ENDBRANCH   9  12
ENDBRANCH   5   6
ENDBRANCH   2   5
BRANCH   1  16
HETATM   16  C   UNL     1     -43.863 -47.513  10.475  1.00  0.00     0.137 C 
BRANCH  16  17
HETATM   17  C   UNL     1     -44.518 -47.028   9.184  1.00  0.00     0.097 C 
HETATM   18  C   UNL     1     -45.781 -47.823   8.848  1.00  0.00     0.022 C 
BRANCH  17  19
HETATM   19  C   UNL     1     -43.510 -47.174   8.063  1.00  0.00     0.145 C 
HETATM   20  O   UNL     1     -43.415 -48.154   7.342  1.00  0.00    -0.650 OA
BRANCH  19  21
HETATM   21  O   UNL     1     -42.685 -46.110   7.935  1.00  0.00    -0.776 OA
HETATM   22  H   UNL     1     -42.273 -46.005   7.056  1.00  0.00     0.167 HD
ENDBRANCH  19  21
ENDBRANCH  17  19
ENDBRANCH  16  17
ENDBRANCH   1  16
TORSDOF 7
ENDMDL
MODEL 9
REMARK VINA RESULT:      -5.5      1.446      1.911
REMARK  7 active torsions:
REMARK  status: ('A' for Active; 'I' for Inactive)
REMARK    1  A    between atoms: C_2  and  C_3 
REMARK    2  A    between atoms: C_2  and  C_18 
REMARK    3  A    between atoms: C_3  and  N_4 
REMARK       I    between atoms: N_4  and  C_5 
REMARK    4  A    between atoms: C_5  and  C_7 
REMARK    5  A    between atoms: C_7  and  C_8 
REMARK    6  A    between atoms: C_11  and  C_14 
REMARK    7  A    between atoms: C_18  and  O_20 
ROOT
HETATM    1  N   UNL     1     -41.507 -49.161  11.176  1.00  0.00    -0.360 N 
HETATM    2  C   UNL     1     -41.329 -50.063  12.208  1.00  0.00     0.223 C 
HETATM    3  O   UNL     1     -41.140 -49.696  13.367  1.00  0.00    -0.273 OA
HETATM    4  H   UNL     1     -41.396 -49.505  10.230  1.00  0.00     0.162 HD
ENDROOT
BRANCH   2   5
HETATM    5  C   UNL     1     -41.383 -51.527  11.800  1.00  0.00     0.160 C 
BRANCH   5   6
HETATM    6  C   UNL     1     -42.413 -52.305  12.557  1.00  0.00     0.025 A 
HETATM    7  C   UNL     1     -42.324 -53.608  13.009  1.00  0.00     0.077 A 
HETATM    8  S   UNL     1     -43.763 -54.071  13.796  1.00  0.00    -0.086 SA
HETATM    9  C   UNL     1     -44.451 -52.525  13.448  1.00  0.00     0.058 A 
HETATM   10  N   UNL     1     -43.637 -51.697  12.819  1.00  0.00    -0.356 N 
ATOM     11  HN  UNL     1     -43.874 -50.739  12.559  1.00  0.00     0.166 HD
BRANCH   9  12
HETATM   12  C   UNL     1     -45.891 -52.198  13.840  1.00  0.00    -0.002 C 
HETATM   13  C   UNL     1     -45.925 -51.128  14.947  1.00  0.00     0.021 C 
HETATM   14  C   UNL     1     -46.663 -51.650  12.622  1.00  0.00     0.021 C 
HETATM   15  C   UNL     1     -46.618 -53.468  14.327  1.00  0.00     0.021 C 
ENDBRANCH   9  12
ENDBRANCH   5   6
ENDBRANCH   2   5
BRANCH   1  16
HETATM   16  C   UNL     1     -41.406 -47.734  11.436  1.00  0.00     0.137 C 
BRANCH  16  17
HETATM   17  C   UNL     1     -41.884 -46.877  10.267  1.00  0.00     0.097 C 
HETATM   18  C   UNL     1     -42.323 -45.483  10.719  1.00  0.00     0.022 C 
BRANCH  17  19
HETATM   19  C   UNL     1     -43.046 -47.589   9.607  1.00  0.00     0.145 C 
HETATM   20  O   UNL     1     -44.155 -47.707  10.101  1.00  0.00    -0.650 OA
BRANCH  19  21
HETATM   21  O   UNL     1     -42.741 -48.119   8.401  1.00  0.00    -0.776 OA
HETATM   22  H   UNL     1     -43.334 -48.833   8.097  1.00  0.00     0.167 HD
ENDBRANCH  19  21
ENDBRANCH  17  19
ENDBRANCH  16  17
ENDBRANCH   1  16
TORSDOF 7
ENDMDL
