MODEL 1
REMARK VINA RESULT:      -5.8      0.000      0.000
REMARK  6 active torsions:
REMARK  status: ('A' for Active; 'I' for Inactive)
REMARK    1  A    between atoms: O_2  and  C_3 
REMARK    2  A    between atoms: C_3  and  C_4 
REMARK    3  A    between atoms: C_4  and  N_6 
REMARK    4  A    between atoms: N_6  and  C_7 
REMARK    5  A    between atoms: C_10  and  O_11 
REMARK    6  A    between atoms: O_11  and  C_12 
ROOT
HETATM    1  C   UNL     1     -41.070 -52.901  12.926  1.00  0.00     0.024 A 
HETATM    2  C   UNL     1     -41.548 -53.804  13.877  1.00  0.00     0.029 A 
HETATM    3  C   UNL     1     -42.878 -54.238  13.839  1.00  0.00     0.058 A 
HETATM    4  C   UNL     1     -43.692 -53.788  12.815  1.00  0.00     0.142 A 
HETATM    5  N   UNL     1     -43.279 -52.912  11.895  1.00  0.00    -0.345 N 
ATOM      6  HN  UNL     1     -43.914 -52.553  11.182  1.00  0.00     0.167 HD
HETATM    7  C   UNL     1     -41.986 -52.521  11.945  1.00  0.00     0.113 A 
ENDROOT
BRANCH   4   8
HETATM    8  O   UNL     1     -44.983 -54.240  12.772  1.00  0.00    -0.330 OA
BRANCH   8   9
HETATM    9  C   UNL     1     -45.984 -53.530  13.531  1.00  0.00     0.134 C 
HETATM   10  C   UNL     1     -45.881 -52.001  13.500  1.00  0.00     0.062 C 
HETATM   11  C   UNL     1     -45.287 -51.384  14.767  1.00  0.00     0.274 C 
HETATM   12  N   UNL     1     -45.849 -51.891  16.021  1.00  0.00     0.084 N 
HETATM   13  C   UNL     1     -47.175 -51.363  16.308  1.00  0.00     0.309 C 
HETATM   14  C   UNL     1     -45.776 -53.353  16.104  1.00  0.00     0.274 C 
HETATM   15  C   UNL     1     -46.332 -54.121  14.901  1.00  0.00     0.062 C 
ENDBRANCH   8   9
ENDBRANCH   4   8
BRANCH   1  16
HETATM   16  N   UNL     1     -39.723 -52.512  12.936  1.00  0.00    -0.286 NA
HETATM   17  H   UNL     1     -39.090 -53.301  12.823  1.00  0.00     0.128 HD
BRANCH  16  18
HETATM   18  C   UNL     1     -39.274 -51.569  13.981  1.00  0.00     0.080 C 
HETATM   19  C   UNL     1     -40.321 -50.461  14.119  1.00  0.00     0.028 C 
BRANCH  18  20
HETATM   20  C   UNL     1     -37.887 -50.989  13.632  1.00  0.00     0.186 C 
BRANCH  20  21
HETATM   21  O   UNL     1     -37.507 -51.335  12.300  1.00  0.00    -0.394 OA
HETATM   22  C   UNL     1     -37.420 -50.174  11.481  1.00  0.00     0.201 C 
ENDBRANCH  20  21
ENDBRANCH  18  20
ENDBRANCH  16  18
ENDBRANCH   1  16
TORSDOF 6
ENDMDL
MODEL 2
REMARK VINA RESULT:      -5.5      1.838      6.859
REMARK  6 active torsions:
REMARK  status: ('A' for Active; 'I' for Inactive)
REMARK    1  A    between atoms: O_2  and  C_3 
REMARK    2  A    between atoms: C_3  and  C_4 
REMARK    3  A    between atoms: C_4  and  N_6 
REMARK    4  A    between atoms: N_6  and  C_7 
REMARK    5  A    between atoms: C_10  and  O_11 
REMARK    6  A    between atoms: O_11  and  C_12 
ROOT
HETATM    1  C   UNL     1     -44.371 -53.939  13.151  1.00  0.00     0.024 A 
HETATM    2  C   UNL     1     -43.340 -54.350  13.997  1.00  0.00     0.029 A 
HETATM    3  C   UNL     1     -42.017 -53.977  13.736  1.00  0.00     0.058 A 
HETATM    4  C   UNL     1     -41.762 -53.157  12.651  1.00  0.00     0.142 A 
HETATM    5  N   UNL     1     -42.716 -52.754  11.809  1.00  0.00    -0.345 N 
ATOM      6  HN  UNL     1     -42.495 -52.195  10.985  1.00  0.00     0.167 HD
HETATM    7  C   UNL     1     -43.988 -53.116  12.091  1.00  0.00     0.113 A 
ENDROOT
BRANCH   4   8
HETATM    8  O   UNL     1     -40.467 -52.776  12.422  1.00  0.00    -0.330 OA
BRANCH   8   9
HETATM    9  C   UNL     1     -39.954 -51.627  13.128  1.00  0.00     0.134 C 
HETATM   10  C   UNL     1     -40.231 -50.268  12.475  1.00  0.00     0.062 C 
HETATM   11  C   UNL     1     -39.029 -49.659  11.753  1.00  0.00     0.274 C 
HETATM   12  N   UNL     1     -37.778 -49.680  12.513  1.00  0.00     0.084 N 
HETATM   13  C   UNL     1     -37.732 -48.678  13.567  1.00  0.00     0.309 C 
HETATM   14  C   UNL     1     -37.441 -51.029  12.979  1.00  0.00     0.274 C 
HETATM   15  C   UNL     1     -38.551 -51.777  13.724  1.00  0.00     0.062 C 
ENDBRANCH   8   9
ENDBRANCH   4   8
BRANCH   1  16
HETATM   16  N   UNL     1     -45.701 -54.269  13.446  1.00  0.00    -0.286 NA
HETATM   17  H   UNL     1     -46.187 -54.674  12.649  1.00  0.00     0.128 HD
BRANCH  16  18
HETATM   18  C   UNL     1     -46.525 -53.279  14.169  1.00  0.00     0.080 C 
HETATM   19  C   UNL     1     -46.458 -51.948  13.417  1.00  0.00     0.028 C 
BRANCH  18  20
HETATM   20  C   UNL     1     -46.038 -53.125  15.626  1.00  0.00     0.186 C 
BRANCH  20  21
HETATM   21  O   UNL     1     -45.973 -54.391  16.281  1.00  0.00    -0.394 OA
HETATM   22  C   UNL     1     -45.560 -54.242  17.634  1.00  0.00     0.201 C 
ENDBRANCH  20  21
ENDBRANCH  18  20
ENDBRANCH  16  18
ENDBRANCH   1  16
TORSDOF 6
ENDMDL
MODEL 3
REMARK VINA RESULT:      -5.3      1.274      1.962
REMARK  6 active torsions:
REMARK  status: ('A' for Active; 'I' for Inactive)
REMARK    1  A    between atoms: O_2  and  C_3 
REMARK    2  A    between atoms: C_3  and  C_4 
REMARK    3  A    between atoms: C_4  and  N_6 
REMARK    4  A    between atoms: N_6  and  C_7 
REMARK    5  A    between atoms: C_10  and  O_11 
REMARK    6  A    between atoms: O_11  and  C_12 
ROOT
HETATM    1  C   UNL     1     -41.249 -52.807  12.974  1.00  0.00     0.024 A 
HETATM    2  C   UNL     1     -41.830 -53.982  13.455  1.00  0.00     0.029 A 
HETATM    3  C   UNL     1     -43.203 -54.207  13.307  1.00  0.00     0.058 A 
HETATM    4  C   UNL     1     -43.960 -53.263  12.635  1.00  0.00     0.142 A 
HETATM    5  N   UNL     1     -43.447 -52.120  12.174  1.00  0.00    -0.345 N 
ATOM      6  HN  UNL     1     -44.037 -51.415  11.731  1.00  0.00     0.167 HD
HETATM    7  C   UNL     1     -42.115 -51.933  12.316  1.00  0.00     0.113 A 
ENDROOT
BRANCH   4   8
HETATM    8  O   UNL     1     -45.297 -53.507  12.473  1.00  0.00    -0.330 OA
BRANCH   8   9
HETATM    9  C   UNL     1     -46.210 -53.022  13.478  1.00  0.00     0.134 C 
HETATM   10  C   UNL     1     -46.117 -51.525  13.794  1.00  0.00     0.062 C 
HETATM   11  C   UNL     1     -45.389 -51.200  15.098  1.00  0.00     0.274 C 
HETATM   12  N   UNL     1     -45.806 -51.999  16.253  1.00  0.00     0.084 N 
HETATM   13  C   UNL     1     -47.094 -51.591  16.795  1.00  0.00     0.309 C 
HETATM   14  C   UNL     1     -45.719 -53.438  15.985  1.00  0.00     0.274 C 
HETATM   15  C   UNL     1     -46.401 -53.923  14.703  1.00  0.00     0.062 C 
ENDBRANCH   8   9
ENDBRANCH   4   8
BRANCH   1  16
HETATM   16  N   UNL     1     -39.865 -52.611  13.076  1.00  0.00    -0.286 NA
HETATM   17  H   UNL     1     -39.394 -53.390  13.529  1.00  0.00     0.128 HD
BRANCH  16  18
HETATM   18  C   UNL     1     -39.377 -51.300  13.551  1.00  0.00     0.080 C 
HETATM   19  C   UNL     1     -37.887 -51.185  13.219  1.00  0.00     0.028 C 
BRANCH  18  20
HETATM   20  C   UNL     1     -39.627 -51.141  15.066  1.00  0.00     0.186 C 
BRANCH  20  21
HETATM   21  O   UNL     1     -40.667 -50.196  15.317  1.00  0.00    -0.394 OA
HETATM   22  C   UNL     1     -41.761 -50.812  15.987  1.00  0.00     0.201 C 
ENDBRANCH  20  21
ENDBRANCH  18  20
ENDBRANCH  16  18
ENDBRANCH   1  16
TORSDOF 6
ENDMDL
MODEL 4
REMARK VINA RESULT:      -5.2      4.031      4.772
REMARK  6 active torsions:
REMARK  status: ('A' for Active; 'I' for Inactive)
REMARK    1  A    between atoms: O_2  and  C_3 
REMARK    2  A    between atoms: C_3  and  C_4 
REMARK    3  A    between atoms: C_4  and  N_6 
REMARK    4  A    between atoms: N_6  and  C_7 
REMARK    5  A    between atoms: C_10  and  O_11 
REMARK    6  A    between atoms: O_11  and  C_12 
ROOT
HETATM    1  C   UNL     1     -41.356 -48.455  11.032  1.00  0.00     0.024 A 
HETATM    2  C   UNL     1     -42.447 -48.570  11.895  1.00  0.00     0.029 A 
HETATM    3  C   UNL     1     -42.742 -49.793  12.507  1.00  0.00     0.058 A 
HETATM    4  C   UNL     1     -41.904 -50.869  12.273  1.00  0.00     0.142 A 
HETATM    5  N   UNL     1     -40.860 -50.806  11.443  1.00  0.00    -0.345 N 
ATOM      6  HN  UNL     1     -40.290 -51.628  11.245  1.00  0.00     0.167 HD
HETATM    7  C   UNL     1     -40.587 -49.609  10.876  1.00  0.00     0.113 A 
ENDROOT
BRANCH   4   8
HETATM    8  O   UNL     1     -42.187 -52.053  12.899  1.00  0.00    -0.330 OA
BRANCH   8   9
HETATM    9  C   UNL     1     -43.508 -52.242  13.445  1.00  0.00     0.134 C 
HETATM   10  C   UNL     1     -43.570 -52.523  14.951  1.00  0.00     0.062 C 
HETATM   11  C   UNL     1     -43.822 -53.988  15.309  1.00  0.00     0.274 C 
HETATM   12  N   UNL     1     -44.911 -54.626  14.566  1.00  0.00     0.084 N 
HETATM   13  C   UNL     1     -46.231 -54.220  15.027  1.00  0.00     0.309 C 
HETATM   14  C   UNL     1     -44.737 -54.496  13.116  1.00  0.00     0.274 C 
HETATM   15  C   UNL     1     -44.472 -53.079  12.598  1.00  0.00     0.062 C 
ENDBRANCH   8   9
ENDBRANCH   4   8
BRANCH   1  16
HETATM   16  N   UNL     1     -41.032 -47.215  10.464  1.00  0.00    -0.286 NA
HETATM   17  H   UNL     1     -41.042 -47.238   9.447  1.00  0.00     0.128 HD
BRANCH  16  18
HETATM   18  C   UNL     1     -39.869 -46.480  11.002  1.00  0.00     0.080 C 
HETATM   19  C   UNL     1     -40.030 -46.358  12.520  1.00  0.00     0.028 C 
BRANCH  18  20
HETATM   20  C   UNL     1     -39.745 -45.092  10.338  1.00  0.00     0.186 C 
BRANCH  20  21
HETATM   21  O   UNL     1     -40.951 -44.344  10.488  1.00  0.00    -0.394 OA
HETATM   22  C   UNL     1     -40.699 -43.098  11.127  1.00  0.00     0.201 C 
ENDBRANCH  20  21
ENDBRANCH  18  20
ENDBRANCH  16  18
ENDBRANCH   1  16
TORSDOF 6
ENDMDL
MODEL 5
REMARK VINA RESULT:      -5.2      3.466      7.097
REMARK  6 active torsions:
REMARK  status: ('A' for Active; 'I' for Inactive)
REMARK    1  A    between atoms: O_2  and  C_3 
REMARK    2  A    between atoms: C_3  and  C_4 
REMARK    3  A    between atoms: C_4  and  N_6 
REMARK    4  A    between atoms: N_6  and  C_7 
REMARK    5  A    between atoms: C_10  and  O_11 
REMARK    6  A    between atoms: O_11  and  C_12 
ROOT
HETATM    1  C   UNL     1     -42.523 -52.679  12.400  1.00  0.00     0.024 A 
HETATM    2  C   UNL     1     -43.014 -51.453  12.853  1.00  0.00     0.029 A 
HETATM    3  C   UNL     1     -42.289 -50.276  12.636  1.00  0.00     0.058 A 
HETATM    4  C   UNL     1     -41.105 -50.349  11.925  1.00  0.00     0.142 A 
HETATM    5  N   UNL     1     -40.594 -51.502  11.488  1.00  0.00    -0.345 N 
ATOM      6  HN  UNL     1     -39.691 -51.536  11.014  1.00  0.00     0.167 HD
HETATM    7  C   UNL     1     -41.320 -52.624  11.697  1.00  0.00     0.113 A 
ENDROOT
BRANCH   4   8
HETATM    8  O   UNL     1     -40.419 -49.187  11.695  1.00  0.00    -0.330 OA
BRANCH   8   9
HETATM    9  C   UNL     1     -41.052 -47.937  12.039  1.00  0.00     0.134 C 
HETATM   10  C   UNL     1     -41.393 -47.019  10.860  1.00  0.00     0.062 C 
HETATM   11  C   UNL     1     -40.435 -45.841  10.681  1.00  0.00     0.274 C 
HETATM   12  N   UNL     1     -40.131 -45.101  11.908  1.00  0.00     0.084 N 
HETATM   13  C   UNL     1     -41.219 -44.234  12.337  1.00  0.00     0.309 C 
HETATM   14  C   UNL     1     -39.637 -45.981  12.972  1.00  0.00     0.274 C 
HETATM   15  C   UNL     1     -40.491 -47.217  13.270  1.00  0.00     0.062 C 
ENDBRANCH   8   9
ENDBRANCH   4   8
BRANCH   1  16
HETATM   16  N   UNL     1     -43.278 -53.849  12.572  1.00  0.00    -0.286 NA
HETATM   17  H   UNL     1     -43.900 -54.029  11.787  1.00  0.00     0.128 HD
BRANCH  16  18
HETATM   18  C   UNL     1     -43.933 -54.073  13.877  1.00  0.00     0.080 C 
HETATM   19  C   UNL     1     -42.959 -54.825  14.787  1.00  0.00     0.028 C 
BRANCH  18  20
HETATM   20  C   UNL     1     -45.251 -54.857  13.697  1.00  0.00     0.186 C 
BRANCH  20  21
HETATM   21  O   UNL     1     -46.045 -54.802  14.882  1.00  0.00    -0.394 OA
HETATM   22  C   UNL     1     -46.543 -53.486  15.097  1.00  0.00     0.201 C 
ENDBRANCH  20  21
ENDBRANCH  18  20
ENDBRANCH  16  18
ENDBRANCH   1  16
TORSDOF 6
ENDMDL
MODEL 6
REMARK VINA RESULT:      -5.2      1.425      2.283
REMARK  6 active torsions:
REMARK  status: ('A' for Active; 'I' for Inactive)
REMARK    1  A    between atoms: O_2  and  C_3 
REMARK    2  A    between atoms: C_3  and  C_4 
REMARK    3  A    between atoms: C_4  and  N_6 
REMARK    4  A    between atoms: N_6  and  C_7 
REMARK    5  A    between atoms: C_10  and  O_11 
REMARK    6  A    between atoms: O_11  and  C_12 
ROOT
HETATM    1  C   UNL     1     -40.113 -52.021  12.566  1.00  0.00     0.024 A 
HETATM    2  C   UNL     1     -40.287 -52.651  13.799  1.00  0.00     0.029 A 
HETATM    3  C   UNL     1     -41.527 -53.195  14.150  1.00  0.00     0.058 A 
HETATM    4  C   UNL     1     -42.560 -53.134  13.231  1.00  0.00     0.142 A 
HETATM    5  N   UNL     1     -42.441 -52.527  12.048  1.00  0.00    -0.345 N 
ATOM      6  HN  UNL     1     -43.233 -52.447  11.411  1.00  0.00     0.167 HD
HETATM    7  C   UNL     1     -41.228 -52.023  11.727  1.00  0.00     0.113 A 
ENDROOT
BRANCH   4   8
HETATM    8  O   UNL     1     -43.761 -53.694  13.575  1.00  0.00    -0.330 OA
BRANCH   8   9
HETATM    9  C   UNL     1     -44.463 -53.165  14.718  1.00  0.00     0.134 C 
HETATM   10  C   UNL     1     -45.617 -54.025  15.246  1.00  0.00     0.062 C 
HETATM   11  C   UNL     1     -47.007 -53.517  14.862  1.00  0.00     0.274 C 
HETATM   12  N   UNL     1     -47.222 -52.085  15.076  1.00  0.00     0.084 N 
HETATM   13  C   UNL     1     -47.413 -51.739  16.477  1.00  0.00     0.309 C 
HETATM   14  C   UNL     1     -46.200 -51.271  14.411  1.00  0.00     0.274 C 
HETATM   15  C   UNL     1     -44.746 -51.659  14.695  1.00  0.00     0.062 C 
ENDBRANCH   8   9
ENDBRANCH   4   8
BRANCH   1  16
HETATM   16  N   UNL     1     -38.855 -51.526  12.197  1.00  0.00    -0.286 NA
HETATM   17  H   UNL     1     -38.120 -51.814  12.839  1.00  0.00     0.128 HD
BRANCH  16  18
HETATM   18  C   UNL     1     -38.747 -50.103  11.813  1.00  0.00     0.080 C 
HETATM   19  C   UNL     1     -37.394 -49.883  11.133  1.00  0.00     0.028 C 
BRANCH  18  20
HETATM   20  C   UNL     1     -38.907 -49.191  13.049  1.00  0.00     0.186 C 
BRANCH  20  21
HETATM   21  O   UNL     1     -37.659 -49.009  13.716  1.00  0.00    -0.394 OA
HETATM   22  C   UNL     1     -37.742 -49.434  15.072  1.00  0.00     0.201 C 
ENDBRANCH  20  21
ENDBRANCH  18  20
ENDBRANCH  16  18
ENDBRANCH   1  16
TORSDOF 6
ENDMDL
MODEL 7
REMARK VINA RESULT:      -5.1      4.385      7.475
REMARK  6 active torsions:
REMARK  status: ('A' for Active; 'I' for Inactive)
REMARK    1  A    between atoms: O_2  and  C_3 
REMARK    2  A    between atoms: C_3  and  C_4 
REMARK    3  A    between atoms: C_4  and  N_6 
REMARK    4  A    between atoms: N_6  and  C_7 
REMARK    5  A    between atoms: C_10  and  O_11 
REMARK    6  A    between atoms: O_11  and  C_12 
ROOT
HETATM    1  C   UNL     1     -42.351 -48.676  11.267  1.00  0.00     0.024 A 
HETATM    2  C   UNL     1     -42.423 -49.367  12.478  1.00  0.00     0.029 A 
HETATM    3  C   UNL     1     -41.458 -50.325  12.807  1.00  0.00     0.058 A 
HETATM    4  C   UNL     1     -40.411 -50.538  11.928  1.00  0.00     0.142 A 
HETATM    5  N   UNL     1     -40.313 -49.911  10.754  1.00  0.00    -0.345 N 
ATOM      6  HN  UNL     1     -39.561 -50.126  10.099  1.00  0.00     0.167 HD
HETATM    7  C   UNL     1     -41.249 -48.979  10.466  1.00  0.00     0.113 A 
ENDROOT
BRANCH   4   8
HETATM    8  O   UNL     1     -39.458 -51.459  12.273  1.00  0.00    -0.330 OA
BRANCH   8   9
HETATM    9  C   UNL     1     -38.349 -51.026  13.087  1.00  0.00     0.134 C 
HETATM   10  C   UNL     1     -38.466 -51.328  14.586  1.00  0.00     0.062 C 
HETATM   11  C   UNL     1     -38.842 -50.120  15.444  1.00  0.00     0.274 C 
HETATM   12  N   UNL     1     -38.074 -48.904  15.168  1.00  0.00     0.084 N 
HETATM   13  C   UNL     1     -36.723 -48.947  15.708  1.00  0.00     0.309 C 
HETATM   14  C   UNL     1     -38.122 -48.534  13.751  1.00  0.00     0.274 C 
HETATM   15  C   UNL     1     -37.771 -49.645  12.756  1.00  0.00     0.062 C 
ENDBRANCH   8   9
ENDBRANCH   4   8
BRANCH   1  16
HETATM   16  N   UNL     1     -43.289 -47.679  10.966  1.00  0.00    -0.286 NA
HETATM   17  H   UNL     1     -44.241 -47.961  11.187  1.00  0.00     0.128 HD
BRANCH  16  18
HETATM   18  C   UNL     1     -43.190 -46.995   9.660  1.00  0.00     0.080 C 
HETATM   19  C   UNL     1     -43.122 -45.486   9.904  1.00  0.00     0.028 C 
BRANCH  18  20
HETATM   20  C   UNL     1     -44.387 -47.364   8.759  1.00  0.00     0.186 C 
BRANCH  20  21
HETATM   21  O   UNL     1     -45.459 -46.437   8.926  1.00  0.00    -0.394 OA
HETATM   22  C   UNL     1     -46.691 -47.118   9.135  1.00  0.00     0.201 C 
ENDBRANCH  20  21
ENDBRANCH  18  20
ENDBRANCH  16  18
ENDBRANCH   1  16
TORSDOF 6
ENDMDL
MODEL 8
REMARK VINA RESULT:      -5.1      3.692      4.903
REMARK  6 active torsions:
REMARK  status: ('A' for Active; 'I' for Inactive)
REMARK    1  A    between atoms: O_2  and  C_3 
REMARK    2  A    between atoms: C_3  and  C_4 
REMARK    3  A    between atoms: C_4  and  N_6 
REMARK    4  A    between atoms: N_6  and  C_7 
REMARK    5  A    between atoms: C_10  and  O_11 
REMARK    6  A    between atoms: O_11  and  C_12 
ROOT
HETATM    1  C   UNL     1     -40.523 -48.834  12.236  1.00  0.00     0.024 A 
HETATM    2  C   UNL     1     -40.228 -49.458  13.450  1.00  0.00     0.029 A 
HETATM    3  C   UNL     1     -40.169 -50.854  13.533  1.00  0.00     0.058 A 
HETATM    4  C   UNL     1     -40.363 -51.595  12.381  1.00  0.00     0.142 A 
HETATM    5  N   UNL     1     -40.662 -51.038  11.205  1.00  0.00    -0.345 N 
ATOM      6  HN  UNL     1     -40.855 -51.609  10.382  1.00  0.00     0.167 HD
HETATM    7  C   UNL     1     -40.699 -49.688  11.147  1.00  0.00     0.113 A 
ENDROOT
BRANCH   4   8
HETATM    8  O   UNL     1     -40.275 -52.958  12.469  1.00  0.00    -0.330 OA
BRANCH   8   9
HETATM    9  C   UNL     1     -41.417 -53.689  12.963  1.00  0.00     0.134 C 
HETATM   10  C   UNL     1     -42.787 -53.109  12.593  1.00  0.00     0.062 C 
HETATM   11  C   UNL     1     -43.480 -52.358  13.730  1.00  0.00     0.274 C 
HETATM   12  N   UNL     1     -43.488 -53.057  15.017  1.00  0.00     0.084 N 
HETATM   13  C   UNL     1     -44.447 -54.151  15.068  1.00  0.00     0.309 C 
HETATM   14  C   UNL     1     -42.139 -53.449  15.437  1.00  0.00     0.274 C 
HETATM   15  C   UNL     1     -41.309 -54.212  14.399  1.00  0.00     0.062 C 
ENDBRANCH   8   9
ENDBRANCH   4   8
BRANCH   1  16
HETATM   16  N   UNL     1     -40.528 -47.435  12.145  1.00  0.00    -0.286 NA
HETATM   17  H   UNL     1     -41.014 -46.996  12.924  1.00  0.00     0.128 HD
BRANCH  16  18
HETATM   18  C   UNL     1     -40.867 -46.819  10.846  1.00  0.00     0.080 C 
HETATM   19  C   UNL     1     -39.934 -45.629  10.612  1.00  0.00     0.028 C 
BRANCH  18  20
HETATM   20  C   UNL     1     -42.348 -46.383  10.819  1.00  0.00     0.186 C 
BRANCH  20  21
HETATM   21  O   UNL     1     -43.080 -47.118   9.839  1.00  0.00    -0.394 OA
HETATM   22  C   UNL     1     -43.441 -46.283   8.745  1.00  0.00     0.201 C 
ENDBRANCH  20  21
ENDBRANCH  18  20
ENDBRANCH  16  18
ENDBRANCH   1  16
TORSDOF 6
ENDMDL
MODEL 9
REMARK VINA RESULT:      -5.1      1.732      6.622
REMARK  6 active torsions:
REMARK  status: ('A' for Active; 'I' for Inactive)
REMARK    1  A    between atoms: O_2  and  C_3 
REMARK    2  A    between atoms: C_3  and  C_4 
REMARK    3  A    between atoms: C_4  and  N_6 
REMARK    4  A    between atoms: N_6  and  C_7 
REMARK    5  A    between atoms: C_10  and  O_11 
REMARK    6  A    between atoms: O_11  and  C_12 
ROOT
HETATM    1  C   UNL     1     -43.402 -54.279  14.175  1.00  0.00     0.024 A 
HETATM    2  C   UNL     1     -42.146 -54.427  14.768  1.00  0.00     0.029 A 
HETATM    3  C   UNL     1     -41.004 -53.906  14.149  1.00  0.00     0.058 A 
HETATM    4  C   UNL     1     -41.154 -53.204  12.966  1.00  0.00     0.142 A 
HETATM    5  N   UNL     1     -42.333 -53.053  12.359  1.00  0.00    -0.345 N 
ATOM      6  HN  UNL     1     -42.409 -52.579  11.459  1.00  0.00     0.167 HD
HETATM    7  C   UNL     1     -43.423 -53.553  12.984  1.00  0.00     0.113 A 
ENDROOT
BRANCH   4   8
HETATM    8  O   UNL     1     -40.032 -52.675  12.385  1.00  0.00    -0.330 OA
BRANCH   8   9
HETATM    9  C   UNL     1     -39.779 -51.264  12.541  1.00  0.00     0.134 C 
HETATM   10  C   UNL     1     -38.344 -50.810  12.249  1.00  0.00     0.062 C 
HETATM   11  C   UNL     1     -37.507 -50.529  13.497  1.00  0.00     0.274 C 
HETATM   12  N   UNL     1     -38.168 -49.704  14.511  1.00  0.00     0.084 N 
HETATM   13  C   UNL     1     -38.226 -48.295  14.153  1.00  0.00     0.309 C 
HETATM   14  C   UNL     1     -39.468 -50.257  14.905  1.00  0.00     0.274 C 
HETATM   15  C   UNL     1     -40.426 -50.596  13.759  1.00  0.00     0.062 C 
ENDBRANCH   8   9
ENDBRANCH   4   8
BRANCH   1  16
HETATM   16  N   UNL     1     -44.550 -54.755  14.824  1.00  0.00    -0.286 NA
HETATM   17  H   UNL     1     -45.044 -55.455  14.276  1.00  0.00     0.128 HD
BRANCH  16  18
HETATM   18  C   UNL     1     -45.462 -53.772  15.444  1.00  0.00     0.080 C 
HETATM   19  C   UNL     1     -45.671 -54.157  16.910  1.00  0.00     0.028 C 
BRANCH  18  20
HETATM   20  C   UNL     1     -46.804 -53.717  14.682  1.00  0.00     0.186 C 
BRANCH  20  21
HETATM   21  O   UNL     1     -46.792 -52.683  13.698  1.00  0.00    -0.394 OA
HETATM   22  C   UNL     1     -46.479 -51.427  14.287  1.00  0.00     0.201 C 
ENDBRANCH  20  21
ENDBRANCH  18  20
ENDBRANCH  16  18
ENDBRANCH   1  16
TORSDOF 6
ENDMDL
