MODEL 1
REMARK VINA RESULT:      -6.8      0.000      0.000
REMARK  6 active torsions:
REMARK  status: ('A' for Active; 'I' for Inactive)
REMARK    1  A    between atoms: O_1  and  C_2 
REMARK    2  A    between atoms: C_2  and  C_3 
REMARK    3  A    between atoms: N_12  and  C_13 
REMARK    4  A    between atoms: C_13  and  C_14 
REMARK    5  A    between atoms: C_14  and  O_15 
REMARK    6  A    between atoms: C_14  and  C_16 
ROOT
HETATM    1  C   UNL     1     -39.026 -49.778  12.059  1.00  0.00     0.108 A 
HETATM    2  N   UNL     1     -39.128 -48.626  11.420  1.00  0.00    -0.342 N 
ATOM      3  HN  UNL     1     -38.369 -48.082  11.011  1.00  0.00     0.167 HD
HETATM    4  C   UNL     1     -40.462 -48.313  11.417  1.00  0.00     0.060 A 
HETATM    5  C   UNL     1     -41.110 -47.199  10.860  1.00  0.00     0.032 A 
HETATM    6  C   UNL     1     -42.502 -47.097  10.976  1.00  0.00     0.002 A 
HETATM    7  C   UNL     1     -43.233 -48.087  11.633  1.00  0.00     0.002 A 
HETATM    8  C   UNL     1     -42.604 -49.210  12.188  1.00  0.00     0.032 A 
HETATM    9  C   UNL     1     -41.208 -49.293  12.064  1.00  0.00     0.062 A 
HETATM   10  N   UNL     1     -40.268 -50.222  12.468  1.00  0.00    -0.330 N 
ENDROOT
BRANCH  10  11
HETATM   11  C   UNL     1     -40.560 -51.503  13.097  1.00  0.00     0.167 C 
BRANCH  11  12
HETATM   12  C   UNL     1     -41.338 -52.477  12.191  1.00  0.00     0.171 C 
BRANCH  12  13
HETATM   13  O   UNL     1     -40.473 -53.387  11.506  1.00  0.00    -0.389 OA
HETATM   14  H   UNL     1     -41.027 -54.052  11.064  1.00  0.00     0.210 HD
ENDBRANCH  12  13
BRANCH  12  15
HETATM   15  C   UNL     1     -42.405 -53.283  12.922  1.00  0.00    -0.006 A 
HETATM   16  C   UNL     1     -43.742 -53.172  12.478  1.00  0.00     0.011 A 
HETATM   17  C   UNL     1     -44.770 -53.907  13.073  1.00  0.00     0.001 A 
HETATM   18  C   UNL     1     -44.491 -54.765  14.129  1.00  0.00     0.002 A 
HETATM   19  C   UNL     1     -43.181 -54.887  14.590  1.00  0.00     0.024 A 
HETATM   20  C   UNL     1     -42.147 -54.160  13.989  1.00  0.00     0.043 A 
HETATM   21 CL   UNL     1     -40.553 -54.426  14.605  1.00  0.00    -0.084 Cl
ENDBRANCH  12  15
ENDBRANCH  11  12
ENDBRANCH  10  11
BRANCH   1  22
HETATM   22  C   UNL     1     -37.751 -50.524  12.252  1.00  0.00     0.240 C 
BRANCH  22  23
HETATM   23  O   UNL     1     -37.422 -51.183  11.035  1.00  0.00    -0.393 OA
HETATM   24  H   UNL     1     -38.253 -51.555  10.697  1.00  0.00     0.209 HD
ENDBRANCH  22  23
ENDBRANCH   1  22
TORSDOF 6
ENDMDL
MODEL 2
REMARK VINA RESULT:      -6.5      2.824      5.530
REMARK  6 active torsions:
REMARK  status: ('A' for Active; 'I' for Inactive)
REMARK    1  A    between atoms: O_1  and  C_2 
REMARK    2  A    between atoms: C_2  and  C_3 
REMARK    3  A    between atoms: N_12  and  C_13 
REMARK    4  A    between atoms: C_13  and  C_14 
REMARK    5  A    between atoms: C_14  and  O_15 
REMARK    6  A    between atoms: C_14  and  C_16 
ROOT
HETATM    1  C   UNL     1     -42.284 -53.221  12.963  1.00  0.00     0.108 A 
HETATM    2  N   UNL     1     -43.378 -53.444  12.257  1.00  0.00    -0.342 N 
ATOM      3  HN  UNL     1     -43.461 -54.015  11.417  1.00  0.00     0.167 HD
HETATM    4  C   UNL     1     -44.380 -52.751  12.885  1.00  0.00     0.060 A 
HETATM    5  C   UNL     1     -45.740 -52.660  12.550  1.00  0.00     0.032 A 
HETATM    6  C   UNL     1     -46.587 -51.890  13.356  1.00  0.00     0.002 A 
HETATM    7  C   UNL     1     -46.087 -51.226  14.477  1.00  0.00     0.002 A 
HETATM    8  C   UNL     1     -44.734 -51.313  14.832  1.00  0.00     0.032 A 
HETATM    9  C   UNL     1     -43.901 -52.087  14.009  1.00  0.00     0.062 A 
HETATM   10  N   UNL     1     -42.556 -52.400  14.040  1.00  0.00    -0.330 N 
ENDROOT
BRANCH  10  11
HETATM   11  C   UNL     1     -41.624 -52.034  15.099  1.00  0.00     0.167 C 
BRANCH  11  12
HETATM   12  C   UNL     1     -41.057 -50.608  14.960  1.00  0.00     0.171 C 
BRANCH  12  13
HETATM   13  O   UNL     1     -40.555 -50.102  16.199  1.00  0.00    -0.389 OA
HETATM   14  H   UNL     1     -40.929 -50.640  16.917  1.00  0.00     0.210 HD
ENDBRANCH  12  13
BRANCH  12  15
HETATM   15  C   UNL     1     -39.962 -50.478  13.907  1.00  0.00    -0.006 A 
HETATM   16  C   UNL     1     -38.642 -50.821  14.275  1.00  0.00     0.011 A 
HETATM   17  C   UNL     1     -37.592 -50.764  13.354  1.00  0.00     0.001 A 
HETATM   18  C   UNL     1     -37.832 -50.355  12.049  1.00  0.00     0.002 A 
HETATM   19  C   UNL     1     -39.125 -50.004  11.664  1.00  0.00     0.024 A 
HETATM   20  C   UNL     1     -40.182 -50.071  12.580  1.00  0.00     0.043 A 
HETATM   21 CL   UNL     1     -41.753 -49.664  11.983  1.00  0.00    -0.084 Cl
ENDBRANCH  12  15
ENDBRANCH  11  12
ENDBRANCH  10  11
BRANCH   1  22
HETATM   22  C   UNL     1     -40.955 -53.827  12.670  1.00  0.00     0.240 C 
BRANCH  22  23
HETATM   23  O   UNL     1     -40.516 -53.367  11.397  1.00  0.00    -0.393 OA
HETATM   24  H   UNL     1     -39.545 -53.356  11.435  1.00  0.00     0.209 HD
ENDBRANCH  22  23
ENDBRANCH   1  22
TORSDOF 6
ENDMDL
MODEL 3
REMARK VINA RESULT:      -6.4      2.149      5.637
REMARK  6 active torsions:
REMARK  status: ('A' for Active; 'I' for Inactive)
REMARK    1  A    between atoms: O_1  and  C_2 
REMARK    2  A    between atoms: C_2  and  C_3 
REMARK    3  A    between atoms: N_12  and  C_13 
REMARK    4  A    between atoms: C_13  and  C_14 
REMARK    5  A    between atoms: C_14  and  O_15 
REMARK    6  A    between atoms: C_14  and  C_16 
ROOT
HETATM    1  C   UNL     1     -40.813 -54.130  14.021  1.00  0.00     0.108 A 
HETATM    2  N   UNL     1     -41.650 -54.720  14.855  1.00  0.00    -0.342 N 
ATOM      3  HN  UNL     1     -41.413 -55.229  15.706  1.00  0.00     0.167 HD
HETATM    4  C   UNL     1     -42.904 -54.509  14.343  1.00  0.00     0.060 A 
HETATM    5  C   UNL     1     -44.148 -54.918  14.848  1.00  0.00     0.032 A 
HETATM    6  C   UNL     1     -45.310 -54.573  14.148  1.00  0.00     0.002 A 
HETATM    7  C   UNL     1     -45.233 -53.832  12.969  1.00  0.00     0.002 A 
HETATM    8  C   UNL     1     -44.000 -53.408  12.454  1.00  0.00     0.032 A 
HETATM    9  C   UNL     1     -42.847 -53.766  13.169  1.00  0.00     0.062 A 
HETATM   10  N   UNL     1     -41.498 -53.535  12.980  1.00  0.00    -0.330 N 
ENDROOT
BRANCH  10  11
HETATM   11  C   UNL     1     -40.919 -52.698  11.937  1.00  0.00     0.167 C 
BRANCH  11  12
HETATM   12  C   UNL     1     -40.334 -51.371  12.459  1.00  0.00     0.171 C 
BRANCH  12  13
HETATM   13  O   UNL     1     -39.009 -51.136  11.976  1.00  0.00    -0.389 OA
HETATM   14  H   UNL     1     -38.977 -50.235  11.614  1.00  0.00     0.210 HD
ENDBRANCH  12  13
BRANCH  12  15
HETATM   15  C   UNL     1     -41.188 -50.150  12.138  1.00  0.00    -0.006 A 
HETATM   16  C   UNL     1     -40.894 -49.425  10.962  1.00  0.00     0.011 A 
HETATM   17  C   UNL     1     -41.656 -48.317  10.581  1.00  0.00     0.001 A 
HETATM   18  C   UNL     1     -42.723 -47.901  11.367  1.00  0.00     0.002 A 
HETATM   19  C   UNL     1     -43.028 -48.597  12.536  1.00  0.00     0.024 A 
HETATM   20  C   UNL     1     -42.275 -49.714  12.915  1.00  0.00     0.043 A 
HETATM   21 CL   UNL     1     -42.772 -50.532  14.355  1.00  0.00    -0.084 Cl
ENDBRANCH  12  15
ENDBRANCH  11  12
ENDBRANCH  10  11
BRANCH   1  22
HETATM   22  C   UNL     1     -39.337 -54.062  14.217  1.00  0.00     0.240 C 
BRANCH  22  23
HETATM   23  O   UNL     1     -38.720 -55.006  13.350  1.00  0.00    -0.393 OA
HETATM   24  H   UNL     1     -37.816 -54.683  13.200  1.00  0.00     0.209 HD
ENDBRANCH  22  23
ENDBRANCH   1  22
TORSDOF 6
ENDMDL
MODEL 4
REMARK VINA RESULT:      -6.4      2.949      4.964
REMARK  6 active torsions:
REMARK  status: ('A' for Active; 'I' for Inactive)
REMARK    1  A    between atoms: O_1  and  C_2 
REMARK    2  A    between atoms: C_2  and  C_3 
REMARK    3  A    between atoms: N_12  and  C_13 
REMARK    4  A    between atoms: C_13  and  C_14 
REMARK    5  A    between atoms: C_14  and  O_15 
REMARK    6  A    between atoms: C_14  and  C_16 
ROOT
HETATM    1  C   UNL     1     -40.204 -51.934  13.288  1.00  0.00     0.108 A 
HETATM    2  N   UNL     1     -39.200 -52.735  13.598  1.00  0.00    -0.342 N 
ATOM      3  HN  UNL     1     -38.242 -52.681  13.253  1.00  0.00     0.167 HD
HETATM    4  C   UNL     1     -39.709 -53.654  14.478  1.00  0.00     0.060 A 
HETATM    5  C   UNL     1     -39.061 -54.721  15.120  1.00  0.00     0.032 A 
HETATM    6  C   UNL     1     -39.793 -55.531  15.996  1.00  0.00     0.002 A 
HETATM    7  C   UNL     1     -41.145 -55.282  16.228  1.00  0.00     0.002 A 
HETATM    8  C   UNL     1     -41.808 -54.217  15.602  1.00  0.00     0.032 A 
HETATM    9  C   UNL     1     -41.057 -53.417  14.726  1.00  0.00     0.062 A 
HETATM   10  N   UNL     1     -41.354 -52.311  13.953  1.00  0.00    -0.330 N 
ENDROOT
BRANCH  10  11
HETATM   11  C   UNL     1     -42.624 -51.597  13.949  1.00  0.00     0.167 C 
BRANCH  11  12
HETATM   12  C   UNL     1     -43.632 -52.129  12.911  1.00  0.00     0.171 C 
BRANCH  12  13
HETATM   13  O   UNL     1     -42.988 -52.807  11.830  1.00  0.00    -0.389 OA
HETATM   14  H   UNL     1     -42.407 -52.171  11.380  1.00  0.00     0.210 HD
ENDBRANCH  12  13
BRANCH  12  15
HETATM   15  C   UNL     1     -44.693 -53.052  13.498  1.00  0.00    -0.006 A 
HETATM   16  C   UNL     1     -44.587 -54.436  13.236  1.00  0.00     0.011 A 
HETATM   17  C   UNL     1     -45.499 -55.350  13.770  1.00  0.00     0.001 A 
HETATM   18  C   UNL     1     -46.544 -54.904  14.570  1.00  0.00     0.002 A 
HETATM   19  C   UNL     1     -46.674 -53.543  14.837  1.00  0.00     0.024 A 
HETATM   20  C   UNL     1     -45.755 -52.625  14.313  1.00  0.00     0.043 A 
HETATM   21 CL   UNL     1     -45.980 -50.967  14.749  1.00  0.00    -0.084 Cl
ENDBRANCH  12  15
ENDBRANCH  11  12
ENDBRANCH  10  11
BRANCH   1  22
HETATM   22  C   UNL     1     -40.089 -50.747  12.395  1.00  0.00     0.240 C 
BRANCH  22  23
HETATM   23  O   UNL     1     -40.657 -51.074  11.131  1.00  0.00    -0.393 OA
HETATM   24  H   UNL     1     -39.925 -51.408  10.586  1.00  0.00     0.209 HD
ENDBRANCH  22  23
ENDBRANCH   1  22
TORSDOF 6
ENDMDL
MODEL 5
REMARK VINA RESULT:      -6.2      3.115      4.332
REMARK  6 active torsions:
REMARK  status: ('A' for Active; 'I' for Inactive)
REMARK    1  A    between atoms: O_1  and  C_2 
REMARK    2  A    between atoms: C_2  and  C_3 
REMARK    3  A    between atoms: N_12  and  C_13 
REMARK    4  A    between atoms: C_13  and  C_14 
REMARK    5  A    between atoms: C_14  and  O_15 
REMARK    6  A    between atoms: C_14  and  C_16 
ROOT
HETATM    1  C   UNL     1     -41.294 -48.928  11.346  1.00  0.00     0.108 A 
HETATM    2  N   UNL     1     -40.073 -49.029  10.853  1.00  0.00    -0.342 N 
ATOM      3  HN  UNL     1     -39.730 -48.635   9.977  1.00  0.00     0.167 HD
HETATM    4  C   UNL     1     -39.360 -49.770  11.759  1.00  0.00     0.060 A 
HETATM    5  C   UNL     1     -38.012 -50.159  11.721  1.00  0.00     0.032 A 
HETATM    6  C   UNL     1     -37.495 -50.916  12.778  1.00  0.00     0.002 A 
HETATM    7  C   UNL     1     -38.306 -51.276  13.855  1.00  0.00     0.002 A 
HETATM    8  C   UNL     1     -39.652 -50.890  13.914  1.00  0.00     0.032 A 
HETATM    9  C   UNL     1     -40.152 -50.134  12.842  1.00  0.00     0.062 A 
HETATM   10  N   UNL     1     -41.388 -49.585  12.558  1.00  0.00    -0.330 N 
ENDROOT
BRANCH  10  11
HETATM   11  C   UNL     1     -42.543 -49.590  13.446  1.00  0.00     0.167 C 
BRANCH  11  12
HETATM   12  C   UNL     1     -43.664 -50.549  13.000  1.00  0.00     0.171 C 
BRANCH  12  13
HETATM   13  O   UNL     1     -43.152 -51.794  12.519  1.00  0.00    -0.389 OA
HETATM   14  H   UNL     1     -42.755 -52.266  13.270  1.00  0.00     0.210 HD
ENDBRANCH  12  13
BRANCH  12  15
HETATM   15  C   UNL     1     -44.697 -50.838  14.083  1.00  0.00    -0.006 A 
HETATM   16  C   UNL     1     -44.347 -50.567  15.425  1.00  0.00     0.011 A 
HETATM   17  C   UNL     1     -45.253 -50.770  16.469  1.00  0.00     0.001 A 
HETATM   18  C   UNL     1     -46.526 -51.257  16.201  1.00  0.00     0.002 A 
HETATM   19  C   UNL     1     -46.893 -51.539  14.886  1.00  0.00     0.024 A 
HETATM   20  C   UNL     1     -45.992 -51.326  13.836  1.00  0.00     0.043 A 
HETATM   21 CL   UNL     1     -46.567 -51.660  12.240  1.00  0.00    -0.084 Cl
ENDBRANCH  12  15
ENDBRANCH  11  12
ENDBRANCH  10  11
BRANCH   1  22
HETATM   22  C   UNL     1     -42.398 -48.155  10.712  1.00  0.00     0.240 C 
BRANCH  22  23
HETATM   23  O   UNL     1     -41.829 -47.166   9.861  1.00  0.00    -0.393 OA
HETATM   24  H   UNL     1     -42.567 -46.799   9.346  1.00  0.00     0.209 HD
ENDBRANCH  22  23
ENDBRANCH   1  22
TORSDOF 6
ENDMDL
MODEL 6
REMARK VINA RESULT:      -6.2      2.775      4.980
REMARK  6 active torsions:
REMARK  status: ('A' for Active; 'I' for Inactive)
REMARK    1  A    between atoms: O_1  and  C_2 
REMARK    2  A    between atoms: C_2  and  C_3 
REMARK    3  A    between atoms: N_12  and  C_13 
REMARK    4  A    between atoms: C_13  and  C_14 
REMARK    5  A    between atoms: C_14  and  O_15 
REMARK    6  A    between atoms: C_14  and  C_16 
ROOT
HETATM    1  C   UNL     1     -40.074 -51.920  13.571  1.00  0.00     0.108 A 
HETATM    2  N   UNL     1     -39.524 -52.648  14.526  1.00  0.00    -0.342 N 
ATOM      3  HN  UNL     1     -38.578 -52.560  14.897  1.00  0.00     0.167 HD
HETATM    4  C   UNL     1     -40.483 -53.544  14.920  1.00  0.00     0.060 A 
HETATM    5  C   UNL     1     -40.417 -54.537  15.910  1.00  0.00     0.032 A 
HETATM    6  C   UNL     1     -41.542 -55.336  16.143  1.00  0.00     0.002 A 
HETATM    7  C   UNL     1     -42.711 -55.149  15.406  1.00  0.00     0.002 A 
HETATM    8  C   UNL     1     -42.798 -54.157  14.419  1.00  0.00     0.032 A 
HETATM    9  C   UNL     1     -41.659 -53.367  14.197  1.00  0.00     0.062 A 
HETATM   10  N   UNL     1     -41.375 -52.323  13.339  1.00  0.00    -0.330 N 
ENDROOT
BRANCH  10  11
HETATM   11  C   UNL     1     -42.327 -51.680  12.442  1.00  0.00     0.167 C 
BRANCH  11  12
HETATM   12  C   UNL     1     -43.037 -50.460  13.062  1.00  0.00     0.171 C 
BRANCH  12  13
HETATM   13  O   UNL     1     -43.320 -49.448  12.093  1.00  0.00    -0.389 OA
HETATM   14  H   UNL     1     -43.147 -49.820  11.212  1.00  0.00     0.210 HD
ENDBRANCH  12  13
BRANCH  12  15
HETATM   15  C   UNL     1     -44.330 -50.803  13.794  1.00  0.00    -0.006 A 
HETATM   16  C   UNL     1     -45.444 -51.202  13.022  1.00  0.00     0.011 A 
HETATM   17  C   UNL     1     -46.651 -51.569  13.623  1.00  0.00     0.001 A 
HETATM   18  C   UNL     1     -46.779 -51.537  15.006  1.00  0.00     0.002 A 
HETATM   19  C   UNL     1     -45.696 -51.140  15.788  1.00  0.00     0.024 A 
HETATM   20  C   UNL     1     -44.481 -50.784  15.191  1.00  0.00     0.043 A 
HETATM   21 CL   UNL     1     -43.188 -50.357  16.257  1.00  0.00    -0.084 Cl
ENDBRANCH  12  15
ENDBRANCH  11  12
ENDBRANCH  10  11
BRANCH   1  22
HETATM   22  C   UNL     1     -39.403 -50.780  12.887  1.00  0.00     0.240 C 
BRANCH  22  23
HETATM   23  O   UNL     1     -38.696 -51.280  11.758  1.00  0.00    -0.393 OA
HETATM   24  H   UNL     1     -38.890 -50.670  11.027  1.00  0.00     0.209 HD
ENDBRANCH  22  23
ENDBRANCH   1  22
TORSDOF 6
ENDMDL
MODEL 7
REMARK VINA RESULT:      -6.1      2.641      5.805
REMARK  6 active torsions:
REMARK  status: ('A' for Active; 'I' for Inactive)
REMARK    1  A    between atoms: O_1  and  C_2 
REMARK    2  A    between atoms: C_2  and  C_3 
REMARK    3  A    between atoms: N_12  and  C_13 
REMARK    4  A    between atoms: C_13  and  C_14 
REMARK    5  A    between atoms: C_14  and  O_15 
REMARK    6  A    between atoms: C_14  and  C_16 
ROOT
HETATM    1  C   UNL     1     -42.225 -53.345  13.021  1.00  0.00     0.108 A 
HETATM    2  N   UNL     1     -43.320 -54.073  12.899  1.00  0.00    -0.342 N 
ATOM      3  HN  UNL     1     -43.383 -55.035  12.565  1.00  0.00     0.167 HD
HETATM    4  C   UNL     1     -44.353 -53.275  13.312  1.00  0.00     0.060 A 
HETATM    5  C   UNL     1     -45.724 -53.567  13.390  1.00  0.00     0.032 A 
HETATM    6  C   UNL     1     -46.602 -52.582  13.858  1.00  0.00     0.002 A 
HETATM    7  C   UNL     1     -46.121 -51.331  14.244  1.00  0.00     0.002 A 
HETATM    8  C   UNL     1     -44.756 -51.024  14.181  1.00  0.00     0.032 A 
HETATM    9  C   UNL     1     -43.892 -52.023  13.706  1.00  0.00     0.062 A 
HETATM   10  N   UNL     1     -42.526 -52.089  13.511  1.00  0.00    -0.330 N 
ENDROOT
BRANCH  10  11
HETATM   11  C   UNL     1     -41.566 -51.058  13.883  1.00  0.00     0.167 C 
BRANCH  11  12
HETATM   12  C   UNL     1     -41.143 -50.151  12.710  1.00  0.00     0.171 C 
BRANCH  12  13
HETATM   13  O   UNL     1     -41.755 -50.539  11.478  1.00  0.00    -0.389 OA
HETATM   14  H   UNL     1     -41.108 -51.055  10.970  1.00  0.00     0.210 HD
ENDBRANCH  12  13
BRANCH  12  15
HETATM   15  C   UNL     1     -41.420 -48.671  12.942  1.00  0.00    -0.006 A 
HETATM   16  C   UNL     1     -42.742 -48.207  12.766  1.00  0.00     0.011 A 
HETATM   17  C   UNL     1     -43.082 -46.871  12.996  1.00  0.00     0.001 A 
HETATM   18  C   UNL     1     -42.110 -45.965  13.400  1.00  0.00     0.002 A 
HETATM   19  C   UNL     1     -40.796 -46.397  13.575  1.00  0.00     0.024 A 
HETATM   20  C   UNL     1     -40.454 -47.737  13.356  1.00  0.00     0.043 A 
HETATM   21 CL   UNL     1     -38.808 -48.176  13.652  1.00  0.00    -0.084 Cl
ENDBRANCH  12  15
ENDBRANCH  11  12
ENDBRANCH  10  11
BRANCH   1  22
HETATM   22  C   UNL     1     -40.848 -53.836  12.732  1.00  0.00     0.240 C 
BRANCH  22  23
HETATM   23  O   UNL     1     -40.482 -53.418  11.422  1.00  0.00    -0.393 OA
HETATM   24  H   UNL     1     -41.265 -52.977  11.052  1.00  0.00     0.209 HD
ENDBRANCH  22  23
ENDBRANCH   1  22
TORSDOF 6
ENDMDL
MODEL 8
REMARK VINA RESULT:      -6.0      3.152      4.567
REMARK  6 active torsions:
REMARK  status: ('A' for Active; 'I' for Inactive)
REMARK    1  A    between atoms: O_1  and  C_2 
REMARK    2  A    between atoms: C_2  and  C_3 
REMARK    3  A    between atoms: N_12  and  C_13 
REMARK    4  A    between atoms: C_13  and  C_14 
REMARK    5  A    between atoms: C_14  and  O_15 
REMARK    6  A    between atoms: C_14  and  C_16 
ROOT
HETATM    1  C   UNL     1     -42.362 -50.990  15.182  1.00  0.00     0.108 A 
HETATM    2  N   UNL     1     -43.423 -50.759  15.934  1.00  0.00    -0.342 N 
ATOM      3  HN  UNL     1     -43.432 -50.408  16.891  1.00  0.00     0.167 HD
HETATM    4  C   UNL     1     -44.509 -51.087  15.166  1.00  0.00     0.060 A 
HETATM    5  C   UNL     1     -45.875 -51.018  15.486  1.00  0.00     0.032 A 
HETATM    6  C   UNL     1     -46.816 -51.403  14.524  1.00  0.00     0.002 A 
HETATM    7  C   UNL     1     -46.404 -51.846  13.268  1.00  0.00     0.002 A 
HETATM    8  C   UNL     1     -45.046 -51.914  12.928  1.00  0.00     0.032 A 
HETATM    9  C   UNL     1     -44.118 -51.527  13.906  1.00  0.00     0.062 A 
HETATM   10  N   UNL     1     -42.738 -51.458  13.937  1.00  0.00    -0.330 N 
ENDROOT
BRANCH  10  11
HETATM   11  C   UNL     1     -41.851 -51.709  12.809  1.00  0.00     0.167 C 
BRANCH  11  12
HETATM   12  C   UNL     1     -41.554 -53.203  12.574  1.00  0.00     0.171 C 
BRANCH  12  13
HETATM   13  O   UNL     1     -40.684 -53.413  11.460  1.00  0.00    -0.389 OA
HETATM   14  H   UNL     1     -40.778 -54.338  11.175  1.00  0.00     0.210 HD
ENDBRANCH  12  13
BRANCH  12  15
HETATM   15  C   UNL     1     -40.966 -53.915  13.787  1.00  0.00    -0.006 A 
HETATM   16  C   UNL     1     -39.577 -53.799  14.016  1.00  0.00     0.011 A 
HETATM   17  C   UNL     1     -38.971 -54.391  15.127  1.00  0.00     0.001 A 
HETATM   18  C   UNL     1     -39.734 -55.120  16.031  1.00  0.00     0.002 A 
HETATM   19  C   UNL     1     -41.106 -55.254  15.823  1.00  0.00     0.024 A 
HETATM   20  C   UNL     1     -41.718 -54.652  14.717  1.00  0.00     0.043 A 
HETATM   21 CL   UNL     1     -43.432 -54.839  14.583  1.00  0.00    -0.084 Cl
ENDBRANCH  12  15
ENDBRANCH  11  12
ENDBRANCH  10  11
BRANCH   1  22
HETATM   22  C   UNL     1     -40.958 -50.720  15.599  1.00  0.00     0.240 C 
BRANCH  22  23
HETATM   23  O   UNL     1     -40.627 -49.383  15.240  1.00  0.00    -0.393 OA
HETATM   24  H   UNL     1     -40.987 -49.247  14.348  1.00  0.00     0.209 HD
ENDBRANCH  22  23
ENDBRANCH   1  22
TORSDOF 6
ENDMDL
MODEL 9
REMARK VINA RESULT:      -5.9      2.859      4.639
REMARK  6 active torsions:
REMARK  status: ('A' for Active; 'I' for Inactive)
REMARK    1  A    between atoms: O_1  and  C_2 
REMARK    2  A    between atoms: C_2  and  C_3 
REMARK    3  A    between atoms: N_12  and  C_13 
REMARK    4  A    between atoms: C_13  and  C_14 
REMARK    5  A    between atoms: C_14  and  O_15 
REMARK    6  A    between atoms: C_14  and  C_16 
ROOT
HETATM    1  C   UNL     1     -41.649 -51.904  12.743  1.00  0.00     0.108 A 
HETATM    2  N   UNL     1     -41.428 -50.986  11.819  1.00  0.00    -0.342 N 
ATOM      3  HN  UNL     1     -42.095 -50.631  11.134  1.00  0.00     0.167 HD
HETATM    4  C   UNL     1     -40.119 -50.608  11.968  1.00  0.00     0.060 A 
HETATM    5  C   UNL     1     -39.383 -49.656  11.245  1.00  0.00     0.032 A 
HETATM    6  C   UNL     1     -38.045 -49.430  11.588  1.00  0.00     0.002 A 
HETATM    7  C   UNL     1     -37.453 -50.138  12.634  1.00  0.00     0.002 A 
HETATM    8  C   UNL     1     -38.174 -51.086  13.372  1.00  0.00     0.032 A 
HETATM    9  C   UNL     1     -39.514 -51.301  13.011  1.00  0.00     0.062 A 
HETATM   10  N   UNL     1     -40.511 -52.126  13.493  1.00  0.00    -0.330 N 
ENDROOT
BRANCH  10  11
HETATM   11  C   UNL     1     -40.409 -52.980  14.670  1.00  0.00     0.167 C 
BRANCH  11  12
HETATM   12  C   UNL     1     -40.047 -54.442  14.346  1.00  0.00     0.171 C 
BRANCH  12  13
HETATM   13  O   UNL     1     -38.959 -54.539  13.423  1.00  0.00    -0.389 OA
HETATM   14  H   UNL     1     -38.955 -55.439  13.057  1.00  0.00     0.210 HD
ENDBRANCH  12  13
BRANCH  12  15
HETATM   15  C   UNL     1     -39.715 -55.284  15.573  1.00  0.00    -0.006 A 
HETATM   16  C   UNL     1     -38.358 -55.417  15.940  1.00  0.00     0.011 A 
HETATM   17  C   UNL     1     -37.978 -56.140  17.073  1.00  0.00     0.001 A 
HETATM   18  C   UNL     1     -38.942 -56.755  17.862  1.00  0.00     0.002 A 
HETATM   19  C   UNL     1     -40.287 -56.644  17.517  1.00  0.00     0.024 A 
HETATM   20  C   UNL     1     -40.673 -55.910  16.389  1.00  0.00     0.043 A 
HETATM   21 CL   UNL     1     -42.370 -55.794  16.082  1.00  0.00    -0.084 Cl
ENDBRANCH  12  15
ENDBRANCH  11  12
ENDBRANCH  10  11
BRANCH   1  22
HETATM   22  C   UNL     1     -42.966 -52.559  12.982  1.00  0.00     0.240 C 
BRANCH  22  23
HETATM   23  O   UNL     1     -43.430 -53.107  11.754  1.00  0.00    -0.393 OA
HETATM   24  H   UNL     1     -44.059 -53.807  11.993  1.00  0.00     0.209 HD
ENDBRANCH  22  23
ENDBRANCH   1  22
TORSDOF 6
ENDMDL
