MODEL 1
REMARK VINA RESULT:      -5.7      0.000      0.000
REMARK  6 active torsions:
REMARK  status: ('A' for Active; 'I' for Inactive)
REMARK    1  A    between atoms: C_4  and  C_5 
REMARK    2  A    between atoms: C_5  and  C_6 
REMARK    3  A    between atoms: C_6  and  N_7 
REMARK    4  A    between atoms: N_7  and  S_8 
REMARK    5  A    between atoms: S_8  and  C_11 
REMARK    6  A    between atoms: C_11  and  C_12 
ROOT
HETATM    1  N   UNL     1     -41.625 -50.399  11.341  1.00  0.00    -0.220 NA
HETATM    2  H   UNL     1     -40.732 -50.328  10.850  1.00  0.00     0.139 HD
ENDROOT
BRANCH   1   3
HETATM    3  C   UNL     1     -42.071 -49.052  11.813  1.00  0.00     0.108 C 
BRANCH   3   4
HETATM    4  C   UNL     1     -41.834 -47.980  10.746  1.00  0.00     0.056 C 
BRANCH   4   5
HETATM    5  C   UNL     1     -43.053 -47.780   9.909  1.00  0.00    -0.023 A 
HETATM    6  C   UNL     1     -44.350 -47.567  10.330  1.00  0.00     0.118 A 
HETATM    7  N   UNL     1     -45.095 -47.380   9.202  1.00  0.00    -0.308 N 
HETATM    8  C   UNL     1     -46.504 -47.079   9.130  1.00  0.00     0.177 C 
HETATM    9  N   UNL     1     -44.379 -47.476   8.069  1.00  0.00    -0.310 N 
HETATM   10  C   UNL     1     -43.139 -47.717   8.498  1.00  0.00     0.115 A 
ATOM     11  HN  UNL     1     -44.706 -47.387   7.107  1.00  0.00     0.186 HD
ENDBRANCH   4   5
ENDBRANCH   3   4
ENDBRANCH   1   3
BRANCH   1  12
HETATM   12  S   UNL     1     -41.483 -51.509  12.639  1.00  0.00     0.209 S 
HETATM   13  O   UNL     1     -40.240 -52.210  12.404  1.00  0.00    -0.211 OA
HETATM   14  O   UNL     1     -41.734 -50.774  13.855  1.00  0.00    -0.211 OA
BRANCH  12  15
HETATM   15  C   UNL     1     -42.842 -52.606  12.292  1.00  0.00     0.162 C 
BRANCH  15  16
HETATM   16  C   UNL     1     -44.008 -52.587  13.292  1.00  0.00     0.001 C 
HETATM   17  C   UNL     1     -44.985 -51.411  13.132  1.00  0.00     0.005 C 
HETATM   18  C   UNL     1     -45.973 -51.370  14.302  1.00  0.00     0.000 C 
HETATM   19  C   UNL     1     -46.707 -52.697  14.494  1.00  0.00     0.000 C 
HETATM   20  C   UNL     1     -45.755 -53.891  14.535  1.00  0.00     0.000 C 
HETATM   21  C   UNL     1     -44.802 -53.899  13.339  1.00  0.00     0.005 C 
ENDBRANCH  15  16
ENDBRANCH  12  15
ENDBRANCH   1  12
TORSDOF 6
ENDMDL
MODEL 2
REMARK VINA RESULT:      -5.7      1.819      2.614
REMARK  6 active torsions:
REMARK  status: ('A' for Active; 'I' for Inactive)
REMARK    1  A    between atoms: C_4  and  C_5 
REMARK    2  A    between atoms: C_5  and  C_6 
REMARK    3  A    between atoms: C_6  and  N_7 
REMARK    4  A    between atoms: N_7  and  S_8 
REMARK    5  A    between atoms: S_8  and  C_11 
REMARK    6  A    between atoms: C_11  and  C_12 
ROOT
HETATM    1  N   UNL     1     -41.832 -51.297  11.799  1.00  0.00    -0.220 NA
HETATM    2  H   UNL     1     -41.326 -51.414  10.919  1.00  0.00     0.139 HD
ENDROOT
BRANCH   1   3
HETATM    3  C   UNL     1     -41.556 -49.949  12.385  1.00  0.00     0.108 C 
BRANCH   3   4
HETATM    4  C   UNL     1     -42.673 -48.957  12.051  1.00  0.00     0.056 C 
BRANCH   4   5
HETATM    5  C   UNL     1     -42.142 -47.793  11.284  1.00  0.00    -0.023 A 
HETATM    6  C   UNL     1     -41.024 -47.031  11.556  1.00  0.00     0.118 A 
HETATM    7  N   UNL     1     -40.915 -46.128  10.538  1.00  0.00    -0.308 N 
HETATM    8  C   UNL     1     -39.877 -45.143  10.355  1.00  0.00     0.177 C 
HETATM    9  N   UNL     1     -41.898 -46.233   9.628  1.00  0.00    -0.310 N 
HETATM   10  C   UNL     1     -42.642 -47.244  10.078  1.00  0.00     0.115 A 
ATOM     11  HN  UNL     1     -42.042 -45.670   8.789  1.00  0.00     0.186 HD
ENDBRANCH   4   5
ENDBRANCH   3   4
ENDBRANCH   1   3
BRANCH   1  12
HETATM   12  S   UNL     1     -41.405 -52.557  12.881  1.00  0.00     0.209 S 
HETATM   13  O   UNL     1     -40.542 -53.433  12.121  1.00  0.00    -0.211 OA
HETATM   14  O   UNL     1     -40.979 -51.933  14.111  1.00  0.00    -0.211 OA
BRANCH  12  15
HETATM   15  C   UNL     1     -42.983 -53.351  13.108  1.00  0.00     0.162 C 
BRANCH  15  16
HETATM   16  C   UNL     1     -44.175 -52.430  13.411  1.00  0.00     0.001 C 
HETATM   17  C   UNL     1     -45.460 -52.747  12.630  1.00  0.00     0.005 C 
HETATM   18  C   UNL     1     -46.505 -51.647  12.844  1.00  0.00     0.000 C 
HETATM   19  C   UNL     1     -46.787 -51.390  14.325  1.00  0.00     0.000 C 
HETATM   20  C   UNL     1     -45.509 -51.192  15.139  1.00  0.00     0.000 C 
HETATM   21  C   UNL     1     -44.506 -52.322  14.905  1.00  0.00     0.005 C 
ENDBRANCH  15  16
ENDBRANCH  12  15
ENDBRANCH   1  12
TORSDOF 6
ENDMDL
MODEL 3
REMARK VINA RESULT:      -5.7      3.945      5.482
REMARK  6 active torsions:
REMARK  status: ('A' for Active; 'I' for Inactive)
REMARK    1  A    between atoms: C_4  and  C_5 
REMARK    2  A    between atoms: C_5  and  C_6 
REMARK    3  A    between atoms: C_6  and  N_7 
REMARK    4  A    between atoms: N_7  and  S_8 
REMARK    5  A    between atoms: S_8  and  C_11 
REMARK    6  A    between atoms: C_11  and  C_12 
ROOT
HETATM    1  N   UNL     1     -44.278 -54.611  15.257  1.00  0.00    -0.220 NA
HETATM    2  H   UNL     1     -44.312 -53.872  15.961  1.00  0.00     0.139 HD
ENDROOT
BRANCH   1   3
HETATM    3  C   UNL     1     -42.948 -54.622  14.574  1.00  0.00     0.108 C 
BRANCH   3   4
HETATM    4  C   UNL     1     -42.171 -53.331  14.845  1.00  0.00     0.056 C 
BRANCH   4   5
HETATM    5  C   UNL     1     -41.769 -52.672  13.569  1.00  0.00    -0.023 A 
HETATM    6  C   UNL     1     -41.441 -51.348  13.359  1.00  0.00     0.118 A 
HETATM    7  N   UNL     1     -41.084 -51.241  12.047  1.00  0.00    -0.308 N 
HETATM    8  C   UNL     1     -40.618 -50.059  11.365  1.00  0.00     0.177 C 
HETATM    9  N   UNL     1     -41.174 -52.402  11.375  1.00  0.00    -0.310 N 
HETATM   10  C   UNL     1     -41.588 -53.271  12.299  1.00  0.00     0.115 A 
ATOM     11  HN  UNL     1     -40.974 -52.577  10.391  1.00  0.00     0.186 HD
ENDBRANCH   4   5
ENDBRANCH   3   4
ENDBRANCH   1   3
BRANCH   1  12
HETATM   12  S   UNL     1     -45.562 -54.402  14.140  1.00  0.00     0.209 S 
HETATM   13  O   UNL     1     -45.022 -54.808  12.862  1.00  0.00    -0.211 OA
HETATM   14  O   UNL     1     -46.729 -55.026  14.715  1.00  0.00    -0.211 OA
BRANCH  12  15
HETATM   15  C   UNL     1     -45.738 -52.630  14.160  1.00  0.00     0.162 C 
BRANCH  15  16
HETATM   16  C   UNL     1     -45.911 -51.976  15.540  1.00  0.00     0.001 C 
HETATM   17  C   UNL     1     -44.946 -50.818  15.839  1.00  0.00     0.005 C 
HETATM   18  C   UNL     1     -45.060 -50.389  17.305  1.00  0.00     0.000 C 
HETATM   19  C   UNL     1     -46.497 -50.050  17.703  1.00  0.00     0.000 C 
HETATM   20  C   UNL     1     -47.488 -51.141  17.303  1.00  0.00     0.000 C 
HETATM   21  C   UNL     1     -47.348 -51.523  15.829  1.00  0.00     0.005 C 
ENDBRANCH  15  16
ENDBRANCH  12  15
ENDBRANCH   1  12
TORSDOF 6
ENDMDL
MODEL 4
REMARK VINA RESULT:      -5.5      2.858      3.981
REMARK  6 active torsions:
REMARK  status: ('A' for Active; 'I' for Inactive)
REMARK    1  A    between atoms: C_4  and  C_5 
REMARK    2  A    between atoms: C_5  and  C_6 
REMARK    3  A    between atoms: C_6  and  N_7 
REMARK    4  A    between atoms: N_7  and  S_8 
REMARK    5  A    between atoms: S_8  and  C_11 
REMARK    6  A    between atoms: C_11  and  C_12 
ROOT
HETATM    1  N   UNL     1     -43.880 -51.505  12.551  1.00  0.00    -0.220 NA
HETATM    2  H   UNL     1     -42.951 -51.929  12.508  1.00  0.00     0.139 HD
ENDROOT
BRANCH   1   3
HETATM    3  C   UNL     1     -43.877 -50.338  13.486  1.00  0.00     0.108 C 
BRANCH   3   4
HETATM    4  C   UNL     1     -42.582 -49.531  13.369  1.00  0.00     0.056 C 
BRANCH   4   5
HETATM    5  C   UNL     1     -42.443 -48.936  12.008  1.00  0.00    -0.023 A 
HETATM    6  C   UNL     1     -43.306 -48.073  11.363  1.00  0.00     0.118 A 
HETATM    7  N   UNL     1     -42.719 -47.761  10.171  1.00  0.00    -0.308 N 
HETATM    8  C   UNL     1     -43.220 -46.855   9.165  1.00  0.00     0.177 C 
HETATM    9  N   UNL     1     -41.540 -48.377   9.981  1.00  0.00    -0.310 N 
HETATM   10  C   UNL     1     -41.371 -49.088  11.097  1.00  0.00     0.115 A 
ATOM     11  HN  UNL     1     -40.920 -48.315   9.173  1.00  0.00     0.186 HD
ENDBRANCH   4   5
ENDBRANCH   3   4
ENDBRANCH   1   3
BRANCH   1  12
HETATM   12  S   UNL     1     -45.032 -52.686  13.015  1.00  0.00     0.209 S 
HETATM   13  O   UNL     1     -45.404 -52.341  14.369  1.00  0.00    -0.211 OA
HETATM   14  O   UNL     1     -46.000 -52.775  11.949  1.00  0.00    -0.211 OA
BRANCH  12  15
HETATM   15  C   UNL     1     -44.016 -54.149  13.048  1.00  0.00     0.162 C 
BRANCH  15  16
HETATM   16  C   UNL     1     -42.744 -54.079  13.906  1.00  0.00     0.001 C 
HETATM   17  C   UNL     1     -42.691 -55.075  15.076  1.00  0.00     0.005 C 
HETATM   18  C   UNL     1     -41.494 -54.774  15.984  1.00  0.00     0.000 C 
HETATM   19  C   UNL     1     -40.174 -54.729  15.213  1.00  0.00     0.000 C 
HETATM   20  C   UNL     1     -40.247 -53.836  13.976  1.00  0.00     0.000 C 
HETATM   21  C   UNL     1     -41.447 -54.185  13.094  1.00  0.00     0.005 C 
ENDBRANCH  15  16
ENDBRANCH  12  15
ENDBRANCH   1  12
TORSDOF 6
ENDMDL
MODEL 5
REMARK VINA RESULT:      -5.5      4.258      5.496
REMARK  6 active torsions:
REMARK  status: ('A' for Active; 'I' for Inactive)
REMARK    1  A    between atoms: C_4  and  C_5 
REMARK    2  A    between atoms: C_5  and  C_6 
REMARK    3  A    between atoms: C_6  and  N_7 
REMARK    4  A    between atoms: N_7  and  S_8 
REMARK    5  A    between atoms: S_8  and  C_11 
REMARK    6  A    between atoms: C_11  and  C_12 
ROOT
HETATM    1  N   UNL     1     -42.694 -53.300  15.831  1.00  0.00    -0.220 NA
HETATM    2  H   UNL     1     -43.325 -52.956  15.104  1.00  0.00     0.139 HD
ENDROOT
BRANCH   1   3
HETATM    3  C   UNL     1     -41.563 -54.064  15.222  1.00  0.00     0.108 C 
BRANCH   3   4
HETATM    4  C   UNL     1     -41.729 -54.194  13.705  1.00  0.00     0.056 C 
BRANCH   4   5
HETATM    5  C   UNL     1     -41.162 -53.007  13.002  1.00  0.00    -0.023 A 
HETATM    6  C   UNL     1     -40.037 -52.278  13.330  1.00  0.00     0.118 A 
HETATM    7  N   UNL     1     -39.892 -51.333  12.357  1.00  0.00    -0.308 N 
HETATM    8  C   UNL     1     -38.833 -50.360  12.239  1.00  0.00     0.177 C 
HETATM    9  N   UNL     1     -40.857 -51.380  11.423  1.00  0.00    -0.310 N 
HETATM   10  C   UNL     1     -41.627 -52.397  11.812  1.00  0.00     0.115 A 
ATOM     11  HN  UNL     1     -40.974 -50.778  10.608  1.00  0.00     0.186 HD
ENDBRANCH   4   5
ENDBRANCH   3   4
ENDBRANCH   1   3
BRANCH   1  12
HETATM   12  S   UNL     1     -43.573 -54.254  16.951  1.00  0.00     0.209 S 
HETATM   13  O   UNL     1     -43.167 -55.616  16.690  1.00  0.00    -0.211 OA
HETATM   14  O   UNL     1     -43.414 -53.639  18.247  1.00  0.00    -0.211 OA
BRANCH  12  15
HETATM   15  C   UNL     1     -45.236 -54.020  16.359  1.00  0.00     0.162 C 
BRANCH  15  16
HETATM   16  C   UNL     1     -45.393 -53.198  15.070  1.00  0.00     0.001 C 
HETATM   17  C   UNL     1     -45.351 -54.013  13.768  1.00  0.00     0.005 C 
HETATM   18  C   UNL     1     -45.298 -53.081  12.553  1.00  0.00     0.000 C 
HETATM   19  C   UNL     1     -46.437 -52.061  12.550  1.00  0.00     0.000 C 
HETATM   20  C   UNL     1     -46.569 -51.326  13.882  1.00  0.00     0.000 C 
HETATM   21  C   UNL     1     -46.635 -52.297  15.062  1.00  0.00     0.005 C 
ENDBRANCH  15  16
ENDBRANCH  12  15
ENDBRANCH   1  12
TORSDOF 6
ENDMDL
MODEL 6
REMARK VINA RESULT:      -5.3      4.576      7.777
REMARK  6 active torsions:
REMARK  status: ('A' for Active; 'I' for Inactive)
REMARK    1  A    between atoms: C_4  and  C_5 
REMARK    2  A    between atoms: C_5  and  C_6 
REMARK    3  A    between atoms: C_6  and  N_7 
REMARK    4  A    between atoms: N_7  and  S_8 
REMARK    5  A    between atoms: S_8  and  C_11 
REMARK    6  A    between atoms: C_11  and  C_12 
ROOT
HETATM    1  N   UNL     1     -43.346 -46.429  11.559  1.00  0.00    -0.220 NA
HETATM    2  H   UNL     1     -42.837 -45.831  12.213  1.00  0.00     0.139 HD
ENDROOT
BRANCH   1   3
HETATM    3  C   UNL     1     -43.176 -47.869  11.926  1.00  0.00     0.108 C 
BRANCH   3   4
HETATM    4  C   UNL     1     -42.025 -48.060  12.917  1.00  0.00     0.056 C 
BRANCH   4   5
HETATM    5  C   UNL     1     -40.864 -48.732  12.265  1.00  0.00    -0.023 A 
HETATM    6  C   UNL     1     -39.554 -48.784  12.698  1.00  0.00     0.118 A 
HETATM    7  N   UNL     1     -38.882 -49.563  11.802  1.00  0.00    -0.308 N 
HETATM    8  C   UNL     1     -37.492 -49.947  11.854  1.00  0.00     0.177 C 
HETATM    9  N   UNL     1     -39.657 -50.010  10.799  1.00  0.00    -0.310 N 
HETATM   10  C   UNL     1     -40.860 -49.508  11.081  1.00  0.00     0.115 A 
ATOM     11  HN  UNL     1     -39.388 -50.595  10.008  1.00  0.00     0.186 HD
ENDBRANCH   4   5
ENDBRANCH   3   4
ENDBRANCH   1   3
BRANCH   1  12
HETATM   12  S   UNL     1     -42.814 -46.117   9.960  1.00  0.00     0.209 S 
HETATM   13  O   UNL     1     -42.875 -47.393   9.283  1.00  0.00    -0.211 OA
HETATM   14  O   UNL     1     -43.540 -44.961   9.490  1.00  0.00    -0.211 OA
BRANCH  12  15
HETATM   15  C   UNL     1     -41.108 -45.695  10.251  1.00  0.00     0.162 C 
BRANCH  15  16
HETATM   16  C   UNL     1     -40.835 -44.701  11.390  1.00  0.00     0.001 C 
HETATM   17  C   UNL     1     -39.642 -45.056  12.293  1.00  0.00     0.005 C 
HETATM   18  C   UNL     1     -39.595 -44.127  13.510  1.00  0.00     0.000 C 
HETATM   19  C   UNL     1     -39.592 -42.649  13.117  1.00  0.00     0.000 C 
HETATM   20  C   UNL     1     -40.701 -42.305  12.125  1.00  0.00     0.000 C 
HETATM   21  C   UNL     1     -40.697 -43.248  10.920  1.00  0.00     0.005 C 
ENDBRANCH  15  16
ENDBRANCH  12  15
ENDBRANCH   1  12
TORSDOF 6
ENDMDL
MODEL 7
REMARK VINA RESULT:      -5.3      1.799      2.462
REMARK  6 active torsions:
REMARK  status: ('A' for Active; 'I' for Inactive)
REMARK    1  A    between atoms: C_4  and  C_5 
REMARK    2  A    between atoms: C_5  and  C_6 
REMARK    3  A    between atoms: C_6  and  N_7 
REMARK    4  A    between atoms: N_7  and  S_8 
REMARK    5  A    between atoms: S_8  and  C_11 
REMARK    6  A    between atoms: C_11  and  C_12 
ROOT
HETATM    1  N   UNL     1     -42.051 -49.929  11.569  1.00  0.00    -0.220 NA
HETATM    2  H   UNL     1     -41.124 -50.301  11.354  1.00  0.00     0.139 HD
ENDROOT
BRANCH   1   3
HETATM    3  C   UNL     1     -42.011 -48.435  11.639  1.00  0.00     0.108 C 
BRANCH   3   4
HETATM    4  C   UNL     1     -41.856 -47.815  10.248  1.00  0.00     0.056 C 
BRANCH   4   5
HETATM    5  C   UNL     1     -43.173 -47.724   9.554  1.00  0.00    -0.023 A 
HETATM    6  C   UNL     1     -44.419 -47.524  10.112  1.00  0.00     0.118 A 
HETATM    7  N   UNL     1     -45.300 -47.451   9.073  1.00  0.00    -0.308 N 
HETATM    8  C   UNL     1     -46.720 -47.205   9.151  1.00  0.00     0.177 C 
HETATM    9  N   UNL     1     -44.720 -47.609   7.871  1.00  0.00    -0.310 N 
HETATM   10  C   UNL     1     -43.428 -47.772   8.163  1.00  0.00     0.115 A 
ATOM     11  HN  UNL     1     -45.163 -47.606   6.953  1.00  0.00     0.186 HD
ENDBRANCH   4   5
ENDBRANCH   3   4
ENDBRANCH   1   3
BRANCH   1  12
HETATM   12  S   UNL     1     -42.622 -50.616  13.032  1.00  0.00     0.209 S 
HETATM   13  O   UNL     1     -41.709 -50.151  14.052  1.00  0.00    -0.211 OA
HETATM   14  O   UNL     1     -44.041 -50.361  13.094  1.00  0.00    -0.211 OA
BRANCH  12  15
HETATM   15  C   UNL     1     -42.321 -52.345  12.729  1.00  0.00     0.162 C 
BRANCH  15  16
HETATM   16  C   UNL     1     -42.446 -53.283  13.940  1.00  0.00     0.001 C 
HETATM   17  C   UNL     1     -43.667 -54.217  13.917  1.00  0.00     0.005 C 
HETATM   18  C   UNL     1     -43.811 -54.945  15.258  1.00  0.00     0.000 C 
HETATM   19  C   UNL     1     -42.535 -55.685  15.660  1.00  0.00     0.000 C 
HETATM   20  C   UNL     1     -41.293 -54.801  15.571  1.00  0.00     0.000 C 
HETATM   21  C   UNL     1     -41.183 -54.111  14.211  1.00  0.00     0.005 C 
ENDBRANCH  15  16
ENDBRANCH  12  15
ENDBRANCH   1  12
TORSDOF 6
ENDMDL
MODEL 8
REMARK VINA RESULT:      -5.2      4.194      6.041
REMARK  6 active torsions:
REMARK  status: ('A' for Active; 'I' for Inactive)
REMARK    1  A    between atoms: C_4  and  C_5 
REMARK    2  A    between atoms: C_5  and  C_6 
REMARK    3  A    between atoms: C_6  and  N_7 
REMARK    4  A    between atoms: N_7  and  S_8 
REMARK    5  A    between atoms: S_8  and  C_11 
REMARK    6  A    between atoms: C_11  and  C_12 
ROOT
HETATM    1  N   UNL     1     -43.363 -55.060  17.210  1.00  0.00    -0.220 NA
HETATM    2  H   UNL     1     -43.172 -55.851  17.829  1.00  0.00     0.139 HD
ENDROOT
BRANCH   1   3
HETATM    3  C   UNL     1     -42.684 -55.254  15.892  1.00  0.00     0.108 C 
BRANCH   3   4
HETATM    4  C   UNL     1     -43.690 -55.242  14.738  1.00  0.00     0.056 C 
BRANCH   4   5
HETATM    5  C   UNL     1     -43.317 -54.223  13.714  1.00  0.00    -0.023 A 
HETATM    6  C   UNL     1     -42.167 -53.464  13.646  1.00  0.00     0.118 A 
HETATM    7  N   UNL     1     -42.257 -52.728  12.501  1.00  0.00    -0.308 N 
HETATM    8  C   UNL     1     -41.273 -51.814  11.974  1.00  0.00     0.177 C 
HETATM    9  N   UNL     1     -43.399 -52.937  11.824  1.00  0.00    -0.310 N 
HETATM   10  C   UNL     1     -44.042 -53.846  12.558  1.00  0.00     0.115 A 
ATOM     11  HN  UNL     1     -43.703 -52.502  10.953  1.00  0.00     0.186 HD
ENDBRANCH   4   5
ENDBRANCH   3   4
ENDBRANCH   1   3
BRANCH   1  12
HETATM   12  S   UNL     1     -42.872 -53.604  17.968  1.00  0.00     0.209 S 
HETATM   13  O   UNL     1     -42.628 -53.957  19.348  1.00  0.00    -0.211 OA
HETATM   14  O   UNL     1     -41.853 -53.014  17.132  1.00  0.00    -0.211 OA
BRANCH  12  15
HETATM   15  C   UNL     1     -44.375 -52.652  17.870  1.00  0.00     0.162 C 
BRANCH  15  16
HETATM   16  C   UNL     1     -44.955 -52.436  16.463  1.00  0.00     0.001 C 
HETATM   17  C   UNL     1     -46.434 -52.821  16.302  1.00  0.00     0.005 C 
HETATM   18  C   UNL     1     -46.844 -52.770  14.827  1.00  0.00     0.000 C 
HETATM   19  C   UNL     1     -46.534 -51.419  14.181  1.00  0.00     0.000 C 
HETATM   20  C   UNL     1     -45.098 -50.965  14.435  1.00  0.00     0.000 C 
HETATM   21  C   UNL     1     -44.742 -51.016  15.921  1.00  0.00     0.005 C 
ENDBRANCH  15  16
ENDBRANCH  12  15
ENDBRANCH   1  12
TORSDOF 6
ENDMDL
MODEL 9
REMARK VINA RESULT:      -5.2      2.340      3.186
REMARK  6 active torsions:
REMARK  status: ('A' for Active; 'I' for Inactive)
REMARK    1  A    between atoms: C_4  and  C_5 
REMARK    2  A    between atoms: C_5  and  C_6 
REMARK    3  A    between atoms: C_6  and  N_7 
REMARK    4  A    between atoms: N_7  and  S_8 
REMARK    5  A    between atoms: S_8  and  C_11 
REMARK    6  A    between atoms: C_11  and  C_12 
ROOT
HETATM    1  N   UNL     1     -39.834 -52.027  12.530  1.00  0.00    -0.220 NA
HETATM    2  H   UNL     1     -39.194 -51.725  13.267  1.00  0.00     0.139 HD
ENDROOT
BRANCH   1   3
HETATM    3  C   UNL     1     -40.358 -50.846  11.777  1.00  0.00     0.108 C 
BRANCH   3   4
HETATM    4  C   UNL     1     -40.252 -49.563  12.606  1.00  0.00     0.056 C 
BRANCH   4   5
HETATM    5  C   UNL     1     -40.488 -48.359  11.759  1.00  0.00    -0.023 A 
HETATM    6  C   UNL     1     -39.809 -47.157  11.778  1.00  0.00     0.118 A 
HETATM    7  N   UNL     1     -40.345 -46.395  10.781  1.00  0.00    -0.308 N 
HETATM    8  C   UNL     1     -39.935 -45.071  10.381  1.00  0.00     0.177 C 
HETATM    9  N   UNL     1     -41.344 -47.008  10.123  1.00  0.00    -0.310 N 
HETATM   10  C   UNL     1     -41.429 -48.200  10.715  1.00  0.00     0.115 A 
ATOM     11  HN  UNL     1     -41.905 -46.645   9.352  1.00  0.00     0.186 HD
ENDBRANCH   4   5
ENDBRANCH   3   4
ENDBRANCH   1   3
BRANCH   1  12
HETATM   12  S   UNL     1     -41.102 -52.956  13.213  1.00  0.00     0.209 S 
HETATM   13  O   UNL     1     -40.721 -54.334  13.000  1.00  0.00    -0.211 OA
HETATM   14  O   UNL     1     -41.356 -52.423  14.530  1.00  0.00    -0.211 OA
BRANCH  12  15
HETATM   15  C   UNL     1     -42.445 -52.549  12.116  1.00  0.00     0.162 C 
BRANCH  15  16
HETATM   16  C   UNL     1     -43.857 -52.909  12.601  1.00  0.00     0.001 C 
HETATM   17  C   UNL     1     -43.949 -54.188  13.448  1.00  0.00     0.005 C 
HETATM   18  C   UNL     1     -45.413 -54.567  13.693  1.00  0.00     0.000 C 
HETATM   19  C   UNL     1     -46.218 -53.420  14.304  1.00  0.00     0.000 C 
HETATM   20  C   UNL     1     -46.042 -52.109  13.541  1.00  0.00     0.000 C 
HETATM   21  C   UNL     1     -44.566 -51.765  13.338  1.00  0.00     0.005 C 
ENDBRANCH  15  16
ENDBRANCH  12  15
ENDBRANCH   1  12
TORSDOF 6
ENDMDL
