MODEL 1
REMARK VINA RESULT:      -6.7      0.000      0.000
REMARK  6 active torsions:
REMARK  status: ('A' for Active; 'I' for Inactive)
REMARK    1  A    between atoms: N_8  and  C_9 
REMARK    2  A    between atoms: C_9  and  C_10 
REMARK    3  A    between atoms: C_10  and  O_11 
REMARK    4  A    between atoms: C_10  and  C_12 
REMARK    5  A    between atoms: C_12  and  N_13 
REMARK    6  A    between atoms: C_16  and  C_19 
REMARK       I    between atoms: C_19  and  N_21 
ROOT
HETATM    1  C   UNL     1     -40.145 -50.250  11.676  1.00  0.00     0.164 C 
ENDROOT
BRANCH   1   2
HETATM    2  C   UNL     1     -41.502 -50.315  12.400  1.00  0.00     0.163 C 
BRANCH   2   3
HETATM    3  N   UNL     1     -41.969 -51.681  12.587  1.00  0.00    -0.339 N 
HETATM    4  C   UNL     1     -41.234 -52.801  12.312  1.00  0.00     0.184 A 
HETATM    5  N   UNL     1     -41.893 -53.901  12.601  1.00  0.00    -0.350 N 
HETATM    6  C   UNL     1     -43.103 -53.472  13.087  1.00  0.00     0.060 A 
ATOM      7  HN  UNL     1     -41.574 -54.863  12.487  1.00  0.00     0.166 HD
HETATM    8  C   UNL     1     -44.179 -54.227  13.576  1.00  0.00     0.039 A 
HETATM    9  C   UNL     1     -43.194 -52.084  13.062  1.00  0.00     0.062 A 
HETATM   10  C   UNL     1     -45.338 -53.572  14.038  1.00  0.00    -0.054 A 
HETATM   11  C   UNL     1     -46.462 -54.403  14.597  1.00  0.00     0.049 C 
HETATM   12  C   UNL     1     -45.420 -52.164  13.980  1.00  0.00    -0.054 A 
HETATM   13  C   UNL     1     -44.342 -51.400  13.482  1.00  0.00     0.039 A 
HETATM   14  C   UNL     1     -46.651 -51.443  14.466  1.00  0.00     0.049 C 
ENDBRANCH   2   3
ENDBRANCH   1   2
BRANCH   1  15
HETATM   15  O   UNL     1     -40.335 -50.055  10.266  1.00  0.00    -0.392 OA
HETATM   16  H   UNL     1     -40.984 -49.347  10.132  1.00  0.00     0.210 HD
ENDBRANCH   1  15
BRANCH   1  17
HETATM   17  C   UNL     1     -39.243 -49.102  12.210  1.00  0.00     0.305 C 
BRANCH  17  18
HETATM   18  N   UNL     1     -38.876 -49.233  13.621  1.00  0.00     0.091 N 
HETATM   19  C   UNL     1     -37.882 -50.287  13.863  1.00  0.00     0.273 C 
HETATM   20  C   UNL     1     -37.872 -50.574  15.363  1.00  0.00     0.044 C 
HETATM   21  C   UNL     1     -37.507 -49.327  16.178  1.00  0.00     0.081 C 
HETATM   22  C   UNL     1     -38.310 -48.102  15.713  1.00  0.00     0.044 C 
HETATM   23  C   UNL     1     -38.370 -47.970  14.187  1.00  0.00     0.273 C 
BRANCH  21  24
HETATM   24  C   UNL     1     -36.006 -49.068  16.137  1.00  0.00     0.219 C 
HETATM   25  O   UNL     1     -35.496 -47.965  15.980  1.00  0.00    -0.273 OA
HETATM   26  N   UNL     1     -35.226 -50.173  16.306  1.00  0.00    -0.370 N 
HETATM   27  H   UNL     1     -35.596 -51.070  16.591  1.00  0.00     0.159 HD
HETATM   28  H   UNL     1     -34.224 -50.030  16.351  1.00  0.00     0.159 HD
ENDBRANCH  21  24
ENDBRANCH  17  18
ENDBRANCH   1  17
TORSDOF 6
ENDMDL
MODEL 2
REMARK VINA RESULT:      -6.6      2.940      7.325
REMARK  6 active torsions:
REMARK  status: ('A' for Active; 'I' for Inactive)
REMARK    1  A    between atoms: N_8  and  C_9 
REMARK    2  A    between atoms: C_9  and  C_10 
REMARK    3  A    between atoms: C_10  and  O_11 
REMARK    4  A    between atoms: C_10  and  C_12 
REMARK    5  A    between atoms: C_12  and  N_13 
REMARK    6  A    between atoms: C_16  and  C_19 
REMARK       I    between atoms: C_19  and  N_21 
ROOT
HETATM    1  C   UNL     1     -41.182 -52.640  12.173  1.00  0.00     0.164 C 
ENDROOT
BRANCH   1   2
HETATM    2  C   UNL     1     -40.199 -52.033  13.190  1.00  0.00     0.163 C 
BRANCH   2   3
HETATM    3  N   UNL     1     -39.651 -50.761  12.746  1.00  0.00    -0.339 N 
HETATM    4  C   UNL     1     -38.318 -50.454  12.715  1.00  0.00     0.184 A 
HETATM    5  N   UNL     1     -38.106 -49.246  12.243  1.00  0.00    -0.350 N 
HETATM    6  C   UNL     1     -39.354 -48.754  11.952  1.00  0.00     0.060 A 
ATOM      7  HN  UNL     1     -37.208 -48.776  12.120  1.00  0.00     0.166 HD
HETATM    8  C   UNL     1     -39.710 -47.519  11.391  1.00  0.00     0.039 A 
HETATM    9  C   UNL     1     -40.348 -49.669  12.285  1.00  0.00     0.062 A 
HETATM   10  C   UNL     1     -41.069 -47.220  11.169  1.00  0.00    -0.054 A 
HETATM   11  C   UNL     1     -41.424 -45.906  10.526  1.00  0.00     0.049 C 
HETATM   12  C   UNL     1     -42.063 -48.153  11.538  1.00  0.00    -0.054 A 
HETATM   13  C   UNL     1     -41.710 -49.394  12.110  1.00  0.00     0.039 A 
HETATM   14  C   UNL     1     -43.523 -47.852  11.313  1.00  0.00     0.049 C 
ENDBRANCH   2   3
ENDBRANCH   1   2
BRANCH   1  15
HETATM   15  O   UNL     1     -40.507 -53.573  11.314  1.00  0.00    -0.392 OA
HETATM   16  H   UNL     1     -40.003 -53.078  10.649  1.00  0.00     0.210 HD
ENDBRANCH   1  15
BRANCH   1  17
HETATM   17  C   UNL     1     -42.365 -53.377  12.858  1.00  0.00     0.305 C 
BRANCH  17  18
HETATM   18  N   UNL     1     -43.591 -52.583  12.959  1.00  0.00     0.091 N 
HETATM   19  C   UNL     1     -44.808 -53.369  12.724  1.00  0.00     0.273 C 
HETATM   20  C   UNL     1     -45.952 -52.387  12.483  1.00  0.00     0.044 C 
HETATM   21  C   UNL     1     -46.165 -51.455  13.683  1.00  0.00     0.081 C 
HETATM   22  C   UNL     1     -44.834 -50.864  14.173  1.00  0.00     0.044 C 
HETATM   23  C   UNL     1     -43.712 -51.905  14.261  1.00  0.00     0.273 C 
BRANCH  21  24
HETATM   24  C   UNL     1     -46.912 -52.171  14.802  1.00  0.00     0.219 C 
HETATM   25  O   UNL     1     -47.254 -53.347  14.768  1.00  0.00    -0.273 OA
HETATM   26  N   UNL     1     -47.178 -51.405  15.899  1.00  0.00    -0.370 N 
HETATM   27  H   UNL     1     -46.783 -50.485  16.037  1.00  0.00     0.159 HD
HETATM   28  H   UNL     1     -47.614 -51.865  16.689  1.00  0.00     0.159 HD
ENDBRANCH  21  24
ENDBRANCH  17  18
ENDBRANCH   1  17
TORSDOF 6
ENDMDL
MODEL 3
REMARK VINA RESULT:      -6.6      2.822      7.803
REMARK  6 active torsions:
REMARK  status: ('A' for Active; 'I' for Inactive)
REMARK    1  A    between atoms: N_8  and  C_9 
REMARK    2  A    between atoms: C_9  and  C_10 
REMARK    3  A    between atoms: C_10  and  O_11 
REMARK    4  A    between atoms: C_10  and  C_12 
REMARK    5  A    between atoms: C_12  and  N_13 
REMARK    6  A    between atoms: C_16  and  C_19 
REMARK       I    between atoms: C_19  and  N_21 
ROOT
HETATM    1  C   UNL     1     -41.154 -52.404  12.042  1.00  0.00     0.164 C 
ENDROOT
BRANCH   1   2
HETATM    2  C   UNL     1     -40.083 -51.477  12.645  1.00  0.00     0.163 C 
BRANCH   2   3
HETATM    3  N   UNL     1     -40.173 -50.116  12.137  1.00  0.00    -0.339 N 
HETATM    4  C   UNL     1     -40.713 -49.769  10.929  1.00  0.00     0.184 A 
HETATM    5  N   UNL     1     -40.689 -48.469  10.739  1.00  0.00    -0.350 N 
HETATM    6  C   UNL     1     -40.114 -47.954  11.875  1.00  0.00     0.060 A 
ATOM      7  HN  UNL     1     -41.024 -47.954   9.924  1.00  0.00     0.166 HD
HETATM    8  C   UNL     1     -39.875 -46.616  12.218  1.00  0.00     0.039 A 
HETATM    9  C   UNL     1     -39.750 -48.966  12.759  1.00  0.00     0.062 A 
HETATM   10  C   UNL     1     -39.272 -46.311  13.455  1.00  0.00    -0.054 A 
HETATM   11  C   UNL     1     -39.064 -44.864  13.819  1.00  0.00     0.049 C 
HETATM   12  C   UNL     1     -38.887 -47.353  14.326  1.00  0.00    -0.054 A 
HETATM   13  C   UNL     1     -39.119 -48.703  13.981  1.00  0.00     0.039 A 
HETATM   14  C   UNL     1     -38.237 -47.049  15.652  1.00  0.00     0.049 C 
ENDBRANCH   2   3
ENDBRANCH   1   2
BRANCH   1  15
HETATM   15  O   UNL     1     -40.539 -53.474  11.307  1.00  0.00    -0.392 OA
HETATM   16  H   UNL     1     -39.576 -53.362  11.339  1.00  0.00     0.210 HD
ENDBRANCH   1  15
BRANCH   1  17
HETATM   17  C   UNL     1     -42.079 -53.025  13.124  1.00  0.00     0.305 C 
BRANCH  17  18
HETATM   18  N   UNL     1     -43.422 -52.442  13.174  1.00  0.00     0.091 N 
HETATM   19  C   UNL     1     -44.478 -53.401  12.828  1.00  0.00     0.273 C 
HETATM   20  C   UNL     1     -45.750 -52.603  12.548  1.00  0.00     0.044 C 
HETATM   21  C   UNL     1     -46.183 -51.778  13.767  1.00  0.00     0.081 C 
HETATM   22  C   UNL     1     -44.998 -51.006  14.368  1.00  0.00     0.044 C 
HETATM   23  C   UNL     1     -43.729 -51.857  14.490  1.00  0.00     0.273 C 
BRANCH  21  24
HETATM   24  C   UNL     1     -46.869 -52.658  14.805  1.00  0.00     0.219 C 
HETATM   25  O   UNL     1     -47.055 -52.338  15.973  1.00  0.00    -0.273 OA
HETATM   26  N   UNL     1     -47.297 -53.868  14.343  1.00  0.00    -0.370 N 
HETATM   27  H   UNL     1     -47.306 -54.110  13.362  1.00  0.00     0.159 HD
HETATM   28  H   UNL     1     -47.816 -54.452  14.988  1.00  0.00     0.159 HD
ENDBRANCH  21  24
ENDBRANCH  17  18
ENDBRANCH   1  17
TORSDOF 6
ENDMDL
MODEL 4
REMARK VINA RESULT:      -6.6      4.026      5.621
REMARK  6 active torsions:
REMARK  status: ('A' for Active; 'I' for Inactive)
REMARK    1  A    between atoms: N_8  and  C_9 
REMARK    2  A    between atoms: C_9  and  C_10 
REMARK    3  A    between atoms: C_10  and  O_11 
REMARK    4  A    between atoms: C_10  and  C_12 
REMARK    5  A    between atoms: C_12  and  N_13 
REMARK    6  A    between atoms: C_16  and  C_19 
REMARK       I    between atoms: C_19  and  N_21 
ROOT
HETATM    1  C   UNL     1     -41.433 -53.293  12.846  1.00  0.00     0.164 C 
ENDROOT
BRANCH   1   2
HETATM    2  C   UNL     1     -42.340 -52.053  12.746  1.00  0.00     0.163 C 
BRANCH   2   3
HETATM    3  N   UNL     1     -43.740 -52.364  12.996  1.00  0.00    -0.339 N 
HETATM    4  C   UNL     1     -44.497 -53.217  12.240  1.00  0.00     0.184 A 
HETATM    5  N   UNL     1     -45.718 -53.332  12.710  1.00  0.00    -0.350 N 
HETATM    6  C   UNL     1     -45.750 -52.524  13.820  1.00  0.00     0.060 A 
ATOM      7  HN  UNL     1     -46.478 -53.899  12.332  1.00  0.00     0.166 HD
HETATM    8  C   UNL     1     -46.800 -52.300  14.722  1.00  0.00     0.039 A 
HETATM    9  C   UNL     1     -44.533 -51.879  14.009  1.00  0.00     0.062 A 
HETATM   10  C   UNL     1     -46.609 -51.425  15.809  1.00  0.00    -0.054 A 
HETATM   11  C   UNL     1     -47.738 -51.233  16.788  1.00  0.00     0.049 C 
HETATM   12  C   UNL     1     -45.375 -50.760  15.969  1.00  0.00    -0.054 A 
HETATM   13  C   UNL     1     -44.317 -50.976  15.059  1.00  0.00     0.039 A 
HETATM   14  C   UNL     1     -45.150 -49.817  17.123  1.00  0.00     0.049 C 
ENDBRANCH   2   3
ENDBRANCH   1   2
BRANCH   1  15
HETATM   15  O   UNL     1     -40.618 -53.417  11.670  1.00  0.00    -0.392 OA
HETATM   16  H   UNL     1     -41.157 -53.783  10.952  1.00  0.00     0.210 HD
ENDBRANCH   1  15
BRANCH   1  17
HETATM   17  C   UNL     1     -40.498 -53.244  14.084  1.00  0.00     0.305 C 
BRANCH  17  18
HETATM   18  N   UNL     1     -41.063 -53.855  15.290  1.00  0.00     0.091 N 
HETATM   19  C   UNL     1     -41.545 -52.868  16.264  1.00  0.00     0.273 C 
HETATM   20  C   UNL     1     -41.749 -53.593  17.592  1.00  0.00     0.044 C 
HETATM   21  C   UNL     1     -42.767 -54.734  17.468  1.00  0.00     0.081 C 
HETATM   22  C   UNL     1     -42.479 -55.608  16.237  1.00  0.00     0.044 C 
HETATM   23  C   UNL     1     -42.161 -54.788  14.981  1.00  0.00     0.273 C 
BRANCH  21  24
HETATM   24  C   UNL     1     -44.192 -54.193  17.455  1.00  0.00     0.219 C 
HETATM   25  O   UNL     1     -45.066 -54.555  16.676  1.00  0.00    -0.273 OA
HETATM   26  N   UNL     1     -44.461 -53.253  18.406  1.00  0.00    -0.370 N 
HETATM   27  H   UNL     1     -43.825 -53.039  19.162  1.00  0.00     0.159 HD
HETATM   28  H   UNL     1     -45.415 -52.920  18.471  1.00  0.00     0.159 HD
ENDBRANCH  21  24
ENDBRANCH  17  18
ENDBRANCH   1  17
TORSDOF 6
ENDMDL
MODEL 5
REMARK VINA RESULT:      -6.6      2.566      3.878
REMARK  6 active torsions:
REMARK  status: ('A' for Active; 'I' for Inactive)
REMARK    1  A    between atoms: N_8  and  C_9 
REMARK    2  A    between atoms: C_9  and  C_10 
REMARK    3  A    between atoms: C_10  and  O_11 
REMARK    4  A    between atoms: C_10  and  C_12 
REMARK    5  A    between atoms: C_12  and  N_13 
REMARK    6  A    between atoms: C_16  and  C_19 
REMARK       I    between atoms: C_19  and  N_21 
ROOT
HETATM    1  C   UNL     1     -42.114 -52.770  12.831  1.00  0.00     0.164 C 
ENDROOT
BRANCH   1   2
HETATM    2  C   UNL     1     -43.082 -53.652  13.641  1.00  0.00     0.163 C 
BRANCH   2   3
HETATM    3  N   UNL     1     -44.424 -53.094  13.707  1.00  0.00    -0.339 N 
HETATM    4  C   UNL     1     -45.326 -53.110  12.679  1.00  0.00     0.184 A 
HETATM    5  N   UNL     1     -46.469 -52.561  13.024  1.00  0.00    -0.350 N 
HETATM    6  C   UNL     1     -46.299 -52.179  14.333  1.00  0.00     0.060 A 
ATOM      7  HN  UNL     1     -47.302 -52.443  12.446  1.00  0.00     0.166 HD
HETATM    8  C   UNL     1     -47.215 -51.574  15.204  1.00  0.00     0.039 A 
HETATM    9  C   UNL     1     -45.015 -52.472  14.781  1.00  0.00     0.062 A 
HETATM   10  C   UNL     1     -46.826 -51.271  16.524  1.00  0.00    -0.054 A 
HETATM   11  C   UNL     1     -47.841 -50.661  17.454  1.00  0.00     0.049 C 
HETATM   12  C   UNL     1     -45.511 -51.554  16.952  1.00  0.00    -0.054 A 
HETATM   13  C   UNL     1     -44.582 -52.156  16.075  1.00  0.00     0.039 A 
HETATM   14  C   UNL     1     -45.072 -51.235  18.358  1.00  0.00     0.049 C 
ENDBRANCH   2   3
ENDBRANCH   1   2
BRANCH   1  15
HETATM   15  O   UNL     1     -42.447 -52.807  11.434  1.00  0.00    -0.392 OA
HETATM   16  H   UNL     1     -43.399 -52.970  11.344  1.00  0.00     0.210 HD
ENDBRANCH   1  15
BRANCH   1  17
HETATM   17  C   UNL     1     -42.132 -51.289  13.297  1.00  0.00     0.305 C 
BRANCH  17  18
HETATM   18  N   UNL     1     -40.817 -50.643  13.299  1.00  0.00     0.091 N 
HETATM   19  C   UNL     1     -39.725 -51.562  13.641  1.00  0.00     0.273 C 
HETATM   20  C   UNL     1     -38.499 -50.714  13.975  1.00  0.00     0.044 C 
HETATM   21  C   UNL     1     -38.078 -49.832  12.794  1.00  0.00     0.081 C 
HETATM   22  C   UNL     1     -39.284 -49.097  12.188  1.00  0.00     0.044 C 
HETATM   23  C   UNL     1     -40.508 -50.002  12.009  1.00  0.00     0.273 C 
BRANCH  21  24
HETATM   24  C   UNL     1     -37.327 -50.645  11.746  1.00  0.00     0.219 C 
HETATM   25  O   UNL     1     -36.782 -51.720  11.961  1.00  0.00    -0.273 OA
HETATM   26  N   UNL     1     -37.305 -50.096  10.497  1.00  0.00    -0.370 N 
HETATM   27  H   UNL     1     -37.868 -49.297  10.238  1.00  0.00     0.159 HD
HETATM   28  H   UNL     1     -36.873 -50.640   9.760  1.00  0.00     0.159 HD
ENDBRANCH  21  24
ENDBRANCH  17  18
ENDBRANCH   1  17
TORSDOF 6
ENDMDL
MODEL 6
REMARK VINA RESULT:      -6.6      3.198      4.424
REMARK  6 active torsions:
REMARK  status: ('A' for Active; 'I' for Inactive)
REMARK    1  A    between atoms: N_8  and  C_9 
REMARK    2  A    between atoms: C_9  and  C_10 
REMARK    3  A    between atoms: C_10  and  O_11 
REMARK    4  A    between atoms: C_10  and  C_12 
REMARK    5  A    between atoms: C_12  and  N_13 
REMARK    6  A    between atoms: C_16  and  C_19 
REMARK       I    between atoms: C_19  and  N_21 
ROOT
HETATM    1  C   UNL     1     -40.433 -49.771  11.582  1.00  0.00     0.164 C 
ENDROOT
BRANCH   1   2
HETATM    2  C   UNL     1     -41.858 -49.944  12.137  1.00  0.00     0.163 C 
BRANCH   2   3
HETATM    3  N   UNL     1     -42.211 -51.341  12.343  1.00  0.00    -0.339 N 
HETATM    4  C   UNL     1     -41.420 -52.403  12.003  1.00  0.00     0.184 A 
HETATM    5  N   UNL     1     -41.975 -53.549  12.328  1.00  0.00    -0.350 N 
HETATM    6  C   UNL     1     -43.173 -53.212  12.909  1.00  0.00     0.060 A 
ATOM      7  HN  UNL     1     -41.598 -54.486  12.181  1.00  0.00     0.166 HD
HETATM    8  C   UNL     1     -44.151 -54.046  13.469  1.00  0.00     0.039 A 
HETATM    9  C   UNL     1     -43.365 -51.834  12.905  1.00  0.00     0.062 A 
HETATM   10  C   UNL     1     -45.316 -53.479  14.023  1.00  0.00    -0.054 A 
HETATM   11  C   UNL     1     -46.332 -54.392  14.657  1.00  0.00     0.049 C 
HETATM   12  C   UNL     1     -45.503 -52.080  13.987  1.00  0.00    -0.054 A 
HETATM   13  C   UNL     1     -44.524 -51.237  13.417  1.00  0.00     0.039 A 
HETATM   14  C   UNL     1     -46.743 -51.453  14.571  1.00  0.00     0.049 C 
ENDBRANCH   2   3
ENDBRANCH   1   2
BRANCH   1  15
HETATM   15  O   UNL     1     -40.423 -49.939  10.156  1.00  0.00    -0.392 OA
HETATM   16  H   UNL     1     -40.659 -49.095   9.740  1.00  0.00     0.210 HD
ENDBRANCH   1  15
BRANCH   1  17
HETATM   17  C   UNL     1     -39.833 -48.377  11.913  1.00  0.00     0.305 C 
BRANCH  17  18
HETATM   18  N   UNL     1     -40.821 -47.297  11.974  1.00  0.00     0.091 N 
HETATM   19  C   UNL     1     -40.547 -46.325  13.039  1.00  0.00     0.273 C 
HETATM   20  C   UNL     1     -41.812 -45.494  13.241  1.00  0.00     0.044 C 
HETATM   21  C   UNL     1     -42.216 -44.753  11.960  1.00  0.00     0.081 C 
HETATM   22  C   UNL     1     -42.188 -45.689  10.741  1.00  0.00     0.044 C 
HETATM   23  C   UNL     1     -40.937 -46.574  10.695  1.00  0.00     0.273 C 
BRANCH  21  24
HETATM   24  C   UNL     1     -41.346 -43.520  11.746  1.00  0.00     0.219 C 
HETATM   25  O   UNL     1     -40.844 -43.202  10.675  1.00  0.00    -0.273 OA
HETATM   26  N   UNL     1     -41.158 -42.748  12.855  1.00  0.00    -0.370 N 
HETATM   27  H   UNL     1     -41.674 -42.883  13.713  1.00  0.00     0.159 HD
HETATM   28  H   UNL     1     -40.641 -41.885  12.735  1.00  0.00     0.159 HD
ENDBRANCH  21  24
ENDBRANCH  17  18
ENDBRANCH   1  17
TORSDOF 6
ENDMDL
MODEL 7
REMARK VINA RESULT:      -6.5      3.242      7.806
REMARK  6 active torsions:
REMARK  status: ('A' for Active; 'I' for Inactive)
REMARK    1  A    between atoms: N_8  and  C_9 
REMARK    2  A    between atoms: C_9  and  C_10 
REMARK    3  A    between atoms: C_10  and  O_11 
REMARK    4  A    between atoms: C_10  and  C_12 
REMARK    5  A    between atoms: C_12  and  N_13 
REMARK    6  A    between atoms: C_16  and  C_19 
REMARK       I    between atoms: C_19  and  N_21 
ROOT
HETATM    1  C   UNL     1     -40.215 -51.814  13.132  1.00  0.00     0.164 C 
ENDROOT
BRANCH   1   2
HETATM    2  C   UNL     1     -39.513 -50.444  13.124  1.00  0.00     0.163 C 
BRANCH   2   3
HETATM    3  N   UNL     1     -40.086 -49.530  12.148  1.00  0.00    -0.339 N 
HETATM    4  C   UNL     1     -40.789 -49.913  11.039  1.00  0.00     0.184 A 
HETATM    5  N   UNL     1     -41.213 -48.879  10.348  1.00  0.00    -0.350 N 
HETATM    6  C   UNL     1     -40.770 -47.781  11.043  1.00  0.00     0.060 A 
ATOM      7  HN  UNL     1     -41.754 -48.890   9.483  1.00  0.00     0.166 HD
HETATM    8  C   UNL     1     -40.969 -46.420  10.770  1.00  0.00     0.039 A 
HETATM    9  C   UNL     1     -40.032 -48.156  12.161  1.00  0.00     0.062 A 
HETATM   10  C   UNL     1     -40.423 -45.449  11.633  1.00  0.00    -0.054 A 
HETATM   11  C   UNL     1     -40.688 -43.995  11.342  1.00  0.00     0.049 C 
HETATM   12  C   UNL     1     -39.656 -45.850  12.748  1.00  0.00    -0.054 A 
HETATM   13  C   UNL     1     -39.446 -47.219  13.022  1.00  0.00     0.039 A 
HETATM   14  C   UNL     1     -39.060 -44.828  13.681  1.00  0.00     0.049 C 
ENDBRANCH   2   3
ENDBRANCH   1   2
BRANCH   1  15
HETATM   15  O   UNL     1     -39.287 -52.854  13.478  1.00  0.00    -0.392 OA
HETATM   16  H   UNL     1     -39.649 -53.363  14.220  1.00  0.00     0.210 HD
ENDBRANCH   1  15
BRANCH   1  17
HETATM   17  C   UNL     1     -41.401 -51.866  14.134  1.00  0.00     0.305 C 
BRANCH  17  18
HETATM   18  N   UNL     1     -42.348 -52.957  13.889  1.00  0.00     0.091 N 
HETATM   19  C   UNL     1     -42.763 -53.646  15.117  1.00  0.00     0.273 C 
HETATM   20  C   UNL     1     -43.424 -54.960  14.706  1.00  0.00     0.044 C 
HETATM   21  C   UNL     1     -44.646 -54.727  13.808  1.00  0.00     0.081 C 
HETATM   22  C   UNL     1     -44.329 -53.728  12.683  1.00  0.00     0.044 C 
HETATM   23  C   UNL     1     -43.552 -52.501  13.173  1.00  0.00     0.273 C 
BRANCH  21  24
HETATM   24  C   UNL     1     -45.851 -54.287  14.631  1.00  0.00     0.219 C 
HETATM   25  O   UNL     1     -45.995 -54.513  15.826  1.00  0.00    -0.273 OA
HETATM   26  N   UNL     1     -46.796 -53.588  13.940  1.00  0.00    -0.370 N 
HETATM   27  H   UNL     1     -46.650 -53.246  13.000  1.00  0.00     0.159 HD
HETATM   28  H   UNL     1     -47.579 -53.222  14.468  1.00  0.00     0.159 HD
ENDBRANCH  21  24
ENDBRANCH  17  18
ENDBRANCH   1  17
TORSDOF 6
ENDMDL
MODEL 8
REMARK VINA RESULT:      -6.5      3.575      7.639
REMARK  6 active torsions:
REMARK  status: ('A' for Active; 'I' for Inactive)
REMARK    1  A    between atoms: N_8  and  C_9 
REMARK    2  A    between atoms: C_9  and  C_10 
REMARK    3  A    between atoms: C_10  and  O_11 
REMARK    4  A    between atoms: C_10  and  C_12 
REMARK    5  A    between atoms: C_12  and  N_13 
REMARK    6  A    between atoms: C_16  and  C_19 
REMARK       I    between atoms: C_19  and  N_21 
ROOT
HETATM    1  C   UNL     1     -42.838 -55.091  15.535  1.00  0.00     0.164 C 
ENDROOT
BRANCH   1   2
HETATM    2  C   UNL     1     -41.435 -54.579  15.162  1.00  0.00     0.163 C 
BRANCH   2   3
HETATM    3  N   UNL     1     -41.444 -53.744  13.970  1.00  0.00    -0.339 N 
HETATM    4  C   UNL     1     -42.363 -53.837  12.961  1.00  0.00     0.184 A 
HETATM    5  N   UNL     1     -42.149 -52.942  12.022  1.00  0.00    -0.350 N 
HETATM    6  C   UNL     1     -41.049 -52.238  12.446  1.00  0.00     0.060 A 
ATOM      7  HN  UNL     1     -42.684 -52.801  11.165  1.00  0.00     0.166 HD
HETATM    8  C   UNL     1     -40.410 -51.146  11.843  1.00  0.00     0.039 A 
HETATM    9  C   UNL     1     -40.564 -52.738  13.651  1.00  0.00     0.062 A 
HETATM   10  C   UNL     1     -39.286 -50.566  12.464  1.00  0.00    -0.054 A 
HETATM   11  C   UNL     1     -38.643 -49.367  11.818  1.00  0.00     0.049 C 
HETATM   12  C   UNL     1     -38.795 -51.104  13.673  1.00  0.00    -0.054 A 
HETATM   13  C   UNL     1     -39.430 -52.209  14.281  1.00  0.00     0.039 A 
HETATM   14  C   UNL     1     -37.592 -50.501  14.353  1.00  0.00     0.049 C 
ENDBRANCH   2   3
ENDBRANCH   1   2
BRANCH   1  15
HETATM   15  O   UNL     1     -42.758 -56.403  16.115  1.00  0.00    -0.392 OA
HETATM   16  H   UNL     1     -42.598 -56.314  17.068  1.00  0.00     0.210 HD
ENDBRANCH   1  15
BRANCH   1  17
HETATM   17  C   UNL     1     -43.561 -54.156  16.543  1.00  0.00     0.305 C 
BRANCH  17  18
HETATM   18  N   UNL     1     -44.678 -53.402  15.968  1.00  0.00     0.091 N 
HETATM   19  C   UNL     1     -44.264 -52.126  15.372  1.00  0.00     0.273 C 
HETATM   20  C   UNL     1     -45.523 -51.287  15.161  1.00  0.00     0.044 C 
HETATM   21  C   UNL     1     -46.525 -51.987  14.234  1.00  0.00     0.081 C 
HETATM   22  C   UNL     1     -46.729 -53.455  14.641  1.00  0.00     0.044 C 
HETATM   23  C   UNL     1     -45.415 -54.178  14.956  1.00  0.00     0.273 C 
BRANCH  21  24
HETATM   24  C   UNL     1     -46.100 -51.859  12.776  1.00  0.00     0.219 C 
HETATM   25  O   UNL     1     -46.489 -52.590  11.872  1.00  0.00    -0.273 OA
HETATM   26  N   UNL     1     -45.237 -50.837  12.515  1.00  0.00    -0.370 N 
HETATM   27  H   UNL     1     -45.012 -50.120  13.191  1.00  0.00     0.159 HD
HETATM   28  H   UNL     1     -44.984 -50.680  11.546  1.00  0.00     0.159 HD
ENDBRANCH  21  24
ENDBRANCH  17  18
ENDBRANCH   1  17
TORSDOF 6
ENDMDL
MODEL 9
REMARK VINA RESULT:      -6.5      3.152      7.430
REMARK  6 active torsions:
REMARK  status: ('A' for Active; 'I' for Inactive)
REMARK    1  A    between atoms: N_8  and  C_9 
REMARK    2  A    between atoms: C_9  and  C_10 
REMARK    3  A    between atoms: C_10  and  O_11 
REMARK    4  A    between atoms: C_10  and  C_12 
REMARK    5  A    between atoms: C_12  and  N_13 
REMARK    6  A    between atoms: C_16  and  C_19 
REMARK       I    between atoms: C_19  and  N_21 
ROOT
HETATM    1  C   UNL     1     -40.819 -51.918  12.236  1.00  0.00     0.164 C 
ENDROOT
BRANCH   1   2
HETATM    2  C   UNL     1     -39.527 -51.086  12.338  1.00  0.00     0.163 C 
BRANCH   2   3
HETATM    3  N   UNL     1     -39.779 -49.711  12.741  1.00  0.00    -0.339 N 
HETATM    4  C   UNL     1     -39.252 -49.116  13.854  1.00  0.00     0.184 A 
HETATM    5  N   UNL     1     -39.624 -47.860  13.959  1.00  0.00    -0.350 N 
HETATM    6  C   UNL     1     -40.421 -47.633  12.863  1.00  0.00     0.060 A 
ATOM      7  HN  UNL     1     -39.375 -47.198  14.694  1.00  0.00     0.166 HD
HETATM    8  C   UNL     1     -41.058 -46.450  12.462  1.00  0.00     0.039 A 
HETATM    9  C   UNL     1     -40.563 -48.784  12.095  1.00  0.00     0.062 A 
HETATM   10  C   UNL     1     -41.831 -46.440  11.284  1.00  0.00    -0.054 A 
HETATM   11  C   UNL     1     -42.470 -45.147  10.851  1.00  0.00     0.049 C 
HETATM   12  C   UNL     1     -41.984 -47.626  10.533  1.00  0.00    -0.054 A 
HETATM   13  C   UNL     1     -41.351 -48.822  10.938  1.00  0.00     0.039 A 
HETATM   14  C   UNL     1     -42.810 -47.639   9.272  1.00  0.00     0.049 C 
ENDBRANCH   2   3
ENDBRANCH   1   2
BRANCH   1  15
HETATM   15  O   UNL     1     -40.562 -53.169  11.579  1.00  0.00    -0.392 OA
HETATM   16  H   UNL     1     -39.695 -53.124  11.147  1.00  0.00     0.210 HD
ENDBRANCH   1  15
BRANCH   1  17
HETATM   17  C   UNL     1     -41.443 -52.216  13.627  1.00  0.00     0.305 C 
BRANCH  17  18
HETATM   18  N   UNL     1     -42.448 -53.282  13.618  1.00  0.00     0.091 N 
HETATM   19  C   UNL     1     -42.750 -53.799  14.959  1.00  0.00     0.273 C 
HETATM   20  C   UNL     1     -43.496 -55.120  14.785  1.00  0.00     0.044 C 
HETATM   21  C   UNL     1     -44.801 -54.937  13.998  1.00  0.00     0.081 C 
HETATM   22  C   UNL     1     -44.575 -54.096  12.731  1.00  0.00     0.044 C 
HETATM   23  C   UNL     1     -43.707 -52.858  12.981  1.00  0.00     0.273 C 
BRANCH  21  24
HETATM   24  C   UNL     1     -45.892 -54.345  14.881  1.00  0.00     0.219 C 
HETATM   25  O   UNL     1     -45.935 -54.455  16.101  1.00  0.00    -0.273 OA
HETATM   26  N   UNL     1     -46.855 -53.644  14.217  1.00  0.00    -0.370 N 
HETATM   27  H   UNL     1     -46.779 -53.396  13.239  1.00  0.00     0.159 HD
HETATM   28  H   UNL     1     -47.560 -53.181  14.777  1.00  0.00     0.159 HD
ENDBRANCH  21  24
ENDBRANCH  17  18
ENDBRANCH   1  17
TORSDOF 6
ENDMDL
