MODEL 1
REMARK VINA RESULT:      -6.0      0.000      0.000
REMARK  5 active torsions:
REMARK  status: ('A' for Active; 'I' for Inactive)
REMARK    1  A    between atoms: C_2  and  C_3 
REMARK    2  A    between atoms: C_2  and  N_15 
REMARK       I    between atoms: C_3  and  N_5 
REMARK    3  A    between atoms: N_5  and  C_6 
REMARK    4  A    between atoms: C_6  and  C_7 
REMARK    5  A    between atoms: N_10  and  C_12 
ROOT
HETATM    1  C   UNL     1     -40.247 -50.952  12.190  1.00  0.00     0.242 C 
HETATM    2  O   UNL     1     -39.778 -51.041  13.322  1.00  0.00    -0.271 OA
HETATM    3  N   UNL     1     -40.943 -51.992  11.602  1.00  0.00    -0.359 N 
HETATM    4  H   UNL     1     -41.485 -51.781  10.764  1.00  0.00     0.162 HD
ENDROOT
BRANCH   1   5
HETATM    5  C   UNL     1     -40.050 -49.719  11.313  1.00  0.00     0.196 C 
HETATM    6  C   UNL     1     -38.975 -48.796  11.890  1.00  0.00     0.044 C 
BRANCH   5   7
HETATM    7  N   UNL     1     -41.320 -49.047  11.089  1.00  0.00    -0.273 N 
HETATM    8  C   UNL     1     -42.408 -48.964  11.902  1.00  0.00     0.202 A 
HETATM    9  N   UNL     1     -43.334 -48.235  11.324  1.00  0.00    -0.346 N 
HETATM   10  C   UNL     1     -42.767 -47.899  10.130  1.00  0.00     0.198 A 
ATOM     11  HN  UNL     1     -44.255 -47.980  11.681  1.00  0.00     0.167 HD
HETATM   12  N   UNL     1     -41.542 -48.393   9.925  1.00  0.00    -0.292 N 
ATOM     13  HN  UNL     1     -40.936 -48.302   9.109  1.00  0.00     0.188 HD
ENDBRANCH   5   7
ENDBRANCH   1   5
BRANCH   3  14
HETATM   14  C   UNL     1     -41.238 -53.193  12.359  1.00  0.00     0.129 C 
BRANCH  14  15
HETATM   15  C   UNL     1     -42.502 -53.067  13.197  1.00  0.00     0.033 C 
HETATM   16  C   UNL     1     -42.790 -54.279  14.078  1.00  0.00     0.038 C 
HETATM   17  C   UNL     1     -44.310 -54.420  14.075  1.00  0.00     0.273 C 
HETATM   18  N   UNL     1     -44.855 -53.322  13.264  1.00  0.00     0.093 N 
HETATM   19  C   UNL     1     -43.762 -52.961  12.343  1.00  0.00     0.279 C 
BRANCH  18  20
HETATM   20  C   UNL     1     -45.313 -52.172  14.067  1.00  0.00     0.223 A 
HETATM   21  C   UNL     1     -46.491 -52.303  14.993  1.00  0.00     0.038 A 
HETATM   22  C   UNL     1     -46.639 -51.549  13.704  1.00  0.00     0.038 A 
ENDBRANCH  18  20
ENDBRANCH  14  15
ENDBRANCH   3  14
TORSDOF 5
ENDMDL
MODEL 2
REMARK VINA RESULT:      -5.9      1.922      2.634
REMARK  5 active torsions:
REMARK  status: ('A' for Active; 'I' for Inactive)
REMARK    1  A    between atoms: C_2  and  C_3 
REMARK    2  A    between atoms: C_2  and  N_15 
REMARK       I    between atoms: C_3  and  N_5 
REMARK    3  A    between atoms: N_5  and  C_6 
REMARK    4  A    between atoms: C_6  and  C_7 
REMARK    5  A    between atoms: N_10  and  C_12 
ROOT
HETATM    1  C   UNL     1     -41.707 -48.866  11.192  1.00  0.00     0.242 C 
HETATM    2  O   UNL     1     -40.631 -49.333  10.822  1.00  0.00    -0.271 OA
HETATM    3  N   UNL     1     -42.579 -49.581  11.992  1.00  0.00    -0.359 N 
HETATM    4  H   UNL     1     -43.339 -49.065  12.436  1.00  0.00     0.162 HD
ENDROOT
BRANCH   1   5
HETATM    5  C   UNL     1     -42.200 -47.491  10.751  1.00  0.00     0.196 C 
HETATM    6  C   UNL     1     -42.826 -46.727  11.919  1.00  0.00     0.044 C 
BRANCH   5   7
HETATM    7  N   UNL     1     -43.088 -47.614   9.607  1.00  0.00    -0.273 N 
HETATM    8  C   UNL     1     -44.422 -47.358   9.517  1.00  0.00     0.202 A 
HETATM    9  N   UNL     1     -44.830 -47.574   8.288  1.00  0.00    -0.346 N 
HETATM   10  C   UNL     1     -43.696 -47.983   7.650  1.00  0.00     0.198 A 
ATOM     11  HN  UNL     1     -45.767 -47.461   7.903  1.00  0.00     0.167 HD
HETATM   12  N   UNL     1     -42.605 -48.050   8.420  1.00  0.00    -0.292 N 
ATOM     13  HN  UNL     1     -41.660 -48.349   8.178  1.00  0.00     0.188 HD
ENDBRANCH   5   7
ENDBRANCH   1   5
BRANCH   3  14
HETATM   14  C   UNL     1     -42.194 -50.877  12.516  1.00  0.00     0.129 C 
BRANCH  14  15
HETATM   15  C   UNL     1     -43.339 -51.593  13.218  1.00  0.00     0.033 C 
HETATM   16  C   UNL     1     -43.774 -52.888  12.540  1.00  0.00     0.038 C 
HETATM   17  C   UNL     1     -45.289 -52.943  12.723  1.00  0.00     0.273 C 
HETATM   18  N   UNL     1     -45.684 -51.758  13.497  1.00  0.00     0.093 N 
HETATM   19  C   UNL     1     -44.623 -50.769  13.233  1.00  0.00     0.279 C 
BRANCH  18  20
HETATM   20  C   UNL     1     -45.852 -52.030  14.938  1.00  0.00     0.223 A 
HETATM   21  C   UNL     1     -46.869 -53.027  15.419  1.00  0.00     0.038 A 
HETATM   22  C   UNL     1     -47.125 -51.559  15.596  1.00  0.00     0.038 A 
ENDBRANCH  18  20
ENDBRANCH  14  15
ENDBRANCH   3  14
TORSDOF 5
ENDMDL
MODEL 3
REMARK VINA RESULT:      -5.8      3.911      5.599
REMARK  5 active torsions:
REMARK  status: ('A' for Active; 'I' for Inactive)
REMARK    1  A    between atoms: C_2  and  C_3 
REMARK    2  A    between atoms: C_2  and  N_15 
REMARK       I    between atoms: C_3  and  N_5 
REMARK    3  A    between atoms: N_5  and  C_6 
REMARK    4  A    between atoms: C_6  and  C_7 
REMARK    5  A    between atoms: N_10  and  C_12 
ROOT
HETATM    1  C   UNL     1     -41.994 -48.520  10.942  1.00  0.00     0.242 C 
HETATM    2  O   UNL     1     -42.691 -48.757  11.927  1.00  0.00    -0.271 OA
HETATM    3  N   UNL     1     -40.878 -49.277  10.637  1.00  0.00    -0.359 N 
HETATM    4  H   UNL     1     -40.478 -49.169   9.705  1.00  0.00     0.162 HD
ENDROOT
BRANCH   1   5
HETATM    5  C   UNL     1     -42.259 -47.339  10.013  1.00  0.00     0.196 C 
HETATM    6  C   UNL     1     -42.061 -46.008  10.741  1.00  0.00     0.044 C 
BRANCH   5   7
HETATM    7  N   UNL     1     -43.569 -47.464   9.396  1.00  0.00    -0.273 N 
HETATM    8  C   UNL     1     -43.892 -47.790   8.114  1.00  0.00     0.202 A 
HETATM    9  N   UNL     1     -45.198 -47.818   7.984  1.00  0.00    -0.346 N 
HETATM   10  C   UNL     1     -45.643 -47.480   9.228  1.00  0.00     0.198 A 
ATOM     11  HN  UNL     1     -45.747 -48.039   7.153  1.00  0.00     0.167 HD
HETATM   12  N   UNL     1     -44.685 -47.228  10.125  1.00  0.00    -0.292 N 
ATOM     13  HN  UNL     1     -44.771 -46.935  11.098  1.00  0.00     0.188 HD
ENDBRANCH   5   7
ENDBRANCH   1   5
BRANCH   3  14
HETATM   14  C   UNL     1     -40.559 -50.456  11.418  1.00  0.00     0.129 C 
BRANCH  14  15
HETATM   15  C   UNL     1     -39.436 -50.216  12.417  1.00  0.00     0.033 C 
HETATM   16  C   UNL     1     -38.037 -50.313  11.817  1.00  0.00     0.038 C 
HETATM   17  C   UNL     1     -37.179 -50.947  12.908  1.00  0.00     0.273 C 
HETATM   18  N   UNL     1     -38.041 -51.164  14.078  1.00  0.00     0.093 N 
HETATM   19  C   UNL     1     -39.404 -51.265  13.524  1.00  0.00     0.279 C 
BRANCH  18  20
HETATM   20  C   UNL     1     -37.927 -50.100  15.095  1.00  0.00     0.223 A 
HETATM   21  C   UNL     1     -36.586 -49.710  15.652  1.00  0.00     0.038 A 
HETATM   22  C   UNL     1     -37.539 -50.507  16.495  1.00  0.00     0.038 A 
ENDBRANCH  18  20
ENDBRANCH  14  15
ENDBRANCH   3  14
TORSDOF 5
ENDMDL
MODEL 4
REMARK VINA RESULT:      -5.8      2.103      2.931
REMARK  5 active torsions:
REMARK  status: ('A' for Active; 'I' for Inactive)
REMARK    1  A    between atoms: C_2  and  C_3 
REMARK    2  A    between atoms: C_2  and  N_15 
REMARK       I    between atoms: C_3  and  N_5 
REMARK    3  A    between atoms: N_5  and  C_6 
REMARK    4  A    between atoms: C_6  and  C_7 
REMARK    5  A    between atoms: N_10  and  C_12 
ROOT
HETATM    1  C   UNL     1     -40.053 -52.961  13.385  1.00  0.00     0.242 C 
HETATM    2  O   UNL     1     -40.412 -53.192  12.232  1.00  0.00    -0.271 OA
HETATM    3  N   UNL     1     -40.725 -53.476  14.478  1.00  0.00    -0.359 N 
HETATM    4  H   UNL     1     -40.256 -53.427  15.383  1.00  0.00     0.162 HD
ENDROOT
BRANCH   1   5
HETATM    5  C   UNL     1     -38.883 -52.038  13.711  1.00  0.00     0.196 C 
HETATM    6  C   UNL     1     -38.924 -51.586  15.172  1.00  0.00     0.044 C 
BRANCH   5   7
HETATM    7  N   UNL     1     -38.834 -50.929  12.771  1.00  0.00    -0.273 N 
HETATM    8  C   UNL     1     -37.780 -50.444  12.060  1.00  0.00     0.202 A 
HETATM    9  N   UNL     1     -38.180 -49.448  11.305  1.00  0.00    -0.346 N 
HETATM   10  C   UNL     1     -39.507 -49.344  11.601  1.00  0.00     0.198 A 
ATOM     11  HN  UNL     1     -37.630 -48.888  10.653  1.00  0.00     0.167 HD
HETATM   12  N   UNL     1     -39.954 -50.213  12.514  1.00  0.00    -0.292 N 
ATOM     13  HN  UNL     1     -40.889 -50.309  12.911  1.00  0.00     0.188 HD
ENDBRANCH   5   7
ENDBRANCH   1   5
BRANCH   3  14
HETATM   14  C   UNL     1     -41.820 -54.408  14.290  1.00  0.00     0.129 C 
BRANCH  14  15
HETATM   15  C   UNL     1     -43.173 -53.718  14.196  1.00  0.00     0.033 C 
HETATM   16  C   UNL     1     -44.257 -54.350  15.062  1.00  0.00     0.038 C 
HETATM   17  C   UNL     1     -45.541 -54.224  14.246  1.00  0.00     0.273 C 
HETATM   18  N   UNL     1     -45.206 -53.524  12.999  1.00  0.00     0.093 N 
HETATM   19  C   UNL     1     -43.771 -53.792  12.794  1.00  0.00     0.279 C 
BRANCH  18  20
HETATM   20  C   UNL     1     -45.506 -52.079  13.041  1.00  0.00     0.223 A 
HETATM   21  C   UNL     1     -46.694 -51.562  13.804  1.00  0.00     0.038 A 
HETATM   22  C   UNL     1     -46.731 -51.596  12.304  1.00  0.00     0.038 A 
ENDBRANCH  18  20
ENDBRANCH  14  15
ENDBRANCH   3  14
TORSDOF 5
ENDMDL
MODEL 5
REMARK VINA RESULT:      -5.7      2.237      3.431
REMARK  5 active torsions:
REMARK  status: ('A' for Active; 'I' for Inactive)
REMARK    1  A    between atoms: C_2  and  C_3 
REMARK    2  A    between atoms: C_2  and  N_15 
REMARK       I    between atoms: C_3  and  N_5 
REMARK    3  A    between atoms: N_5  and  C_6 
REMARK    4  A    between atoms: C_6  and  C_7 
REMARK    5  A    between atoms: N_10  and  C_12 
ROOT
HETATM    1  C   UNL     1     -42.023 -47.572  11.244  1.00  0.00     0.242 C 
HETATM    2  O   UNL     1     -41.446 -47.141  12.241  1.00  0.00    -0.271 OA
HETATM    3  N   UNL     1     -42.326 -48.913  11.097  1.00  0.00    -0.359 N 
HETATM    4  H   UNL     1     -42.987 -49.168  10.363  1.00  0.00     0.162 HD
ENDROOT
BRANCH   1   5
HETATM    5  C   UNL     1     -42.396 -46.683  10.062  1.00  0.00     0.196 C 
HETATM    6  C   UNL     1     -42.493 -45.215  10.483  1.00  0.00     0.044 C 
BRANCH   5   7
HETATM    7  N   UNL     1     -43.604 -47.174   9.419  1.00  0.00    -0.273 N 
HETATM    8  C   UNL     1     -43.763 -47.721   8.182  1.00  0.00     0.202 A 
HETATM    9  N   UNL     1     -45.020 -48.057   8.009  1.00  0.00    -0.346 N 
HETATM   10  C   UNL     1     -45.609 -47.678   9.179  1.00  0.00     0.198 A 
ATOM     11  HN  UNL     1     -45.451 -48.497   7.196  1.00  0.00     0.167 HD
HETATM   12  N   UNL     1     -44.790 -47.108  10.068  1.00  0.00    -0.292 N 
ATOM     13  HN  UNL     1     -45.002 -46.724  10.989  1.00  0.00     0.188 HD
ENDBRANCH   5   7
ENDBRANCH   1   5
BRANCH   3  14
HETATM   14  C   UNL     1     -42.067 -49.844  12.178  1.00  0.00     0.129 C 
BRANCH  14  15
HETATM   15  C   UNL     1     -43.309 -50.153  13.000  1.00  0.00     0.033 C 
HETATM   16  C   UNL     1     -43.287 -49.567  14.409  1.00  0.00     0.038 C 
HETATM   17  C   UNL     1     -43.979 -50.609  15.284  1.00  0.00     0.273 C 
HETATM   18  N   UNL     1     -44.403 -51.711  14.409  1.00  0.00     0.093 N 
HETATM   19  C   UNL     1     -43.485 -51.647  13.257  1.00  0.00     0.279 C 
BRANCH  18  20
HETATM   20  C   UNL     1     -45.819 -51.623  14.002  1.00  0.00     0.223 A 
HETATM   21  C   UNL     1     -46.898 -51.387  15.023  1.00  0.00     0.038 A 
HETATM   22  C   UNL     1     -46.736 -52.748  14.414  1.00  0.00     0.038 A 
ENDBRANCH  18  20
ENDBRANCH  14  15
ENDBRANCH   3  14
TORSDOF 5
ENDMDL
MODEL 6
REMARK VINA RESULT:      -5.4      2.626      4.143
REMARK  5 active torsions:
REMARK  status: ('A' for Active; 'I' for Inactive)
REMARK    1  A    between atoms: C_2  and  C_3 
REMARK    2  A    between atoms: C_2  and  N_15 
REMARK       I    between atoms: C_3  and  N_5 
REMARK    3  A    between atoms: N_5  and  C_6 
REMARK    4  A    between atoms: C_6  and  C_7 
REMARK    5  A    between atoms: N_10  and  C_12 
ROOT
HETATM    1  C   UNL     1     -42.635 -48.614  11.831  1.00  0.00     0.242 C 
HETATM    2  O   UNL     1     -43.036 -47.980  12.805  1.00  0.00    -0.271 OA
HETATM    3  N   UNL     1     -42.449 -49.983  11.875  1.00  0.00    -0.359 N 
HETATM    4  H   UNL     1     -42.327 -50.470  10.987  1.00  0.00     0.162 HD
ENDROOT
BRANCH   1   5
HETATM    5  C   UNL     1     -42.245 -47.942  10.518  1.00  0.00     0.196 C 
HETATM    6  C   UNL     1     -41.164 -46.882  10.737  1.00  0.00     0.044 C 
BRANCH   5   7
HETATM    7  N   UNL     1     -43.425 -47.425   9.844  1.00  0.00    -0.273 N 
HETATM    8  C   UNL     1     -43.529 -46.413   8.939  1.00  0.00     0.202 A 
HETATM    9  N   UNL     1     -44.779 -46.292   8.557  1.00  0.00    -0.346 N 
HETATM   10  C   UNL     1     -45.421 -47.256   9.278  1.00  0.00     0.198 A 
ATOM     11  HN  UNL     1     -45.175 -45.636   7.884  1.00  0.00     0.167 HD
HETATM   12  N   UNL     1     -44.640 -47.963  10.101  1.00  0.00    -0.292 N 
ATOM     13  HN  UNL     1     -44.893 -48.708  10.750  1.00  0.00     0.188 HD
ENDBRANCH   5   7
ENDBRANCH   1   5
BRANCH   3  14
HETATM   14  C   UNL     1     -42.836 -50.735  13.053  1.00  0.00     0.129 C 
BRANCH  14  15
HETATM   15  C   UNL     1     -41.897 -51.896  13.347  1.00  0.00     0.033 C 
HETATM   16  C   UNL     1     -42.394 -53.245  12.836  1.00  0.00     0.038 C 
HETATM   17  C   UNL     1     -41.949 -54.257  13.889  1.00  0.00     0.273 C 
HETATM   18  N   UNL     1     -41.207 -53.522  14.923  1.00  0.00     0.093 N 
HETATM   19  C   UNL     1     -41.720 -52.143  14.842  1.00  0.00     0.279 C 
BRANCH  18  20
HETATM   20  C   UNL     1     -39.742 -53.587  14.748  1.00  0.00     0.223 A 
HETATM   21  C   UNL     1     -39.091 -54.812  14.170  1.00  0.00     0.038 A 
HETATM   22  C   UNL     1     -38.972 -54.530  15.639  1.00  0.00     0.038 A 
ENDBRANCH  18  20
ENDBRANCH  14  15
ENDBRANCH   3  14
TORSDOF 5
ENDMDL
MODEL 7
REMARK VINA RESULT:      -5.4      1.720      1.999
REMARK  5 active torsions:
REMARK  status: ('A' for Active; 'I' for Inactive)
REMARK    1  A    between atoms: C_2  and  C_3 
REMARK    2  A    between atoms: C_2  and  N_15 
REMARK       I    between atoms: C_3  and  N_5 
REMARK    3  A    between atoms: N_5  and  C_6 
REMARK    4  A    between atoms: C_6  and  C_7 
REMARK    5  A    between atoms: N_10  and  C_12 
ROOT
HETATM    1  C   UNL     1     -39.284 -51.130  12.522  1.00  0.00     0.242 C 
HETATM    2  O   UNL     1     -38.605 -51.422  13.504  1.00  0.00    -0.271 OA
HETATM    3  N   UNL     1     -40.347 -51.912  12.109  1.00  0.00    -0.359 N 
HETATM    4  H   UNL     1     -40.994 -51.506  11.432  1.00  0.00     0.162 HD
ENDROOT
BRANCH   1   5
HETATM    5  C   UNL     1     -38.977 -49.924  11.640  1.00  0.00     0.196 C 
HETATM    6  C   UNL     1     -37.489 -49.858  11.292  1.00  0.00     0.044 C 
BRANCH   5   7
HETATM    7  N   UNL     1     -39.474 -48.705  12.257  1.00  0.00    -0.273 N 
HETATM    8  C   UNL     1     -39.878 -47.544  11.673  1.00  0.00     0.202 A 
HETATM    9  N   UNL     1     -40.283 -46.704  12.597  1.00  0.00    -0.346 N 
HETATM   10  C   UNL     1     -40.091 -47.399  13.755  1.00  0.00     0.198 A 
ATOM     11  HN  UNL     1     -40.652 -45.761  12.478  1.00  0.00     0.167 HD
HETATM   12  N   UNL     1     -39.574 -48.622  13.604  1.00  0.00    -0.292 N 
ATOM     13  HN  UNL     1     -39.321 -49.309  14.315  1.00  0.00     0.188 HD
ENDBRANCH   5   7
ENDBRANCH   1   5
BRANCH   3  14
HETATM   14  C   UNL     1     -40.765 -53.054  12.900  1.00  0.00     0.129 C 
BRANCH  14  15
HETATM   15  C   UNL     1     -42.206 -52.945  13.377  1.00  0.00     0.033 C 
HETATM   16  C   UNL     1     -42.723 -54.192  14.088  1.00  0.00     0.038 C 
HETATM   17  C   UNL     1     -44.188 -54.307  13.675  1.00  0.00     0.273 C 
HETATM   18  N   UNL     1     -44.493 -53.164  12.803  1.00  0.00     0.093 N 
HETATM   19  C   UNL     1     -43.193 -52.778  12.225  1.00  0.00     0.279 C 
BRANCH  18  20
HETATM   20  C   UNL     1     -45.144 -52.045  13.513  1.00  0.00     0.223 A 
HETATM   21  C   UNL     1     -46.411 -52.263  14.293  1.00  0.00     0.038 A 
HETATM   22  C   UNL     1     -46.464 -51.548  12.974  1.00  0.00     0.038 A 
ENDBRANCH  18  20
ENDBRANCH  14  15
ENDBRANCH   3  14
TORSDOF 5
ENDMDL
MODEL 8
REMARK VINA RESULT:      -5.3      3.153      6.319
REMARK  5 active torsions:
REMARK  status: ('A' for Active; 'I' for Inactive)
REMARK    1  A    between atoms: C_2  and  C_3 
REMARK    2  A    between atoms: C_2  and  N_15 
REMARK       I    between atoms: C_3  and  N_5 
REMARK    3  A    between atoms: N_5  and  C_6 
REMARK    4  A    between atoms: C_6  and  C_7 
REMARK    5  A    between atoms: N_10  and  C_12 
ROOT
HETATM    1  C   UNL     1     -44.785 -53.223  12.712  1.00  0.00     0.242 C 
HETATM    2  O   UNL     1     -44.484 -54.384  12.443  1.00  0.00    -0.271 OA
HETATM    3  N   UNL     1     -43.856 -52.199  12.676  1.00  0.00    -0.359 N 
HETATM    4  H   UNL     1     -44.211 -51.243  12.695  1.00  0.00     0.162 HD
ENDROOT
BRANCH   1   5
HETATM    5  C   UNL     1     -46.184 -52.822  13.171  1.00  0.00     0.196 C 
HETATM    6  C   UNL     1     -46.609 -51.490  12.550  1.00  0.00     0.044 C 
BRANCH   5   7
HETATM    7  N   UNL     1     -46.262 -52.827  14.623  1.00  0.00    -0.273 N 
HETATM    8  C   UNL     1     -46.843 -51.925  15.460  1.00  0.00     0.202 A 
HETATM    9  N   UNL     1     -46.710 -52.327  16.702  1.00  0.00    -0.346 N 
HETATM   10  C   UNL     1     -46.014 -53.493  16.579  1.00  0.00     0.198 A 
ATOM     11  HN  UNL     1     -47.045 -51.877  17.553  1.00  0.00     0.167 HD
HETATM   12  N   UNL     1     -45.692 -53.833  15.327  1.00  0.00    -0.292 N 
ATOM     13  HN  UNL     1     -45.159 -54.635  14.991  1.00  0.00     0.188 HD
ENDBRANCH   5   7
ENDBRANCH   1   5
BRANCH   3  14
HETATM   14  C   UNL     1     -42.509 -52.452  12.203  1.00  0.00     0.129 C 
BRANCH  14  15
HETATM   15  C   UNL     1     -41.543 -52.793  13.329  1.00  0.00     0.033 C 
HETATM   16  C   UNL     1     -40.504 -51.712  13.608  1.00  0.00     0.038 C 
HETATM   17  C   UNL     1     -39.231 -52.469  13.976  1.00  0.00     0.273 C 
HETATM   18  N   UNL     1     -39.544 -53.905  13.941  1.00  0.00     0.093 N 
HETATM   19  C   UNL     1     -40.685 -54.015  13.014  1.00  0.00     0.279 C 
BRANCH  18  20
HETATM   20  C   UNL     1     -39.846 -54.470  15.271  1.00  0.00     0.223 A 
HETATM   21  C   UNL     1     -39.000 -54.121  16.464  1.00  0.00     0.038 A 
HETATM   22  C   UNL     1     -38.880 -55.480  15.838  1.00  0.00     0.038 A 
ENDBRANCH  18  20
ENDBRANCH  14  15
ENDBRANCH   3  14
TORSDOF 5
ENDMDL
MODEL 9
REMARK VINA RESULT:      -5.2      2.291      3.397
REMARK  5 active torsions:
REMARK  status: ('A' for Active; 'I' for Inactive)
REMARK    1  A    between atoms: C_2  and  C_3 
REMARK    2  A    between atoms: C_2  and  N_15 
REMARK       I    between atoms: C_3  and  N_5 
REMARK    3  A    between atoms: N_5  and  C_6 
REMARK    4  A    between atoms: C_6  and  C_7 
REMARK    5  A    between atoms: N_10  and  C_12 
ROOT
HETATM    1  C   UNL     1     -40.755 -48.336  11.728  1.00  0.00     0.242 C 
HETATM    2  O   UNL     1     -39.905 -48.027  12.561  1.00  0.00    -0.271 OA
HETATM    3  N   UNL     1     -40.857 -49.620  11.227  1.00  0.00    -0.359 N 
HETATM    4  H   UNL     1     -41.706 -49.859  10.715  1.00  0.00     0.162 HD
ENDROOT
BRANCH   1   5
HETATM    5  C   UNL     1     -41.724 -47.321  11.130  1.00  0.00     0.196 C 
HETATM    6  C   UNL     1     -42.425 -47.887   9.893  1.00  0.00     0.044 C 
BRANCH   5   7
HETATM    7  N   UNL     1     -41.046 -46.061  10.875  1.00  0.00    -0.273 N 
HETATM    8  C   UNL     1     -41.431 -44.793  11.188  1.00  0.00     0.202 A 
HETATM    9  N   UNL     1     -40.507 -43.945  10.802  1.00  0.00    -0.346 N 
HETATM   10  C   UNL     1     -39.563 -44.748  10.233  1.00  0.00     0.198 A 
ATOM     11  HN  UNL     1     -40.497 -42.930  10.903  1.00  0.00     0.167 HD
HETATM   12  N   UNL     1     -39.856 -46.053  10.229  1.00  0.00    -0.292 N 
ATOM     13  HN  UNL     1     -39.325 -46.833   9.842  1.00  0.00     0.188 HD
ENDBRANCH   5   7
ENDBRANCH   1   5
BRANCH   3  14
HETATM   14  C   UNL     1     -40.024 -50.681  11.761  1.00  0.00     0.129 C 
BRANCH  14  15
HETATM   15  C   UNL     1     -40.788 -51.627  12.676  1.00  0.00     0.033 C 
HETATM   16  C   UNL     1     -39.897 -52.487  13.567  1.00  0.00     0.038 C 
HETATM   17  C   UNL     1     -40.608 -53.835  13.658  1.00  0.00     0.273 C 
HETATM   18  N   UNL     1     -41.855 -53.730  12.887  1.00  0.00     0.093 N 
HETATM   19  C   UNL     1     -41.597 -52.664  11.902  1.00  0.00     0.279 C 
BRANCH  18  20
HETATM   20  C   UNL     1     -43.037 -53.444  13.724  1.00  0.00     0.223 A 
HETATM   21  C   UNL     1     -43.430 -54.372  14.841  1.00  0.00     0.038 A 
HETATM   22  C   UNL     1     -44.235 -54.349  13.575  1.00  0.00     0.038 A 
ENDBRANCH  18  20
ENDBRANCH  14  15
ENDBRANCH   3  14
TORSDOF 5
ENDMDL
