MODEL 1
REMARK VINA RESULT:      -6.0      0.000      0.000
REMARK  1 active torsions:
REMARK  status: ('A' for Active; 'I' for Inactive)
REMARK    1  A    between atoms: C_2  and  C_9 
ROOT
HETATM    1  C   UNL     1     -43.091 -47.822   7.586  1.00  0.00     0.055 C 
HETATM    2  C   UNL     1     -43.912 -47.472   8.822  1.00  0.00     0.141 C 
HETATM    3  N   UNL     1     -45.225 -48.093   8.785  1.00  0.00    -0.321 N 
HETATM    4  C   UNL     1     -46.243 -47.197   8.994  1.00  0.00     0.324 C 
HETATM    5  O   UNL     1     -47.421 -47.491   9.086  1.00  0.00    -0.247 OA
HETATM    6  N   UNL     1     -45.721 -45.953   9.037  1.00  0.00    -0.277 N 
HETATM    7  C   UNL     1     -44.386 -45.995   8.785  1.00  0.00     0.258 C 
HETATM    8  O   UNL     1     -43.687 -45.009   8.596  1.00  0.00    -0.270 OA
HETATM    9  H   UNL     1     -45.416 -49.085   8.753  1.00  0.00     0.165 HD
HETATM   10  H   UNL     1     -46.273 -45.114   9.089  1.00  0.00     0.173 HD
ENDROOT
BRANCH   2  11
HETATM   11  C   UNL     1     -43.175 -47.811  10.108  1.00  0.00    -0.006 A 
HETATM   12  C   UNL     1     -43.815 -47.798  11.357  1.00  0.00     0.013 A 
HETATM   13  C   UNL     1     -43.100 -48.091  12.515  1.00  0.00     0.018 A 
HETATM   14  C   UNL     1     -41.760 -48.409  12.396  1.00  0.00     0.087 A 
HETATM   15  N   UNL     1     -41.113 -48.471  11.217  1.00  0.00    -0.375 N 
HETATM   16  C   UNL     1     -41.830 -48.181  10.106  1.00  0.00     0.097 A 
ATOM     17  HN  UNL     1     -40.127 -48.726  11.164  1.00  0.00     0.164 HD
ENDBRANCH   2  11
TORSDOF 1
ENDMDL
MODEL 2
REMARK VINA RESULT:      -5.5      6.359      7.836
REMARK  1 active torsions:
REMARK  status: ('A' for Active; 'I' for Inactive)
REMARK    1  A    between atoms: C_2  and  C_9 
ROOT
HETATM    1  C   UNL     1     -43.981 -54.231  16.009  1.00  0.00     0.055 C 
HETATM    2  C   UNL     1     -44.382 -53.611  14.675  1.00  0.00     0.141 C 
HETATM    3  N   UNL     1     -45.054 -52.336  14.859  1.00  0.00    -0.321 N 
HETATM    4  C   UNL     1     -46.254 -52.267  14.196  1.00  0.00     0.324 C 
HETATM    5  O   UNL     1     -46.959 -51.277  14.134  1.00  0.00    -0.247 OA
HETATM    6  N   UNL     1     -46.526 -53.480  13.670  1.00  0.00    -0.277 N 
HETATM    7  C   UNL     1     -45.571 -54.376  14.034  1.00  0.00     0.258 C 
HETATM    8  O   UNL     1     -45.644 -55.581  13.843  1.00  0.00    -0.270 OA
HETATM    9  H   UNL     1     -44.663 -51.513  15.295  1.00  0.00     0.165 HD
HETATM   10  H   UNL     1     -47.392 -53.713  13.215  1.00  0.00     0.173 HD
ENDROOT
BRANCH   2  11
HETATM   11  C   UNL     1     -43.198 -53.483  13.730  1.00  0.00    -0.006 A 
HETATM   12  C   UNL     1     -42.003 -54.188  13.936  1.00  0.00     0.013 A 
HETATM   13  C   UNL     1     -40.933 -54.026  13.061  1.00  0.00     0.018 A 
HETATM   14  C   UNL     1     -41.088 -53.172  11.986  1.00  0.00     0.087 A 
HETATM   15  N   UNL     1     -42.227 -52.503  11.726  1.00  0.00    -0.375 N 
HETATM   16  C   UNL     1     -43.253 -52.677  12.592  1.00  0.00     0.097 A 
ATOM     17  HN  UNL     1     -42.313 -51.893  10.913  1.00  0.00     0.164 HD
ENDBRANCH   2  11
TORSDOF 1
ENDMDL
MODEL 3
REMARK VINA RESULT:      -5.3      2.614      3.848
REMARK  1 active torsions:
REMARK  status: ('A' for Active; 'I' for Inactive)
REMARK    1  A    between atoms: C_2  and  C_9 
ROOT
HETATM    1  C   UNL     1     -40.334 -45.209  11.979  1.00  0.00     0.055 C 
HETATM    2  C   UNL     1     -41.160 -46.298  11.305  1.00  0.00     0.141 C 
HETATM    3  N   UNL     1     -41.444 -45.972   9.917  1.00  0.00    -0.321 N 
HETATM    4  C   UNL     1     -42.778 -46.064   9.612  1.00  0.00     0.324 C 
HETATM    5  O   UNL     1     -43.250 -45.916   8.499  1.00  0.00    -0.247 OA
HETATM    6  N   UNL     1     -43.466 -46.302  10.749  1.00  0.00    -0.277 N 
HETATM    7  C   UNL     1     -42.625 -46.294  11.817  1.00  0.00     0.258 C 
HETATM    8  O   UNL     1     -42.989 -46.316  12.984  1.00  0.00    -0.270 OA
HETATM    9  H   UNL     1     -40.761 -45.827   9.187  1.00  0.00     0.165 HD
HETATM   10  H   UNL     1     -44.469 -46.320  10.805  1.00  0.00     0.173 HD
ENDROOT
BRANCH   2  11
HETATM   11  C   UNL     1     -40.506 -47.666  11.430  1.00  0.00    -0.006 A 
HETATM   12  C   UNL     1     -39.416 -47.892  12.283  1.00  0.00     0.013 A 
HETATM   13  C   UNL     1     -38.829 -49.152  12.353  1.00  0.00     0.018 A 
HETATM   14  C   UNL     1     -39.360 -50.166  11.578  1.00  0.00     0.087 A 
HETATM   15  N   UNL     1     -40.427 -50.007  10.773  1.00  0.00    -0.375 N 
HETATM   16  C   UNL     1     -40.979 -48.771  10.722  1.00  0.00     0.097 A 
ATOM     17  HN  UNL     1     -40.804 -50.781  10.227  1.00  0.00     0.164 HD
ENDBRANCH   2  11
TORSDOF 1
ENDMDL
MODEL 4
REMARK VINA RESULT:      -5.2      2.747      4.912
REMARK  1 active torsions:
REMARK  status: ('A' for Active; 'I' for Inactive)
REMARK    1  A    between atoms: C_2  and  C_9 
ROOT
HETATM    1  C   UNL     1     -42.147 -44.832  12.414  1.00  0.00     0.055 C 
HETATM    2  C   UNL     1     -41.781 -45.937  11.430  1.00  0.00     0.141 C 
HETATM    3  N   UNL     1     -41.162 -47.067  12.100  1.00  0.00    -0.321 N 
HETATM    4  C   UNL     1     -39.971 -47.437  11.528  1.00  0.00     0.324 C 
HETATM    5  O   UNL     1     -39.308 -48.402  11.862  1.00  0.00    -0.247 OA
HETATM    6  N   UNL     1     -39.652 -46.537  10.574  1.00  0.00    -0.277 N 
HETATM    7  C   UNL     1     -40.567 -45.531  10.552  1.00  0.00     0.258 C 
HETATM    8  O   UNL     1     -40.445 -44.499   9.909  1.00  0.00    -0.270 OA
HETATM    9  H   UNL     1     -41.583 -47.639  12.819  1.00  0.00     0.165 HD
HETATM   10  H   UNL     1     -38.781 -46.535  10.072  1.00  0.00     0.173 HD
ENDROOT
BRANCH   2  11
HETATM   11  C   UNL     1     -42.977 -46.373  10.597  1.00  0.00    -0.006 A 
HETATM   12  C   UNL     1     -43.496 -45.575   9.567  1.00  0.00     0.013 A 
HETATM   13  C   UNL     1     -44.607 -45.999   8.843  1.00  0.00     0.018 A 
HETATM   14  C   UNL     1     -45.166 -47.224   9.156  1.00  0.00     0.087 A 
HETATM   15  N   UNL     1     -44.681 -48.040  10.110  1.00  0.00    -0.375 N 
HETATM   16  C   UNL     1     -43.600 -47.605  10.800  1.00  0.00     0.097 A 
ATOM     17  HN  UNL     1     -45.108 -48.946  10.303  1.00  0.00     0.164 HD
ENDBRANCH   2  11
TORSDOF 1
ENDMDL
MODEL 5
REMARK VINA RESULT:      -5.1      3.308      4.080
REMARK  1 active torsions:
REMARK  status: ('A' for Active; 'I' for Inactive)
REMARK    1  A    between atoms: C_2  and  C_9 
ROOT
HETATM    1  C   UNL     1     -42.928 -47.353  12.618  1.00  0.00     0.055 C 
HETATM    2  C   UNL     1     -42.635 -46.905  11.190  1.00  0.00     0.141 C 
HETATM    3  N   UNL     1     -43.851 -46.800  10.402  1.00  0.00    -0.321 N 
HETATM    4  C   UNL     1     -43.777 -47.486   9.216  1.00  0.00     0.324 C 
HETATM    5  O   UNL     1     -44.637 -47.483   8.355  1.00  0.00    -0.247 OA
HETATM    6  N   UNL     1     -42.622 -48.184   9.193  1.00  0.00    -0.277 N 
HETATM    7  C   UNL     1     -41.960 -48.038  10.372  1.00  0.00     0.258 C 
HETATM    8  O   UNL     1     -40.974 -48.684  10.696  1.00  0.00    -0.270 OA
HETATM    9  H   UNL     1     -44.635 -46.192  10.593  1.00  0.00     0.165 HD
HETATM   10  H   UNL     1     -42.375 -48.838   8.471  1.00  0.00     0.173 HD
ENDROOT
BRANCH   2  11
HETATM   11  C   UNL     1     -41.837 -45.611  11.154  1.00  0.00    -0.006 A 
HETATM   12  C   UNL     1     -40.481 -45.584  10.799  1.00  0.00     0.013 A 
HETATM   13  C   UNL     1     -39.778 -44.382  10.800  1.00  0.00     0.018 A 
HETATM   14  C   UNL     1     -40.456 -43.227  11.142  1.00  0.00     0.087 A 
HETATM   15  N   UNL     1     -41.765 -43.197  11.454  1.00  0.00    -0.375 N 
HETATM   16  C   UNL     1     -42.426 -44.380  11.446  1.00  0.00     0.097 A 
ATOM     17  HN  UNL     1     -42.239 -42.324  11.685  1.00  0.00     0.164 HD
ENDBRANCH   2  11
TORSDOF 1
ENDMDL
MODEL 6
REMARK VINA RESULT:      -5.1      7.142      9.184
REMARK  1 active torsions:
REMARK  status: ('A' for Active; 'I' for Inactive)
REMARK    1  A    between atoms: C_2  and  C_9 
ROOT
HETATM    1  C   UNL     1     -40.702 -51.807  15.514  1.00  0.00     0.055 C 
HETATM    2  C   UNL     1     -40.637 -53.117  14.737  1.00  0.00     0.141 C 
HETATM    3  N   UNL     1     -40.262 -54.229  15.595  1.00  0.00    -0.321 N 
HETATM    4  C   UNL     1     -39.211 -54.955  15.095  1.00  0.00     0.324 C 
HETATM    5  O   UNL     1     -38.770 -55.975  15.592  1.00  0.00    -0.247 OA
HETATM    6  N   UNL     1     -38.736 -54.328  13.998  1.00  0.00    -0.277 N 
HETATM    7  C   UNL     1     -39.400 -53.158  13.801  1.00  0.00     0.258 C 
HETATM    8  O   UNL     1     -39.073 -52.306  12.987  1.00  0.00    -0.270 OA
HETATM    9  H   UNL     1     -40.772 -54.557  16.402  1.00  0.00     0.165 HD
HETATM   10  H   UNL     1     -37.909 -54.612  13.503  1.00  0.00     0.173 HD
ENDROOT
BRANCH   2  11
HETATM   11  C   UNL     1     -41.934 -53.402  13.995  1.00  0.00    -0.006 A 
HETATM   12  C   UNL     1     -42.928 -54.234  14.530  1.00  0.00     0.013 A 
HETATM   13  C   UNL     1     -44.091 -54.490  13.809  1.00  0.00     0.018 A 
HETATM   14  C   UNL     1     -44.242 -53.891  12.573  1.00  0.00     0.087 A 
HETATM   15  N   UNL     1     -43.333 -53.056  12.035  1.00  0.00    -0.375 N 
HETATM   16  C   UNL     1     -42.210 -52.825  12.755  1.00  0.00     0.097 A 
ATOM     17  HN  UNL     1     -43.484 -52.618  11.127  1.00  0.00     0.164 HD
ENDBRANCH   2  11
TORSDOF 1
ENDMDL
MODEL 7
REMARK VINA RESULT:      -5.0     22.901     25.029
REMARK  1 active torsions:
REMARK  status: ('A' for Active; 'I' for Inactive)
REMARK    1  A    between atoms: C_2  and  C_9 
ROOT
HETATM    1  C   UNL     1     -25.242 -64.529  17.862  1.00  0.00     0.055 C 
HETATM    2  C   UNL     1     -25.760 -64.234  16.459  1.00  0.00     0.141 C 
HETATM    3  N   UNL     1     -25.554 -65.360  15.565  1.00  0.00    -0.321 N 
HETATM    4  C   UNL     1     -24.919 -65.006  14.401  1.00  0.00     0.324 C 
HETATM    5  O   UNL     1     -24.707 -65.757  13.467  1.00  0.00    -0.247 OA
HETATM    6  N   UNL     1     -24.543 -63.713  14.492  1.00  0.00    -0.277 N 
HETATM    7  C   UNL     1     -24.846 -63.220  15.722  1.00  0.00     0.258 C 
HETATM    8  O   UNL     1     -24.473 -62.134  16.142  1.00  0.00    -0.270 OA
HETATM    9  H   UNL     1     -25.939 -66.288  15.675  1.00  0.00     0.165 HD
HETATM   10  H   UNL     1     -23.979 -63.242  13.805  1.00  0.00     0.173 HD
ENDROOT
BRANCH   2  11
HETATM   11  C   UNL     1     -27.217 -63.796  16.472  1.00  0.00    -0.006 A 
HETATM   12  C   UNL     1     -27.768 -63.018  15.444  1.00  0.00     0.013 A 
HETATM   13  C   UNL     1     -29.100 -62.617  15.504  1.00  0.00     0.018 A 
HETATM   14  C   UNL     1     -29.858 -63.019  16.587  1.00  0.00     0.087 A 
HETATM   15  N   UNL     1     -29.384 -63.797  17.579  1.00  0.00    -0.375 N 
HETATM   16  C   UNL     1     -28.085 -64.172  17.498  1.00  0.00     0.097 A 
ATOM     17  HN  UNL     1     -29.976 -64.090  18.356  1.00  0.00     0.164 HD
ENDBRANCH   2  11
TORSDOF 1
ENDMDL
MODEL 8
REMARK VINA RESULT:      -4.9     22.463     24.078
REMARK  1 active torsions:
REMARK  status: ('A' for Active; 'I' for Inactive)
REMARK    1  A    between atoms: C_2  and  C_9 
ROOT
HETATM    1  C   UNL     1     -25.713 -63.468  15.093  1.00  0.00     0.055 C 
HETATM    2  C   UNL     1     -26.940 -63.336  15.989  1.00  0.00     0.141 C 
HETATM    3  N   UNL     1     -27.958 -64.315  15.648  1.00  0.00    -0.321 N 
HETATM    4  C   UNL     1     -29.192 -63.751  15.446  1.00  0.00     0.324 C 
HETATM    5  O   UNL     1     -30.215 -64.373  15.228  1.00  0.00    -0.247 OA
HETATM    6  N   UNL     1     -29.064 -62.407  15.490  1.00  0.00    -0.277 N 
HETATM    7  C   UNL     1     -27.757 -62.064  15.641  1.00  0.00     0.258 C 
HETATM    8  O   UNL     1     -27.327 -60.923  15.546  1.00  0.00    -0.270 OA
HETATM    9  H   UNL     1     -27.854 -65.320  15.681  1.00  0.00     0.165 HD
HETATM   10  H   UNL     1     -29.809 -61.765  15.280  1.00  0.00     0.173 HD
ENDROOT
BRANCH   2  11
HETATM   11  C   UNL     1     -26.576 -63.405  17.464  1.00  0.00    -0.006 A 
HETATM   12  C   UNL     1     -25.531 -64.214  17.934  1.00  0.00     0.013 A 
HETATM   13  C   UNL     1     -25.244 -64.269  19.295  1.00  0.00     0.018 A 
HETATM   14  C   UNL     1     -26.000 -63.497  20.157  1.00  0.00     0.087 A 
HETATM   15  N   UNL     1     -26.988 -62.678  19.749  1.00  0.00    -0.375 N 
HETATM   16  C   UNL     1     -27.248 -62.643  18.420  1.00  0.00     0.097 A 
ATOM     17  HN  UNL     1     -27.516 -62.109  20.410  1.00  0.00     0.164 HD
ENDBRANCH   2  11
TORSDOF 1
ENDMDL
MODEL 9
REMARK VINA RESULT:      -4.9      4.657      6.319
REMARK  1 active torsions:
REMARK  status: ('A' for Active; 'I' for Inactive)
REMARK    1  A    between atoms: C_2  and  C_9 
ROOT
HETATM    1  C   UNL     1     -41.611 -51.336  14.793  1.00  0.00     0.055 C 
HETATM    2  C   UNL     1     -42.054 -51.678  13.375  1.00  0.00     0.141 C 
HETATM    3  N   UNL     1     -43.407 -52.207  13.351  1.00  0.00    -0.321 N 
HETATM    4  C   UNL     1     -43.501 -53.396  12.673  1.00  0.00     0.324 C 
HETATM    5  O   UNL     1     -44.540 -53.991  12.451  1.00  0.00    -0.247 OA
HETATM    6  N   UNL     1     -42.257 -53.802  12.340  1.00  0.00    -0.277 N 
HETATM    7  C   UNL     1     -41.331 -52.946  12.848  1.00  0.00     0.258 C 
HETATM    8  O   UNL     1     -40.126 -53.151  12.846  1.00  0.00    -0.270 OA
HETATM    9  H   UNL     1     -44.241 -51.727  13.658  1.00  0.00     0.165 HD
HETATM   10  H   UNL     1     -42.051 -54.691  11.918  1.00  0.00     0.173 HD
ENDROOT
BRANCH   2  11
HETATM   11  C   UNL     1     -41.905 -50.493  12.433  1.00  0.00    -0.006 A 
HETATM   12  C   UNL     1     -42.774 -49.393  12.481  1.00  0.00     0.013 A 
HETATM   13  C   UNL     1     -42.619 -48.338  11.585  1.00  0.00     0.018 A 
HETATM   14  C   UNL     1     -41.586 -48.400  10.670  1.00  0.00     0.087 A 
HETATM   15  N   UNL     1     -40.706 -49.417  10.610  1.00  0.00    -0.375 N 
HETATM   16  C   UNL     1     -40.877 -50.431  11.491  1.00  0.00     0.097 A 
ATOM     17  HN  UNL     1     -39.943 -49.423   9.933  1.00  0.00     0.164 HD
ENDBRANCH   2  11
TORSDOF 1
ENDMDL
