MODEL 1
REMARK VINA RESULT:      -6.0      0.000      0.000
REMARK  2 active torsions:
REMARK  status: ('A' for Active; 'I' for Inactive)
REMARK    1  A    between atoms: N_4  and  C_5 
REMARK    2  A    between atoms: C_5  and  C_6 
ROOT
HETATM    1 CL   UNL     1     -43.521 -47.681   7.704  1.00  0.00    -0.077 Cl
HETATM    2  C   UNL     1     -43.076 -47.113   9.259  1.00  0.00     0.117 A 
HETATM    3  C   UNL     1     -42.515 -47.911  10.174  1.00  0.00     0.125 A 
HETATM    4  N   UNL     1     -42.188 -47.468  11.443  1.00  0.00    -0.305 N 
HETATM    5  C   UNL     1     -42.412 -46.151  11.837  1.00  0.00     0.329 A 
HETATM    6  O   UNL     1     -42.185 -45.725  12.965  1.00  0.00    -0.246 OA
HETATM    7  N   UNL     1     -42.939 -45.329  10.876  1.00  0.00    -0.274 N 
HETATM    8  C   UNL     1     -43.344 -45.699   9.620  1.00  0.00     0.272 A 
HETATM    9  O   UNL     1     -43.895 -44.904   8.864  1.00  0.00    -0.266 OA
HETATM   10  H   UNL     1     -43.123 -44.376  11.150  1.00  0.00     0.173 HD
ENDROOT
BRANCH   4  11
HETATM   11  C   UNL     1     -41.651 -48.413  12.431  1.00  0.00     0.166 C 
BRANCH  11  12
HETATM   12  C   UNL     1     -41.914 -49.881  12.066  1.00  0.00     0.151 C 
HETATM   13  C   UNL     1     -40.651 -50.753  12.175  1.00  0.00     0.075 C 
HETATM   14  C   UNL     1     -41.271 -52.014  12.632  1.00  0.00    -0.022 A 
HETATM   15  C   UNL     1     -40.726 -53.282  12.717  1.00  0.00     0.010 A 
HETATM   16  C   UNL     1     -42.561 -51.757  13.068  1.00  0.00     0.075 A 
HETATM   17  C   UNL     1     -41.527 -54.308  13.225  1.00  0.00     0.001 A 
HETATM   18  C   UNL     1     -42.841 -54.046  13.649  1.00  0.00     0.003 A 
HETATM   19  C   UNL     1     -43.366 -52.753  13.582  1.00  0.00     0.037 A 
HETATM   20  O   UNL     1     -42.925 -50.439  12.954  1.00  0.00    -0.343 OA
ENDBRANCH  11  12
ENDBRANCH   4  11
TORSDOF 2
ENDMDL
MODEL 2
REMARK VINA RESULT:      -6.0      3.304      6.766
REMARK  2 active torsions:
REMARK  status: ('A' for Active; 'I' for Inactive)
REMARK    1  A    between atoms: N_4  and  C_5 
REMARK    2  A    between atoms: C_5  and  C_6 
ROOT
HETATM    1 CL   UNL     1     -46.501 -51.401  14.008  1.00  0.00    -0.077 Cl
HETATM    2  C   UNL     1     -44.922 -51.624  13.379  1.00  0.00     0.117 A 
HETATM    3  C   UNL     1     -43.953 -50.718  13.549  1.00  0.00     0.125 A 
HETATM    4  N   UNL     1     -42.688 -50.876  13.013  1.00  0.00    -0.305 N 
HETATM    5  C   UNL     1     -42.345 -52.004  12.271  1.00  0.00     0.329 A 
HETATM    6  O   UNL     1     -41.253 -52.165  11.735  1.00  0.00    -0.246 OA
HETATM    7  N   UNL     1     -43.328 -52.949  12.146  1.00  0.00    -0.274 N 
HETATM    8  C   UNL     1     -44.620 -52.847  12.594  1.00  0.00     0.272 A 
HETATM    9  O   UNL     1     -45.455 -53.711  12.346  1.00  0.00    -0.266 OA
HETATM   10  H   UNL     1     -43.101 -53.765  11.597  1.00  0.00     0.173 HD
ENDROOT
BRANCH   4  11
HETATM   11  C   UNL     1     -41.692 -49.808  13.165  1.00  0.00     0.166 C 
BRANCH  11  12
HETATM   12  C   UNL     1     -41.874 -48.665  12.156  1.00  0.00     0.151 C 
HETATM   13  C   UNL     1     -42.628 -47.464  12.753  1.00  0.00     0.075 C 
HETATM   14  C   UNL     1     -41.940 -46.371  12.036  1.00  0.00    -0.022 A 
HETATM   15  C   UNL     1     -42.277 -45.033  11.940  1.00  0.00     0.010 A 
HETATM   16  C   UNL     1     -40.775 -46.860  11.467  1.00  0.00     0.075 A 
HETATM   17  C   UNL     1     -41.425 -44.191  11.220  1.00  0.00     0.001 A 
HETATM   18  C   UNL     1     -40.254 -44.696  10.629  1.00  0.00     0.003 A 
HETATM   19  C   UNL     1     -39.914 -46.045  10.760  1.00  0.00     0.037 A 
HETATM   20  O   UNL     1     -40.573 -48.198  11.697  1.00  0.00    -0.343 OA
ENDBRANCH  11  12
ENDBRANCH   4  11
TORSDOF 2
ENDMDL
MODEL 3
REMARK VINA RESULT:      -5.9      4.623      6.292
REMARK  2 active torsions:
REMARK  status: ('A' for Active; 'I' for Inactive)
REMARK    1  A    between atoms: N_4  and  C_5 
REMARK    2  A    between atoms: C_5  and  C_6 
ROOT
HETATM    1 CL   UNL     1     -46.186 -51.405  14.466  1.00  0.00    -0.077 Cl
HETATM    2  C   UNL     1     -44.798 -52.313  14.034  1.00  0.00     0.117 A 
HETATM    3  C   UNL     1     -43.703 -52.350  14.802  1.00  0.00     0.125 A 
HETATM    4  N   UNL     1     -42.568 -53.051  14.441  1.00  0.00    -0.305 N 
HETATM    5  C   UNL     1     -42.503 -53.777  13.255  1.00  0.00     0.329 A 
HETATM    6  O   UNL     1     -41.503 -54.373  12.868  1.00  0.00    -0.246 OA
HETATM    7  N   UNL     1     -43.647 -53.776  12.500  1.00  0.00    -0.274 N 
HETATM    8  C   UNL     1     -44.791 -53.064  12.754  1.00  0.00     0.272 A 
HETATM    9  O   UNL     1     -45.729 -53.054  11.963  1.00  0.00    -0.266 OA
HETATM   10  H   UNL     1     -43.612 -54.283  11.628  1.00  0.00     0.173 HD
ENDROOT
BRANCH   4  11
HETATM   11  C   UNL     1     -41.368 -52.985  15.287  1.00  0.00     0.166 C 
BRANCH  11  12
HETATM   12  C   UNL     1     -40.422 -51.838  14.903  1.00  0.00     0.151 C 
HETATM   13  C   UNL     1     -39.017 -52.334  14.520  1.00  0.00     0.075 C 
HETATM   14  C   UNL     1     -38.691 -51.341  13.476  1.00  0.00    -0.022 A 
HETATM   15  C   UNL     1     -37.480 -51.073  12.864  1.00  0.00     0.010 A 
HETATM   16  C   UNL     1     -39.850 -50.685  13.091  1.00  0.00     0.075 A 
HETATM   17  C   UNL     1     -37.450 -50.095  11.866  1.00  0.00     0.001 A 
HETATM   18  C   UNL     1     -38.625 -49.420  11.493  1.00  0.00     0.003 A 
HETATM   19  C   UNL     1     -39.845 -49.723  12.102  1.00  0.00     0.037 A 
HETATM   20  O   UNL     1     -40.967 -51.105  13.769  1.00  0.00    -0.343 OA
ENDBRANCH  11  12
ENDBRANCH   4  11
TORSDOF 2
ENDMDL
MODEL 4
REMARK VINA RESULT:      -5.7      3.988      5.254
REMARK  2 active torsions:
REMARK  status: ('A' for Active; 'I' for Inactive)
REMARK    1  A    between atoms: N_4  and  C_5 
REMARK    2  A    between atoms: C_5  and  C_6 
ROOT
HETATM    1 CL   UNL     1     -37.081 -50.329  14.343  1.00  0.00    -0.077 Cl
HETATM    2  C   UNL     1     -38.345 -49.912  13.263  1.00  0.00     0.117 A 
HETATM    3  C   UNL     1     -39.540 -49.492  13.693  1.00  0.00     0.125 A 
HETATM    4  N   UNL     1     -40.575 -49.190  12.827  1.00  0.00    -0.305 N 
HETATM    5  C   UNL     1     -40.426 -49.292  11.447  1.00  0.00     0.329 A 
HETATM    6  O   UNL     1     -41.329 -49.083  10.642  1.00  0.00    -0.246 OA
HETATM    7  N   UNL     1     -39.183 -49.673  11.014  1.00  0.00    -0.274 N 
HETATM    8  C   UNL     1     -38.125 -50.045  11.802  1.00  0.00     0.272 A 
HETATM    9  O   UNL     1     -37.079 -50.465  11.314  1.00  0.00    -0.266 OA
HETATM   10  H   UNL     1     -39.063 -49.768  10.017  1.00  0.00     0.173 HD
ENDROOT
BRANCH   4  11
HETATM   11  C   UNL     1     -41.890 -48.814  13.364  1.00  0.00     0.166 C 
BRANCH  11  12
HETATM   12  C   UNL     1     -42.697 -50.014  13.878  1.00  0.00     0.151 C 
HETATM   13  C   UNL     1     -43.376 -49.735  15.229  1.00  0.00     0.075 C 
HETATM   14  C   UNL     1     -44.612 -50.522  15.042  1.00  0.00    -0.022 A 
HETATM   15  C   UNL     1     -45.573 -50.885  15.968  1.00  0.00     0.010 A 
HETATM   16  C   UNL     1     -44.755 -50.837  13.700  1.00  0.00     0.075 A 
HETATM   17  C   UNL     1     -46.679 -51.610  15.518  1.00  0.00     0.001 A 
HETATM   18  C   UNL     1     -46.810 -51.943  14.159  1.00  0.00     0.003 A 
HETATM   19  C   UNL     1     -45.843 -51.544  13.232  1.00  0.00     0.037 A 
HETATM   20  O   UNL     1     -43.734 -50.362  12.915  1.00  0.00    -0.343 OA
ENDBRANCH  11  12
ENDBRANCH   4  11
TORSDOF 2
ENDMDL
MODEL 5
REMARK VINA RESULT:      -5.6      3.802      5.401
REMARK  2 active torsions:
REMARK  status: ('A' for Active; 'I' for Inactive)
REMARK    1  A    between atoms: N_4  and  C_5 
REMARK    2  A    between atoms: C_5  and  C_6 
ROOT
HETATM    1 CL   UNL     1     -40.240 -47.456  11.689  1.00  0.00    -0.077 Cl
HETATM    2  C   UNL     1     -40.242 -49.141  12.009  1.00  0.00     0.117 A 
HETATM    3  C   UNL     1     -41.373 -49.852  12.066  1.00  0.00     0.125 A 
HETATM    4  N   UNL     1     -41.384 -51.204  12.359  1.00  0.00    -0.305 N 
HETATM    5  C   UNL     1     -40.208 -51.909  12.600  1.00  0.00     0.329 A 
HETATM    6  O   UNL     1     -40.170 -53.095  12.912  1.00  0.00    -0.246 OA
HETATM    7  N   UNL     1     -39.052 -51.182  12.489  1.00  0.00    -0.274 N 
HETATM    8  C   UNL     1     -38.955 -49.834  12.260  1.00  0.00     0.272 A 
HETATM    9  O   UNL     1     -37.872 -49.257  12.274  1.00  0.00    -0.266 OA
HETATM   10  H   UNL     1     -38.191 -51.674  12.676  1.00  0.00     0.173 HD
ENDROOT
BRANCH   4  11
HETATM   11  C   UNL     1     -42.664 -51.913  12.489  1.00  0.00     0.166 C 
BRANCH  11  12
HETATM   12  C   UNL     1     -43.718 -51.117  13.272  1.00  0.00     0.151 C 
HETATM   13  C   UNL     1     -45.138 -51.684  13.097  1.00  0.00     0.075 C 
HETATM   14  C   UNL     1     -45.675 -51.400  14.444  1.00  0.00    -0.022 A 
HETATM   15  C   UNL     1     -46.979 -51.456  14.900  1.00  0.00     0.010 A 
HETATM   16  C   UNL     1     -44.627 -51.104  15.301  1.00  0.00     0.075 A 
HETATM   17  C   UNL     1     -47.216 -51.171  16.248  1.00  0.00     0.001 A 
HETATM   18  C   UNL     1     -46.152 -50.853  17.109  1.00  0.00     0.003 A 
HETATM   19  C   UNL     1     -44.837 -50.829  16.636  1.00  0.00     0.037 A 
HETATM   20  O   UNL     1     -43.397 -51.136  14.693  1.00  0.00    -0.343 OA
ENDBRANCH  11  12
ENDBRANCH   4  11
TORSDOF 2
ENDMDL
MODEL 6
REMARK VINA RESULT:      -5.6      5.927      8.106
REMARK  2 active torsions:
REMARK  status: ('A' for Active; 'I' for Inactive)
REMARK    1  A    between atoms: N_4  and  C_5 
REMARK    2  A    between atoms: C_5  and  C_6 
ROOT
HETATM    1 CL   UNL     1     -38.269 -54.100  18.350  1.00  0.00    -0.077 Cl
HETATM    2  C   UNL     1     -38.798 -54.049  16.720  1.00  0.00     0.117 A 
HETATM    3  C   UNL     1     -39.607 -53.087  16.263  1.00  0.00     0.125 A 
HETATM    4  N   UNL     1     -40.066 -53.062  14.959  1.00  0.00    -0.305 N 
HETATM    5  C   UNL     1     -39.697 -54.036  14.036  1.00  0.00     0.329 A 
HETATM    6  O   UNL     1     -40.117 -54.084  12.884  1.00  0.00    -0.246 OA
HETATM    7  N   UNL     1     -38.827 -54.989  14.499  1.00  0.00    -0.274 N 
HETATM    8  C   UNL     1     -38.372 -55.120  15.785  1.00  0.00     0.272 A 
HETATM    9  O   UNL     1     -37.669 -56.068  16.123  1.00  0.00    -0.266 OA
HETATM   10  H   UNL     1     -38.562 -55.712  13.847  1.00  0.00     0.173 HD
ENDROOT
BRANCH   4  11
HETATM   11  C   UNL     1     -41.018 -52.025  14.540  1.00  0.00     0.166 C 
BRANCH  11  12
HETATM   12  C   UNL     1     -42.484 -52.463  14.674  1.00  0.00     0.151 C 
HETATM   13  C   UNL     1     -43.236 -51.684  15.766  1.00  0.00     0.075 C 
HETATM   14  C   UNL     1     -44.572 -51.624  15.138  1.00  0.00    -0.022 A 
HETATM   15  C   UNL     1     -45.786 -51.249  15.685  1.00  0.00     0.010 A 
HETATM   16  C   UNL     1     -44.462 -51.953  13.797  1.00  0.00     0.075 A 
HETATM   17  C   UNL     1     -46.908 -51.245  14.854  1.00  0.00     0.001 A 
HETATM   18  C   UNL     1     -46.794 -51.598  13.498  1.00  0.00     0.003 A 
HETATM   19  C   UNL     1     -45.555 -51.947  12.955  1.00  0.00     0.037 A 
HETATM   20  O   UNL     1     -43.180 -52.255  13.411  1.00  0.00    -0.343 OA
ENDBRANCH  11  12
ENDBRANCH   4  11
TORSDOF 2
ENDMDL
MODEL 7
REMARK VINA RESULT:      -5.4      3.911      5.135
REMARK  2 active torsions:
REMARK  status: ('A' for Active; 'I' for Inactive)
REMARK    1  A    between atoms: N_4  and  C_5 
REMARK    2  A    between atoms: C_5  and  C_6 
ROOT
HETATM    1 CL   UNL     1     -40.002 -46.793  12.607  1.00  0.00    -0.077 Cl
HETATM    2  C   UNL     1     -39.833 -48.496  12.713  1.00  0.00     0.117 A 
HETATM    3  C   UNL     1     -40.816 -49.332  12.364  1.00  0.00     0.125 A 
HETATM    4  N   UNL     1     -40.699 -50.705  12.482  1.00  0.00    -0.305 N 
HETATM    5  C   UNL     1     -39.535 -51.300  12.961  1.00  0.00     0.329 A 
HETATM    6  O   UNL     1     -39.401 -52.508  13.130  1.00  0.00    -0.246 OA
HETATM    7  N   UNL     1     -38.515 -50.438  13.267  1.00  0.00    -0.274 N 
HETATM    8  C   UNL     1     -38.568 -49.068  13.235  1.00  0.00     0.272 A 
HETATM    9  O   UNL     1     -37.627 -48.381  13.623  1.00  0.00    -0.266 OA
HETATM   10  H   UNL     1     -37.669 -50.851  13.632  1.00  0.00     0.173 HD
ENDROOT
BRANCH   4  11
HETATM   11  C   UNL     1     -41.844 -51.566  12.160  1.00  0.00     0.166 C 
BRANCH  11  12
HETATM   12  C   UNL     1     -42.791 -51.780  13.349  1.00  0.00     0.151 C 
HETATM   13  C   UNL     1     -44.008 -50.840  13.312  1.00  0.00     0.075 C 
HETATM   14  C   UNL     1     -45.023 -51.742  13.895  1.00  0.00    -0.022 A 
HETATM   15  C   UNL     1     -46.297 -51.455  14.351  1.00  0.00     0.010 A 
HETATM   16  C   UNL     1     -44.543 -53.042  13.878  1.00  0.00     0.075 A 
HETATM   17  C   UNL     1     -47.077 -52.512  14.829  1.00  0.00     0.001 A 
HETATM   18  C   UNL     1     -46.579 -53.826  14.826  1.00  0.00     0.003 A 
HETATM   19  C   UNL     1     -45.299 -54.101  14.335  1.00  0.00     0.037 A 
HETATM   20  O   UNL     1     -43.280 -53.152  13.352  1.00  0.00    -0.343 OA
ENDBRANCH  11  12
ENDBRANCH   4  11
TORSDOF 2
ENDMDL
MODEL 8
REMARK VINA RESULT:      -5.4      3.942      6.214
REMARK  2 active torsions:
REMARK  status: ('A' for Active; 'I' for Inactive)
REMARK    1  A    between atoms: N_4  and  C_5 
REMARK    2  A    between atoms: C_5  and  C_6 
ROOT
HETATM    1 CL   UNL     1     -46.172 -51.334  14.033  1.00  0.00    -0.077 Cl
HETATM    2  C   UNL     1     -44.650 -51.693  13.331  1.00  0.00     0.117 A 
HETATM    3  C   UNL     1     -43.675 -50.781  13.241  1.00  0.00     0.125 A 
HETATM    4  N   UNL     1     -42.458 -51.054  12.643  1.00  0.00    -0.305 N 
HETATM    5  C   UNL     1     -42.171 -52.308  12.110  1.00  0.00     0.329 A 
HETATM    6  O   UNL     1     -41.127 -52.582  11.527  1.00  0.00    -0.246 OA
HETATM    7  N   UNL     1     -43.156 -53.249  12.253  1.00  0.00    -0.274 N 
HETATM    8  C   UNL     1     -44.406 -53.048  12.778  1.00  0.00     0.272 A 
HETATM    9  O   UNL     1     -45.254 -53.935  12.773  1.00  0.00    -0.266 OA
HETATM   10  H   UNL     1     -42.971 -54.159  11.857  1.00  0.00     0.173 HD
ENDROOT
BRANCH   4  11
HETATM   11  C   UNL     1     -41.459 -49.987  12.501  1.00  0.00     0.166 C 
BRANCH  11  12
HETATM   12  C   UNL     1     -40.666 -49.727  13.790  1.00  0.00     0.151 C 
HETATM   13  C   UNL     1     -39.579 -50.787  14.039  1.00  0.00     0.075 C 
HETATM   14  C   UNL     1     -38.552 -49.931  14.668  1.00  0.00    -0.022 A 
HETATM   15  C   UNL     1     -37.398 -50.290  15.340  1.00  0.00     0.010 A 
HETATM   16  C   UNL     1     -38.863 -48.600  14.439  1.00  0.00     0.075 A 
HETATM   17  C   UNL     1     -36.568 -49.270  15.813  1.00  0.00     0.001 A 
HETATM   18  C   UNL     1     -36.898 -47.922  15.594  1.00  0.00     0.003 A 
HETATM   19  C   UNL     1     -38.054 -47.577  14.888  1.00  0.00     0.037 A 
HETATM   20  O   UNL     1     -40.019 -48.424  13.719  1.00  0.00    -0.343 OA
ENDBRANCH  11  12
ENDBRANCH   4  11
TORSDOF 2
ENDMDL
MODEL 9
REMARK VINA RESULT:      -5.4      4.542      6.487
REMARK  2 active torsions:
REMARK  status: ('A' for Active; 'I' for Inactive)
REMARK    1  A    between atoms: N_4  and  C_5 
REMARK    2  A    between atoms: C_5  and  C_6 
ROOT
HETATM    1 CL   UNL     1     -45.231 -50.071  16.681  1.00  0.00    -0.077 Cl
HETATM    2  C   UNL     1     -45.223 -51.285  15.470  1.00  0.00     0.117 A 
HETATM    3  C   UNL     1     -44.174 -51.479  14.664  1.00  0.00     0.125 A 
HETATM    4  N   UNL     1     -44.175 -52.432  13.662  1.00  0.00    -0.305 N 
HETATM    5  C   UNL     1     -45.273 -53.261  13.443  1.00  0.00     0.329 A 
HETATM    6  O   UNL     1     -45.341 -54.085  12.537  1.00  0.00    -0.246 OA
HETATM    7  N   UNL     1     -46.323 -53.089  14.307  1.00  0.00    -0.274 N 
HETATM    8  C   UNL     1     -46.426 -52.134  15.285  1.00  0.00     0.272 A 
HETATM    9  O   UNL     1     -47.452 -52.000  15.945  1.00  0.00    -0.266 OA
HETATM   10  H   UNL     1     -47.133 -53.670  14.152  1.00  0.00     0.173 HD
ENDROOT
BRANCH   4  11
HETATM   11  C   UNL     1     -43.024 -52.541  12.756  1.00  0.00     0.166 C 
BRANCH  11  12
HETATM   12  C   UNL     1     -41.867 -51.607  13.135  1.00  0.00     0.151 C 
HETATM   13  C   UNL     1     -40.656 -52.365  13.705  1.00  0.00     0.075 C 
HETATM   14  C   UNL     1     -39.571 -51.517  13.172  1.00  0.00    -0.022 A 
HETATM   15  C   UNL     1     -38.225 -51.507  13.490  1.00  0.00     0.010 A 
HETATM   16  C   UNL     1     -40.079 -50.695  12.179  1.00  0.00     0.075 A 
HETATM   17  C   UNL     1     -37.394 -50.618  12.804  1.00  0.00     0.001 A 
HETATM   18  C   UNL     1     -37.918 -49.774  11.810  1.00  0.00     0.003 A 
HETATM   19  C   UNL     1     -39.276 -49.817  11.481  1.00  0.00     0.037 A 
HETATM   20  O   UNL     1     -41.423 -50.866  11.962  1.00  0.00    -0.343 OA
ENDBRANCH  11  12
ENDBRANCH   4  11
TORSDOF 2
ENDMDL
