MODEL 1
REMARK VINA RESULT:      -6.5      0.000      0.000
REMARK  4 active torsions:
REMARK  status: ('A' for Active; 'I' for Inactive)
REMARK    1  A    between atoms: C_5  and  N_8 
REMARK       I    between atoms: N_8  and  C_9 
REMARK    2  A    between atoms: C_9  and  C_11 
REMARK    3  A    between atoms: C_11  and  N_12 
REMARK    4  A    between atoms: C_15  and  C_18 
ROOT
HETATM    1  N   UNL     1     -43.628 -49.706  13.415  1.00  0.00    -0.355 N 
HETATM    2  C   UNL     1     -42.689 -49.314  12.480  1.00  0.00     0.237 C 
HETATM    3  O   UNL     1     -41.957 -50.099  11.881  1.00  0.00    -0.272 OA
HETATM    4  H   UNL     1     -43.962 -48.990  14.051  1.00  0.00     0.162 HD
ENDROOT
BRANCH   2   5
HETATM    5  C   UNL     1     -42.637 -47.824  12.235  1.00  0.00     0.250 C 
BRANCH   5   6
HETATM    6  N   UNL     1     -43.343 -47.497  11.017  1.00  0.00    -0.294 N 
HETATM    7  C   UNL     1     -43.039 -46.503  10.135  1.00  0.00     0.113 A 
HETATM    8  C   UNL     1     -44.021 -46.531   9.177  1.00  0.00     0.054 A 
HETATM    9  C   UNL     1     -44.882 -47.602   9.546  1.00  0.00     0.133 A 
HETATM   10  N   UNL     1     -44.436 -48.206  10.670  1.00  0.00    -0.294 N 
ATOM     11  HN  UNL     1     -44.836 -49.014  11.146  1.00  0.00     0.187 HD
BRANCH   9  12
HETATM   12  C   UNL     1     -46.133 -48.030   8.826  1.00  0.00     0.433 C 
HETATM   13  F   UNL     1     -45.857 -48.572   7.606  1.00  0.00    -0.165 F 
HETATM   14  F   UNL     1     -46.833 -48.971   9.513  1.00  0.00    -0.165 F 
HETATM   15  F   UNL     1     -46.983 -46.992   8.598  1.00  0.00    -0.165 F 
ENDBRANCH   9  12
ENDBRANCH   5   6
ENDBRANCH   2   5
BRANCH   1  16
HETATM   16  C   UNL     1     -43.762 -51.099  13.834  1.00  0.00     0.084 C 
HETATM   17  C   UNL     1     -44.718 -51.847  12.900  1.00  0.00     0.025 C 
HETATM   18  C   UNL     1     -46.183 -51.461  13.115  1.00  0.00     0.006 C 
HETATM   19  C   UNL     1     -46.628 -51.597  14.578  1.00  0.00    -0.019 C 
HETATM   20  C   UNL     1     -46.774 -53.066  14.986  1.00  0.00     0.010 C 
HETATM   21  C   UNL     1     -45.672 -50.836  15.508  1.00  0.00     0.006 C 
HETATM   22  C   UNL     1     -44.202 -51.205  15.300  1.00  0.00     0.025 C 
ENDBRANCH   1  16
TORSDOF 4
ENDMDL
MODEL 2
REMARK VINA RESULT:      -6.3      1.872      2.498
REMARK  4 active torsions:
REMARK  status: ('A' for Active; 'I' for Inactive)
REMARK    1  A    between atoms: C_5  and  N_8 
REMARK       I    between atoms: N_8  and  C_9 
REMARK    2  A    between atoms: C_9  and  C_11 
REMARK    3  A    between atoms: C_11  and  N_12 
REMARK    4  A    between atoms: C_15  and  C_18 
ROOT
HETATM    1  N   UNL     1     -42.223 -51.204  12.628  1.00  0.00    -0.355 N 
HETATM    2  C   UNL     1     -41.217 -50.274  12.805  1.00  0.00     0.237 C 
HETATM    3  O   UNL     1     -40.721 -50.008  13.898  1.00  0.00    -0.272 OA
HETATM    4  H   UNL     1     -42.756 -51.138  11.767  1.00  0.00     0.162 HD
ENDROOT
BRANCH   2   5
HETATM    5  C   UNL     1     -40.755 -49.605  11.532  1.00  0.00     0.250 C 
BRANCH   5   6
HETATM    6  N   UNL     1     -41.784 -48.719  11.036  1.00  0.00    -0.294 N 
HETATM    7  C   UNL     1     -42.693 -48.023  11.776  1.00  0.00     0.113 A 
HETATM    8  C   UNL     1     -43.503 -47.379  10.874  1.00  0.00     0.054 A 
HETATM    9  C   UNL     1     -42.996 -47.725   9.591  1.00  0.00     0.133 A 
HETATM   10  N   UNL     1     -41.919 -48.532   9.707  1.00  0.00    -0.294 N 
ATOM     11  HN  UNL     1     -41.339 -48.913   8.959  1.00  0.00     0.187 HD
BRANCH   9  12
HETATM   12  C   UNL     1     -43.556 -47.290   8.262  1.00  0.00     0.433 C 
HETATM   13  F   UNL     1     -44.919 -47.280   8.264  1.00  0.00    -0.165 F 
HETATM   14  F   UNL     1     -43.163 -46.035   7.918  1.00  0.00    -0.165 F 
HETATM   15  F   UNL     1     -43.183 -48.116   7.247  1.00  0.00    -0.165 F 
ENDBRANCH   9  12
ENDBRANCH   5   6
ENDBRANCH   2   5
BRANCH   1  16
HETATM   16  C   UNL     1     -42.845 -51.889  13.758  1.00  0.00     0.084 C 
HETATM   17  C   UNL     1     -43.141 -53.349  13.399  1.00  0.00     0.025 C 
HETATM   18  C   UNL     1     -44.321 -53.496  12.437  1.00  0.00     0.006 C 
HETATM   19  C   UNL     1     -45.589 -52.787  12.933  1.00  0.00    -0.019 C 
HETATM   20  C   UNL     1     -46.228 -53.533  14.108  1.00  0.00     0.010 C 
HETATM   21  C   UNL     1     -45.288 -51.322  13.281  1.00  0.00     0.006 C 
HETATM   22  C   UNL     1     -44.105 -51.155  14.236  1.00  0.00     0.025 C 
ENDBRANCH   1  16
TORSDOF 4
ENDMDL
MODEL 3
REMARK VINA RESULT:      -6.3      2.069      2.908
REMARK  4 active torsions:
REMARK  status: ('A' for Active; 'I' for Inactive)
REMARK    1  A    between atoms: C_5  and  N_8 
REMARK       I    between atoms: N_8  and  C_9 
REMARK    2  A    between atoms: C_9  and  C_11 
REMARK    3  A    between atoms: C_11  and  N_12 
REMARK    4  A    between atoms: C_15  and  C_18 
ROOT
HETATM    1  N   UNL     1     -41.614 -49.549  12.297  1.00  0.00    -0.355 N 
HETATM    2  C   UNL     1     -42.222 -48.327  12.079  1.00  0.00     0.237 C 
HETATM    3  O   UNL     1     -43.019 -47.814  12.862  1.00  0.00    -0.272 OA
HETATM    4  H   UNL     1     -41.220 -50.011  11.486  1.00  0.00     0.162 HD
ENDROOT
BRANCH   2   5
HETATM    5  C   UNL     1     -41.817 -47.651  10.790  1.00  0.00     0.250 C 
BRANCH   5   6
HETATM    6  N   UNL     1     -42.992 -47.271  10.039  1.00  0.00    -0.294 N 
HETATM    7  C   UNL     1     -43.208 -46.087   9.399  1.00  0.00     0.113 A 
HETATM    8  C   UNL     1     -44.479 -46.158   8.888  1.00  0.00     0.054 A 
HETATM    9  C   UNL     1     -44.965 -47.445   9.250  1.00  0.00     0.133 A 
HETATM   10  N   UNL     1     -44.026 -48.132   9.938  1.00  0.00    -0.294 N 
ATOM     11  HN  UNL     1     -44.085 -49.084  10.299  1.00  0.00     0.187 HD
BRANCH   9  12
HETATM   12  C   UNL     1     -46.329 -48.004   8.945  1.00  0.00     0.433 C 
HETATM   13  F   UNL     1     -46.393 -48.533   7.691  1.00  0.00    -0.165 F 
HETATM   14  F   UNL     1     -46.687 -48.999   9.799  1.00  0.00    -0.165 F 
HETATM   15  F   UNL     1     -47.304 -47.057   9.009  1.00  0.00    -0.165 F 
ENDBRANCH   9  12
ENDBRANCH   5   6
ENDBRANCH   2   5
BRANCH   1  16
HETATM   16  C   UNL     1     -41.948 -50.377  13.453  1.00  0.00     0.084 C 
HETATM   17  C   UNL     1     -40.697 -51.090  13.976  1.00  0.00     0.025 C 
HETATM   18  C   UNL     1     -40.241 -52.234  13.069  1.00  0.00     0.006 C 
HETATM   19  C   UNL     1     -41.360 -53.241  12.770  1.00  0.00    -0.019 C 
HETATM   20  C   UNL     1     -41.679 -54.107  13.993  1.00  0.00     0.010 C 
HETATM   21  C   UNL     1     -42.607 -52.523  12.235  1.00  0.00     0.006 C 
HETATM   22  C   UNL     1     -43.072 -51.371  13.127  1.00  0.00     0.025 C 
ENDBRANCH   1  16
TORSDOF 4
ENDMDL
MODEL 4
REMARK VINA RESULT:      -6.1      3.637      4.184
REMARK  4 active torsions:
REMARK  status: ('A' for Active; 'I' for Inactive)
REMARK    1  A    between atoms: C_5  and  N_8 
REMARK       I    between atoms: N_8  and  C_9 
REMARK    2  A    between atoms: C_9  and  C_11 
REMARK    3  A    between atoms: C_11  and  N_12 
REMARK    4  A    between atoms: C_15  and  C_18 
ROOT
HETATM    1  N   UNL     1     -41.176 -47.609  11.500  1.00  0.00    -0.355 N 
HETATM    2  C   UNL     1     -41.342 -46.411  10.833  1.00  0.00     0.237 C 
HETATM    3  O   UNL     1     -40.417 -45.780  10.327  1.00  0.00    -0.272 OA
HETATM    4  H   UNL     1     -41.927 -47.891  12.121  1.00  0.00     0.162 HD
ENDROOT
BRANCH   2   5
HETATM    5  C   UNL     1     -42.773 -45.932  10.759  1.00  0.00     0.250 C 
BRANCH   5   6
HETATM    6  N   UNL     1     -43.517 -46.734   9.814  1.00  0.00    -0.294 N 
HETATM    7  C   UNL     1     -43.098 -47.153   8.586  1.00  0.00     0.113 A 
HETATM    8  C   UNL     1     -44.159 -47.822   8.031  1.00  0.00     0.054 A 
HETATM    9  C   UNL     1     -45.190 -47.782   9.010  1.00  0.00     0.133 A 
HETATM   10  N   UNL     1     -44.770 -47.130  10.117  1.00  0.00    -0.294 N 
ATOM     11  HN  UNL     1     -45.284 -46.973  10.983  1.00  0.00     0.187 HD
BRANCH   9  12
HETATM   12  C   UNL     1     -46.575 -48.358   8.874  1.00  0.00     0.433 C 
HETATM   13  F   UNL     1     -46.772 -48.922   7.649  1.00  0.00    -0.165 F 
HETATM   14  F   UNL     1     -46.826 -49.331   9.789  1.00  0.00    -0.165 F 
HETATM   15  F   UNL     1     -47.546 -47.416   9.020  1.00  0.00    -0.165 F 
ENDBRANCH   9  12
ENDBRANCH   5   6
ENDBRANCH   2   5
BRANCH   1  16
HETATM   16  C   UNL     1     -39.853 -48.181  11.736  1.00  0.00     0.084 C 
HETATM   17  C   UNL     1     -39.844 -49.670  11.377  1.00  0.00     0.025 C 
HETATM   18  C   UNL     1     -40.589 -50.532  12.398  1.00  0.00     0.006 C 
HETATM   19  C   UNL     1     -40.099 -50.313  13.836  1.00  0.00    -0.019 C 
HETATM   20  C   UNL     1     -38.717 -50.934  14.060  1.00  0.00     0.010 C 
HETATM   21  C   UNL     1     -40.121 -48.820  14.194  1.00  0.00     0.006 C 
HETATM   22  C   UNL     1     -39.386 -47.942  13.179  1.00  0.00     0.025 C 
ENDBRANCH   1  16
TORSDOF 4
ENDMDL
MODEL 5
REMARK VINA RESULT:      -5.8      3.567      4.196
REMARK  4 active torsions:
REMARK  status: ('A' for Active; 'I' for Inactive)
REMARK    1  A    between atoms: C_5  and  N_8 
REMARK       I    between atoms: N_8  and  C_9 
REMARK    2  A    between atoms: C_9  and  C_11 
REMARK    3  A    between atoms: C_11  and  N_12 
REMARK    4  A    between atoms: C_15  and  C_18 
ROOT
HETATM    1  N   UNL     1     -42.494 -51.198  12.495  1.00  0.00    -0.355 N 
HETATM    2  C   UNL     1     -41.638 -50.114  12.472  1.00  0.00     0.237 C 
HETATM    3  O   UNL     1     -41.320 -49.476  13.474  1.00  0.00    -0.272 OA
HETATM    4  H   UNL     1     -42.917 -51.461  11.612  1.00  0.00     0.162 HD
ENDROOT
BRANCH   2   5
HETATM    5  C   UNL     1     -41.102 -49.772  11.102  1.00  0.00     0.250 C 
BRANCH   5   6
HETATM    6  N   UNL     1     -41.276 -48.361  10.839  1.00  0.00    -0.294 N 
HETATM    7  C   UNL     1     -42.390 -47.751  10.344  1.00  0.00     0.113 A 
HETATM    8  C   UNL     1     -42.064 -46.425  10.202  1.00  0.00     0.054 A 
HETATM    9  C   UNL     1     -40.723 -46.310  10.661  1.00  0.00     0.133 A 
HETATM   10  N   UNL     1     -40.257 -47.509  11.076  1.00  0.00    -0.294 N 
ATOM     11  HN  UNL     1     -39.344 -47.721  11.477  1.00  0.00     0.187 HD
BRANCH   9  12
HETATM   12  C   UNL     1     -39.892 -45.055  10.686  1.00  0.00     0.433 C 
HETATM   13  F   UNL     1     -40.665 -43.933  10.655  1.00  0.00    -0.165 F 
HETATM   14  F   UNL     1     -39.125 -44.961  11.804  1.00  0.00    -0.165 F 
HETATM   15  F   UNL     1     -39.051 -44.967   9.620  1.00  0.00    -0.165 F 
ENDBRANCH   9  12
ENDBRANCH   5   6
ENDBRANCH   2   5
BRANCH   1  16
HETATM   16  C   UNL     1     -43.167 -51.620  13.720  1.00  0.00     0.084 C 
HETATM   17  C   UNL     1     -43.357 -53.140  13.728  1.00  0.00     0.025 C 
HETATM   18  C   UNL     1     -44.447 -53.608  12.762  1.00  0.00     0.006 C 
HETATM   19  C   UNL     1     -45.785 -52.889  12.978  1.00  0.00    -0.019 C 
HETATM   20  C   UNL     1     -46.477 -53.360  14.261  1.00  0.00     0.010 C 
HETATM   21  C   UNL     1     -45.591 -51.366  12.958  1.00  0.00     0.006 C 
HETATM   22  C   UNL     1     -44.499 -50.881  13.913  1.00  0.00     0.025 C 
ENDBRANCH   1  16
TORSDOF 4
ENDMDL
MODEL 6
REMARK VINA RESULT:      -5.7      5.065      5.882
REMARK  4 active torsions:
REMARK  status: ('A' for Active; 'I' for Inactive)
REMARK    1  A    between atoms: C_5  and  N_8 
REMARK       I    between atoms: N_8  and  C_9 
REMARK    2  A    between atoms: C_9  and  C_11 
REMARK    3  A    between atoms: C_11  and  N_12 
REMARK    4  A    between atoms: C_15  and  C_18 
ROOT
HETATM    1  N   UNL     1     -43.306 -53.056  13.255  1.00  0.00    -0.355 N 
HETATM    2  C   UNL     1     -42.033 -53.589  13.197  1.00  0.00     0.237 C 
HETATM    3  O   UNL     1     -41.624 -54.457  13.966  1.00  0.00    -0.272 OA
HETATM    4  H   UNL     1     -43.446 -52.165  12.791  1.00  0.00     0.162 HD
ENDROOT
BRANCH   2   5
HETATM    5  C   UNL     1     -41.170 -53.026  12.093  1.00  0.00     0.250 C 
BRANCH   5   6
HETATM    6  N   UNL     1     -40.234 -52.067  12.635  1.00  0.00    -0.294 N 
HETATM    7  C   UNL     1     -39.864 -51.931  13.940  1.00  0.00     0.113 A 
HETATM    8  C   UNL     1     -39.014 -50.854  13.983  1.00  0.00     0.054 A 
HETATM    9  C   UNL     1     -38.904 -50.401  12.638  1.00  0.00     0.133 A 
HETATM   10  N   UNL     1     -39.642 -51.176  11.813  1.00  0.00    -0.294 N 
ATOM     11  HN  UNL     1     -39.730 -51.105  10.800  1.00  0.00     0.187 HD
BRANCH   9  12
HETATM   12  C   UNL     1     -38.102 -49.222  12.156  1.00  0.00     0.433 C 
HETATM   13  F   UNL     1     -37.449 -48.599  13.178  1.00  0.00    -0.165 F 
HETATM   14  F   UNL     1     -37.150 -49.574  11.252  1.00  0.00    -0.165 F 
HETATM   15  F   UNL     1     -38.878 -48.273  11.566  1.00  0.00    -0.165 F 
ENDBRANCH   9  12
ENDBRANCH   5   6
ENDBRANCH   2   5
BRANCH   1  16
HETATM   16  C   UNL     1     -44.248 -53.426  14.308  1.00  0.00     0.084 C 
HETATM   17  C   UNL     1     -45.659 -53.580  13.731  1.00  0.00     0.025 C 
HETATM   18  C   UNL     1     -46.308 -52.239  13.382  1.00  0.00     0.006 C 
HETATM   19  C   UNL     1     -46.301 -51.249  14.555  1.00  0.00    -0.019 C 
HETATM   20  C   UNL     1     -47.308 -51.652  15.637  1.00  0.00     0.010 C 
HETATM   21  C   UNL     1     -44.884 -51.090  15.122  1.00  0.00     0.006 C 
HETATM   22  C   UNL     1     -44.216 -52.422  15.469  1.00  0.00     0.025 C 
ENDBRANCH   1  16
TORSDOF 4
ENDMDL
MODEL 7
REMARK VINA RESULT:      -5.5      4.199      6.633
REMARK  4 active torsions:
REMARK  status: ('A' for Active; 'I' for Inactive)
REMARK    1  A    between atoms: C_5  and  N_8 
REMARK       I    between atoms: N_8  and  C_9 
REMARK    2  A    between atoms: C_9  and  C_11 
REMARK    3  A    between atoms: C_11  and  N_12 
REMARK    4  A    between atoms: C_15  and  C_18 
ROOT
HETATM    1  N   UNL     1     -40.406 -51.071  13.310  1.00  0.00    -0.355 N 
HETATM    2  C   UNL     1     -40.881 -52.344  13.064  1.00  0.00     0.237 C 
HETATM    3  O   UNL     1     -40.503 -53.342  13.675  1.00  0.00    -0.272 OA
HETATM    4  H   UNL     1     -40.550 -50.383  12.578  1.00  0.00     0.162 HD
ENDROOT
BRANCH   2   5
HETATM    5  C   UNL     1     -41.928 -52.420  11.977  1.00  0.00     0.250 C 
BRANCH   5   6
HETATM    6  N   UNL     1     -43.208 -52.776  12.545  1.00  0.00    -0.294 N 
HETATM    7  C   UNL     1     -43.721 -54.031  12.689  1.00  0.00     0.113 A 
HETATM    8  C   UNL     1     -44.981 -53.868  13.210  1.00  0.00     0.054 A 
HETATM    9  C   UNL     1     -45.148 -52.465  13.374  1.00  0.00     0.133 A 
HETATM   10  N   UNL     1     -44.035 -51.805  12.984  1.00  0.00    -0.294 N 
ATOM     11  HN  UNL     1     -43.860 -50.800  13.015  1.00  0.00     0.187 HD
BRANCH   9  12
HETATM   12  C   UNL     1     -46.377 -51.766  13.892  1.00  0.00     0.433 C 
HETATM   13  F   UNL     1     -47.082 -51.171  12.889  1.00  0.00    -0.165 F 
HETATM   14  F   UNL     1     -47.236 -52.617  14.512  1.00  0.00    -0.165 F 
HETATM   15  F   UNL     1     -46.078 -50.783  14.784  1.00  0.00    -0.165 F 
ENDBRANCH   9  12
ENDBRANCH   5   6
ENDBRANCH   2   5
BRANCH   1  16
HETATM   16  C   UNL     1     -39.335 -50.822  14.271  1.00  0.00     0.084 C 
HETATM   17  C   UNL     1     -39.685 -49.625  15.162  1.00  0.00     0.025 C 
HETATM   18  C   UNL     1     -39.575 -48.287  14.430  1.00  0.00     0.006 C 
HETATM   19  C   UNL     1     -38.211 -48.086  13.755  1.00  0.00    -0.019 C 
HETATM   20  C   UNL     1     -37.109 -47.813  14.784  1.00  0.00     0.010 C 
HETATM   21  C   UNL     1     -37.870 -49.282  12.855  1.00  0.00     0.006 C 
HETATM   22  C   UNL     1     -37.983 -50.630  13.570  1.00  0.00     0.025 C 
ENDBRANCH   1  16
TORSDOF 4
ENDMDL
MODEL 8
REMARK VINA RESULT:      -5.4      2.385      3.138
REMARK  4 active torsions:
REMARK  status: ('A' for Active; 'I' for Inactive)
REMARK    1  A    between atoms: C_5  and  N_8 
REMARK       I    between atoms: N_8  and  C_9 
REMARK    2  A    between atoms: C_9  and  C_11 
REMARK    3  A    between atoms: C_11  and  N_12 
REMARK    4  A    between atoms: C_15  and  C_18 
ROOT
HETATM    1  N   UNL     1     -41.795 -50.951  13.239  1.00  0.00    -0.355 N 
HETATM    2  C   UNL     1     -41.994 -49.642  12.845  1.00  0.00     0.237 C 
HETATM    3  O   UNL     1     -43.000 -48.993  13.124  1.00  0.00    -0.272 OA
HETATM    4  H   UNL     1     -41.099 -51.480  12.724  1.00  0.00     0.162 HD
ENDROOT
BRANCH   2   5
HETATM    5  C   UNL     1     -40.858 -49.053  12.043  1.00  0.00     0.250 C 
BRANCH   5   6
HETATM    6  N   UNL     1     -41.373 -48.131  11.056  1.00  0.00    -0.294 N 
HETATM    7  C   UNL     1     -40.897 -46.886  10.770  1.00  0.00     0.113 A 
HETATM    8  C   UNL     1     -41.741 -46.366   9.821  1.00  0.00     0.054 A 
HETATM    9  C   UNL     1     -42.703 -47.383   9.567  1.00  0.00     0.133 A 
HETATM   10  N   UNL     1     -42.448 -48.477  10.318  1.00  0.00    -0.294 N 
ATOM     11  HN  UNL     1     -42.953 -49.363  10.325  1.00  0.00     0.187 HD
BRANCH   9  12
HETATM   12  C   UNL     1     -43.867 -47.294   8.617  1.00  0.00     0.433 C 
HETATM   13  F   UNL     1     -43.710 -48.116   7.542  1.00  0.00    -0.165 F 
HETATM   14  F   UNL     1     -45.043 -47.646   9.201  1.00  0.00    -0.165 F 
HETATM   15  F   UNL     1     -44.033 -46.039   8.116  1.00  0.00    -0.165 F 
ENDBRANCH   9  12
ENDBRANCH   5   6
ENDBRANCH   2   5
BRANCH   1  16
HETATM   16  C   UNL     1     -42.823 -51.704  13.953  1.00  0.00     0.084 C 
HETATM   17  C   UNL     1     -42.321 -52.105  15.343  1.00  0.00     0.025 C 
HETATM   18  C   UNL     1     -41.284 -53.229  15.300  1.00  0.00     0.006 C 
HETATM   19  C   UNL     1     -41.767 -54.457  14.517  1.00  0.00    -0.019 C 
HETATM   20  C   UNL     1     -42.833 -55.236  15.294  1.00  0.00     0.010 C 
HETATM   21  C   UNL     1     -42.259 -54.051  13.120  1.00  0.00     0.006 C 
HETATM   22  C   UNL     1     -43.291 -52.923  13.145  1.00  0.00     0.025 C 
ENDBRANCH   1  16
TORSDOF 4
ENDMDL
MODEL 9
REMARK VINA RESULT:      -5.4      7.251      8.311
REMARK  4 active torsions:
REMARK  status: ('A' for Active; 'I' for Inactive)
REMARK    1  A    between atoms: C_5  and  N_8 
REMARK       I    between atoms: N_8  and  C_9 
REMARK    2  A    between atoms: C_9  and  C_11 
REMARK    3  A    between atoms: C_11  and  N_12 
REMARK    4  A    between atoms: C_15  and  C_18 
ROOT
HETATM    1  N   UNL     1     -44.431 -53.591  14.508  1.00  0.00    -0.355 N 
HETATM    2  C   UNL     1     -43.427 -54.539  14.454  1.00  0.00     0.237 C 
HETATM    3  O   UNL     1     -43.471 -55.613  15.051  1.00  0.00    -0.272 OA
HETATM    4  H   UNL     1     -44.179 -52.647  14.237  1.00  0.00     0.162 HD
ENDROOT
BRANCH   2   5
HETATM    5  C   UNL     1     -42.255 -54.157  13.580  1.00  0.00     0.250 C 
BRANCH   5   6
HETATM    6  N   UNL     1     -41.053 -54.060  14.377  1.00  0.00    -0.294 N 
HETATM    7  C   UNL     1     -40.195 -53.002  14.441  1.00  0.00     0.113 A 
HETATM    8  C   UNL     1     -39.173 -53.393  15.269  1.00  0.00     0.054 A 
HETATM    9  C   UNL     1     -39.503 -54.712  15.686  1.00  0.00     0.133 A 
HETATM   10  N   UNL     1     -40.680 -55.101  15.149  1.00  0.00    -0.294 N 
ATOM     11  HN  UNL     1     -41.174 -55.981  15.294  1.00  0.00     0.187 HD
BRANCH   9  12
HETATM   12  C   UNL     1     -38.681 -55.596  16.588  1.00  0.00     0.433 C 
HETATM   13  F   UNL     1     -37.454 -55.861  16.058  1.00  0.00    -0.165 F 
HETATM   14  F   UNL     1     -38.460 -55.034  17.806  1.00  0.00    -0.165 F 
HETATM   15  F   UNL     1     -39.270 -56.802  16.809  1.00  0.00    -0.165 F 
ENDBRANCH   9  12
ENDBRANCH   5   6
ENDBRANCH   2   5
BRANCH   1  16
HETATM   16  C   UNL     1     -45.601 -53.759  15.366  1.00  0.00     0.084 C 
HETATM   17  C   UNL     1     -46.846 -53.176  14.690  1.00  0.00     0.025 C 
HETATM   18  C   UNL     1     -46.856 -51.646  14.682  1.00  0.00     0.006 C 
HETATM   19  C   UNL     1     -46.656 -51.040  16.078  1.00  0.00    -0.019 C 
HETATM   20  C   UNL     1     -47.902 -51.217  16.951  1.00  0.00     0.010 C 
HETATM   21  C   UNL     1     -45.402 -51.620  16.746  1.00  0.00     0.006 C 
HETATM   22  C   UNL     1     -45.371 -53.149  16.756  1.00  0.00     0.025 C 
ENDBRANCH   1  16
TORSDOF 4
ENDMDL
