MODEL 1
REMARK VINA RESULT:      -5.4      0.000      0.000
REMARK  4 active torsions:
REMARK  status: ('A' for Active; 'I' for Inactive)
REMARK    1  A    between atoms: C_5  and  C_6 
REMARK    2  A    between atoms: C_6  and  C_7 
REMARK    3  A    between atoms: C_7  and  N_8 
REMARK       I    between atoms: N_8  and  C_9 
REMARK    4  A    between atoms: C_9  and  C_11 
ROOT
HETATM    1  C   UNL     1     -40.092 -50.012  11.139  1.00  0.00     0.129 C 
ENDROOT
BRANCH   1   2
HETATM    2  C   UNL     1     -40.644 -48.712  11.719  1.00  0.00     0.084 C 
BRANCH   2   3
HETATM    3  C   UNL     1     -41.816 -48.215  10.931  1.00  0.00     0.052 A 
HETATM    4  S   UNL     1     -43.176 -47.540  11.737  1.00  0.00    -0.087 SA
HETATM    5  C   UNL     1     -43.938 -47.305  10.223  1.00  0.00     0.076 A 
HETATM    6  C   UNL     1     -43.122 -47.751   9.202  1.00  0.00     0.012 A 
HETATM    7  C   UNL     1     -43.430 -47.732   7.750  1.00  0.00     0.068 C 
HETATM    8  N   UNL     1     -41.901 -48.263   9.619  1.00  0.00    -0.357 N 
ATOM      9  HN  UNL     1     -41.176 -48.624   8.998  1.00  0.00     0.166 HD
ENDBRANCH   2   3
ENDBRANCH   1   2
BRANCH   1  10
HETATM   10  N   UNL     1     -40.951 -51.150  11.436  1.00  0.00    -0.360 N 
HETATM   11  C   UNL     1     -40.567 -52.127  12.329  1.00  0.00     0.224 C 
HETATM   12  O   UNL     1     -39.474 -52.121  12.885  1.00  0.00    -0.273 OA
HETATM   13  H   UNL     1     -41.879 -51.173  11.031  1.00  0.00     0.162 HD
BRANCH  11  14
HETATM   14  C   UNL     1     -41.599 -53.218  12.535  1.00  0.00     0.103 C 
HETATM   15  C   UNL     1     -42.984 -52.681  12.842  1.00  0.00     0.042 C 
HETATM   16  C   UNL     1     -43.563 -53.656  13.851  1.00  0.00     0.168 C 
HETATM   17  O   UNL     1     -42.554 -54.622  14.155  1.00  0.00    -0.390 OA
HETATM   18  C   UNL     1     -41.296 -54.074  13.746  1.00  0.00     0.181 C 
ENDBRANCH  11  14
ENDBRANCH   1  10
TORSDOF 4
ENDMDL
MODEL 2
REMARK VINA RESULT:      -5.1      4.658      6.632
REMARK  4 active torsions:
REMARK  status: ('A' for Active; 'I' for Inactive)
REMARK    1  A    between atoms: C_5  and  C_6 
REMARK    2  A    between atoms: C_6  and  C_7 
REMARK    3  A    between atoms: C_7  and  N_8 
REMARK       I    between atoms: N_8  and  C_9 
REMARK    4  A    between atoms: C_9  and  C_11 
ROOT
HETATM    1  C   UNL     1     -42.310 -45.663  11.442  1.00  0.00     0.129 C 
ENDROOT
BRANCH   1   2
HETATM    2  C   UNL     1     -40.864 -45.839  10.983  1.00  0.00     0.084 C 
BRANCH   2   3
HETATM    3  C   UNL     1     -40.201 -46.980  11.689  1.00  0.00     0.052 A 
HETATM    4  S   UNL     1     -40.391 -47.176  13.386  1.00  0.00    -0.087 SA
HETATM    5  C   UNL     1     -39.379 -48.554  13.327  1.00  0.00     0.076 A 
HETATM    6  C   UNL     1     -38.957 -48.782  12.031  1.00  0.00     0.012 A 
HETATM    7  C   UNL     1     -38.059 -49.871  11.571  1.00  0.00     0.068 C 
HETATM    8  N   UNL     1     -39.442 -47.878  11.097  1.00  0.00    -0.357 N 
ATOM      9  HN  UNL     1     -39.240 -47.905  10.097  1.00  0.00     0.166 HD
ENDBRANCH   2   3
ENDBRANCH   1   2
BRANCH   1  10
HETATM   10  N   UNL     1     -43.254 -46.268  10.512  1.00  0.00    -0.360 N 
HETATM   11  C   UNL     1     -43.855 -45.529   9.515  1.00  0.00     0.224 C 
HETATM   12  O   UNL     1     -43.669 -44.325   9.383  1.00  0.00    -0.273 OA
HETATM   13  H   UNL     1     -43.405 -47.268  10.560  1.00  0.00     0.162 HD
BRANCH  11  14
HETATM   14  C   UNL     1     -44.785 -46.331   8.627  1.00  0.00     0.103 C 
HETATM   15  C   UNL     1     -46.069 -46.744   9.321  1.00  0.00     0.042 C 
HETATM   16  C   UNL     1     -46.370 -48.131   8.785  1.00  0.00     0.168 C 
HETATM   17  O   UNL     1     -45.297 -48.509   7.920  1.00  0.00    -0.390 OA
HETATM   18  C   UNL     1     -44.184 -47.659   8.216  1.00  0.00     0.181 C 
ENDBRANCH  11  14
ENDBRANCH   1  10
TORSDOF 4
ENDMDL
MODEL 3
REMARK VINA RESULT:      -5.1      3.759      4.305
REMARK  4 active torsions:
REMARK  status: ('A' for Active; 'I' for Inactive)
REMARK    1  A    between atoms: C_5  and  C_6 
REMARK    2  A    between atoms: C_6  and  C_7 
REMARK    3  A    between atoms: C_7  and  N_8 
REMARK       I    between atoms: N_8  and  C_9 
REMARK    4  A    between atoms: C_9  and  C_11 
ROOT
HETATM    1  C   UNL     1     -41.168 -47.174  11.009  1.00  0.00     0.129 C 
ENDROOT
BRANCH   1   2
HETATM    2  C   UNL     1     -42.269 -48.170  10.653  1.00  0.00     0.084 C 
BRANCH   2   3
HETATM    3  C   UNL     1     -43.434 -47.489  10.005  1.00  0.00     0.052 A 
HETATM    4  S   UNL     1     -43.255 -45.914   9.340  1.00  0.00    -0.087 SA
HETATM    5  C   UNL     1     -44.909 -45.928   8.898  1.00  0.00     0.076 A 
HETATM    6  C   UNL     1     -45.495 -47.119   9.280  1.00  0.00     0.012 A 
HETATM    7  C   UNL     1     -46.915 -47.508   9.088  1.00  0.00     0.068 C 
HETATM    8  N   UNL     1     -44.638 -48.013   9.907  1.00  0.00    -0.357 N 
ATOM      9  HN  UNL     1     -44.902 -48.939  10.242  1.00  0.00     0.166 HD
ENDBRANCH   2   3
ENDBRANCH   1   2
BRANCH   1  10
HETATM   10  N   UNL     1     -39.910 -47.839  11.318  1.00  0.00    -0.360 N 
HETATM   11  C   UNL     1     -39.535 -48.100  12.620  1.00  0.00     0.224 C 
HETATM   12  O   UNL     1     -40.208 -47.750  13.583  1.00  0.00    -0.273 OA
HETATM   13  H   UNL     1     -39.344 -48.183  10.552  1.00  0.00     0.162 HD
BRANCH  11  14
HETATM   14  C   UNL     1     -38.210 -48.824  12.748  1.00  0.00     0.103 C 
HETATM   15  C   UNL     1     -37.931 -49.772  11.597  1.00  0.00     0.042 C 
HETATM   16  C   UNL     1     -37.231 -50.959  12.233  1.00  0.00     0.168 C 
HETATM   17  O   UNL     1     -37.193 -50.739  13.645  1.00  0.00    -0.390 OA
HETATM   18  C   UNL     1     -38.171 -49.740  13.953  1.00  0.00     0.181 C 
ENDBRANCH  11  14
ENDBRANCH   1  10
TORSDOF 4
ENDMDL
MODEL 4
REMARK VINA RESULT:      -5.1      3.809      5.185
REMARK  4 active torsions:
REMARK  status: ('A' for Active; 'I' for Inactive)
REMARK    1  A    between atoms: C_5  and  C_6 
REMARK    2  A    between atoms: C_6  and  C_7 
REMARK    3  A    between atoms: C_7  and  N_8 
REMARK       I    between atoms: N_8  and  C_9 
REMARK    4  A    between atoms: C_9  and  C_11 
ROOT
HETATM    1  C   UNL     1     -42.356 -53.007  13.189  1.00  0.00     0.129 C 
ENDROOT
BRANCH   1   2
HETATM    2  C   UNL     1     -41.787 -52.169  12.047  1.00  0.00     0.084 C 
BRANCH   2   3
HETATM    3  C   UNL     1     -40.410 -51.676  12.363  1.00  0.00     0.052 A 
HETATM    4  S   UNL     1     -39.667 -52.083  13.858  1.00  0.00    -0.087 SA
HETATM    5  C   UNL     1     -38.293 -51.169  13.409  1.00  0.00     0.076 A 
HETATM    6  C   UNL     1     -38.477 -50.610  12.159  1.00  0.00     0.012 A 
HETATM    7  C   UNL     1     -37.522 -49.740  11.428  1.00  0.00     0.068 C 
HETATM    8  N   UNL     1     -39.693 -50.915  11.563  1.00  0.00    -0.357 N 
ATOM      9  HN  UNL     1     -39.987 -50.596  10.640  1.00  0.00     0.166 HD
ENDBRANCH   2   3
ENDBRANCH   1   2
BRANCH   1  10
HETATM   10  N   UNL     1     -43.714 -52.610  13.534  1.00  0.00    -0.360 N 
HETATM   11  C   UNL     1     -44.806 -53.332  13.101  1.00  0.00     0.224 C 
HETATM   12  O   UNL     1     -44.703 -54.312  12.372  1.00  0.00    -0.273 OA
HETATM   13  H   UNL     1     -43.843 -51.832  14.168  1.00  0.00     0.162 HD
BRANCH  11  14
HETATM   14  C   UNL     1     -46.137 -52.787  13.580  1.00  0.00     0.103 C 
HETATM   15  C   UNL     1     -46.040 -51.383  14.146  1.00  0.00     0.042 C 
HETATM   16  C   UNL     1     -47.019 -51.364  15.306  1.00  0.00     0.168 C 
HETATM   17  O   UNL     1     -47.565 -52.679  15.439  1.00  0.00    -0.390 OA
HETATM   18  C   UNL     1     -46.696 -53.579  14.743  1.00  0.00     0.181 C 
ENDBRANCH  11  14
ENDBRANCH   1  10
TORSDOF 4
ENDMDL
MODEL 5
REMARK VINA RESULT:      -5.0      1.894      2.647
REMARK  4 active torsions:
REMARK  status: ('A' for Active; 'I' for Inactive)
REMARK    1  A    between atoms: C_5  and  C_6 
REMARK    2  A    between atoms: C_6  and  C_7 
REMARK    3  A    between atoms: C_7  and  N_8 
REMARK       I    between atoms: N_8  and  C_9 
REMARK    4  A    between atoms: C_9  and  C_11 
ROOT
HETATM    1  C   UNL     1     -43.076 -49.504  12.265  1.00  0.00     0.129 C 
ENDROOT
BRANCH   1   2
HETATM    2  C   UNL     1     -42.610 -48.129  11.794  1.00  0.00     0.084 C 
BRANCH   2   3
HETATM    3  C   UNL     1     -43.478 -47.605  10.692  1.00  0.00     0.052 A 
HETATM    4  S   UNL     1     -42.944 -46.292   9.720  1.00  0.00    -0.087 SA
HETATM    5  C   UNL     1     -44.418 -46.353   8.852  1.00  0.00     0.076 A 
HETATM    6  C   UNL     1     -45.223 -47.359   9.349  1.00  0.00     0.012 A 
HETATM    7  C   UNL     1     -46.583 -47.720   8.874  1.00  0.00     0.068 C 
HETATM    8  N   UNL     1     -44.671 -48.078  10.399  1.00  0.00    -0.357 N 
ATOM      9  HN  UNL     1     -45.124 -48.859  10.875  1.00  0.00     0.166 HD
ENDBRANCH   2   3
ENDBRANCH   1   2
BRANCH   1  10
HETATM   10  N   UNL     1     -41.992 -50.477  12.265  1.00  0.00    -0.360 N 
HETATM   11  C   UNL     1     -42.232 -51.821  12.457  1.00  0.00     0.224 C 
HETATM   12  O   UNL     1     -43.352 -52.267  12.682  1.00  0.00    -0.273 OA
HETATM   13  H   UNL     1     -41.057 -50.158  12.042  1.00  0.00     0.162 HD
BRANCH  11  14
HETATM   14  C   UNL     1     -40.989 -52.686  12.397  1.00  0.00     0.103 C 
HETATM   15  C   UNL     1     -41.181 -54.056  13.020  1.00  0.00     0.042 C 
HETATM   16  C   UNL     1     -39.858 -54.362  13.697  1.00  0.00     0.168 C 
HETATM   17  O   UNL     1     -39.012 -53.221  13.543  1.00  0.00    -0.390 OA
HETATM   18  C   UNL     1     -39.847 -52.108  13.205  1.00  0.00     0.181 C 
ENDBRANCH  11  14
ENDBRANCH   1  10
TORSDOF 4
ENDMDL
MODEL 6
REMARK VINA RESULT:      -5.0      1.779      2.052
REMARK  4 active torsions:
REMARK  status: ('A' for Active; 'I' for Inactive)
REMARK    1  A    between atoms: C_5  and  C_6 
REMARK    2  A    between atoms: C_6  and  C_7 
REMARK    3  A    between atoms: C_7  and  N_8 
REMARK       I    between atoms: N_8  and  C_9 
REMARK    4  A    between atoms: C_9  and  C_11 
ROOT
HETATM    1  C   UNL     1     -41.384 -49.967  12.340  1.00  0.00     0.129 C 
ENDROOT
BRANCH   1   2
HETATM    2  C   UNL     1     -40.798 -49.447  11.030  1.00  0.00     0.084 C 
BRANCH   2   3
HETATM    3  C   UNL     1     -41.491 -48.200  10.576  1.00  0.00     0.052 A 
HETATM    4  S   UNL     1     -40.862 -46.657  11.000  1.00  0.00    -0.087 SA
HETATM    5  C   UNL     1     -42.165 -45.916  10.175  1.00  0.00     0.076 A 
HETATM    6  C   UNL     1     -42.996 -46.876   9.631  1.00  0.00     0.012 A 
HETATM    7  C   UNL     1     -44.238 -46.635   8.855  1.00  0.00     0.068 C 
HETATM    8  N   UNL     1     -42.595 -48.185   9.859  1.00  0.00    -0.357 N 
ATOM      9  HN  UNL     1     -43.085 -49.013   9.521  1.00  0.00     0.166 HD
ENDBRANCH   2   3
ENDBRANCH   1   2
BRANCH   1  10
HETATM   10  N   UNL     1     -42.534 -50.832  12.117  1.00  0.00    -0.360 N 
HETATM   11  C   UNL     1     -42.659 -52.044  12.763  1.00  0.00     0.224 C 
HETATM   12  O   UNL     1     -41.799 -52.480  13.520  1.00  0.00    -0.273 OA
HETATM   13  H   UNL     1     -43.288 -50.492  11.532  1.00  0.00     0.162 HD
BRANCH  11  14
HETATM   14  C   UNL     1     -43.934 -52.794  12.431  1.00  0.00     0.103 C 
HETATM   15  C   UNL     1     -45.165 -52.206  13.094  1.00  0.00     0.042 C 
HETATM   16  C   UNL     1     -46.020 -53.406  13.457  1.00  0.00     0.168 C 
HETATM   17  O   UNL     1     -45.292 -54.585  13.104  1.00  0.00    -0.390 OA
HETATM   18  C   UNL     1     -43.917 -54.214  12.954  1.00  0.00     0.181 C 
ENDBRANCH  11  14
ENDBRANCH   1  10
TORSDOF 4
ENDMDL
MODEL 7
REMARK VINA RESULT:      -4.9      2.807      4.085
REMARK  4 active torsions:
REMARK  status: ('A' for Active; 'I' for Inactive)
REMARK    1  A    between atoms: C_5  and  C_6 
REMARK    2  A    between atoms: C_6  and  C_7 
REMARK    3  A    between atoms: C_7  and  N_8 
REMARK       I    between atoms: N_8  and  C_9 
REMARK    4  A    between atoms: C_9  and  C_11 
ROOT
HETATM    1  C   UNL     1     -42.702 -52.684  12.192  1.00  0.00     0.129 C 
ENDROOT
BRANCH   1   2
HETATM    2  C   UNL     1     -41.573 -51.962  12.923  1.00  0.00     0.084 C 
BRANCH   2   3
HETATM    3  C   UNL     1     -41.545 -50.505  12.582  1.00  0.00     0.052 A 
HETATM    4  S   UNL     1     -41.135 -49.343  13.781  1.00  0.00    -0.087 SA
HETATM    5  C   UNL     1     -41.366 -48.096  12.632  1.00  0.00     0.076 A 
HETATM    6  C   UNL     1     -41.739 -48.631  11.415  1.00  0.00     0.012 A 
HETATM    7  C   UNL     1     -42.045 -47.877  10.173  1.00  0.00     0.068 C 
HETATM    8  N   UNL     1     -41.830 -50.015  11.394  1.00  0.00    -0.357 N 
ATOM      9  HN  UNL     1     -42.082 -50.572  10.577  1.00  0.00     0.166 HD
ENDBRANCH   2   3
ENDBRANCH   1   2
BRANCH   1  10
HETATM   10  N   UNL     1     -44.010 -52.338  12.730  1.00  0.00    -0.360 N 
HETATM   11  C   UNL     1     -44.992 -53.290  12.904  1.00  0.00     0.224 C 
HETATM   12  O   UNL     1     -44.840 -54.462  12.578  1.00  0.00    -0.273 OA
HETATM   13  H   UNL     1     -44.164 -51.390  13.052  1.00  0.00     0.162 HD
BRANCH  11  14
HETATM   14  C   UNL     1     -46.276 -52.752  13.502  1.00  0.00     0.103 C 
HETATM   15  C   UNL     1     -46.127 -51.362  14.089  1.00  0.00     0.042 C 
HETATM   16  C   UNL     1     -47.009 -51.366  15.324  1.00  0.00     0.168 C 
HETATM   17  O   UNL     1     -47.548 -52.682  15.472  1.00  0.00    -0.390 OA
HETATM   18  C   UNL     1     -46.744 -53.569  14.688  1.00  0.00     0.181 C 
ENDBRANCH  11  14
ENDBRANCH   1  10
TORSDOF 4
ENDMDL
MODEL 8
REMARK VINA RESULT:      -4.8      2.102      2.595
REMARK  4 active torsions:
REMARK  status: ('A' for Active; 'I' for Inactive)
REMARK    1  A    between atoms: C_5  and  C_6 
REMARK    2  A    between atoms: C_6  and  C_7 
REMARK    3  A    between atoms: C_7  and  N_8 
REMARK       I    between atoms: N_8  and  C_9 
REMARK    4  A    between atoms: C_9  and  C_11 
ROOT
HETATM    1  C   UNL     1     -41.422 -50.163  12.593  1.00  0.00     0.129 C 
ENDROOT
BRANCH   1   2
HETATM    2  C   UNL     1     -40.798 -49.772  11.255  1.00  0.00     0.084 C 
BRANCH   2   3
HETATM    3  C   UNL     1     -41.029 -48.326  10.946  1.00  0.00     0.052 A 
HETATM    4  S   UNL     1     -42.578 -47.788  10.431  1.00  0.00    -0.087 SA
HETATM    5  C   UNL     1     -41.966 -46.196  10.297  1.00  0.00     0.076 A 
HETATM    6  C   UNL     1     -40.630 -46.166  10.647  1.00  0.00     0.012 A 
HETATM    7  C   UNL     1     -39.741 -44.977  10.648  1.00  0.00     0.068 C 
HETATM    8  N   UNL     1     -40.104 -47.393  11.027  1.00  0.00    -0.357 N 
ATOM      9  HN  UNL     1     -39.141 -47.548  11.326  1.00  0.00     0.166 HD
ENDBRANCH   2   3
ENDBRANCH   1   2
BRANCH   1  10
HETATM   10  N   UNL     1     -42.640 -50.941  12.419  1.00  0.00    -0.360 N 
HETATM   11  C   UNL     1     -42.633 -52.317  12.502  1.00  0.00     0.224 C 
HETATM   12  O   UNL     1     -41.606 -52.962  12.679  1.00  0.00    -0.273 OA
HETATM   13  H   UNL     1     -43.518 -50.447  12.313  1.00  0.00     0.162 HD
BRANCH  11  14
HETATM   14  C   UNL     1     -43.996 -52.955  12.324  1.00  0.00     0.103 C 
HETATM   15  C   UNL     1     -45.108 -52.198  13.026  1.00  0.00     0.042 C 
HETATM   16  C   UNL     1     -46.042 -53.276  13.545  1.00  0.00     0.168 C 
HETATM   17  O   UNL     1     -45.462 -54.545  13.235  1.00  0.00    -0.390 OA
HETATM   18  C   UNL     1     -44.075 -54.329  12.956  1.00  0.00     0.181 C 
ENDBRANCH  11  14
ENDBRANCH   1  10
TORSDOF 4
ENDMDL
MODEL 9
REMARK VINA RESULT:      -4.8      3.012      5.266
REMARK  4 active torsions:
REMARK  status: ('A' for Active; 'I' for Inactive)
REMARK    1  A    between atoms: C_5  and  C_6 
REMARK    2  A    between atoms: C_6  and  C_7 
REMARK    3  A    between atoms: C_7  and  N_8 
REMARK       I    between atoms: N_8  and  C_9 
REMARK    4  A    between atoms: C_9  and  C_11 
ROOT
HETATM    1  C   UNL     1     -42.355 -52.994  14.069  1.00  0.00     0.129 C 
ENDROOT
BRANCH   1   2
HETATM    2  C   UNL     1     -43.504 -53.775  13.435  1.00  0.00     0.084 C 
BRANCH   2   3
HETATM    3  C   UNL     1     -44.730 -52.928  13.295  1.00  0.00     0.052 A 
HETATM    4  S   UNL     1     -45.407 -52.152  14.672  1.00  0.00    -0.087 SA
HETATM    5  C   UNL     1     -46.647 -51.510  13.682  1.00  0.00     0.076 A 
HETATM    6  C   UNL     1     -46.476 -51.920  12.375  1.00  0.00     0.012 A 
HETATM    7  C   UNL     1     -47.349 -51.588  11.221  1.00  0.00     0.068 C 
HETATM    8  N   UNL     1     -45.367 -52.727  12.161  1.00  0.00    -0.357 N 
ATOM      9  HN  UNL     1     -45.086 -53.108  11.257  1.00  0.00     0.166 HD
ENDBRANCH   2   3
ENDBRANCH   1   2
BRANCH   1  10
HETATM   10  N   UNL     1     -41.973 -51.839  13.268  1.00  0.00    -0.360 N 
HETATM   11  C   UNL     1     -40.881 -51.876  12.427  1.00  0.00     0.224 C 
HETATM   12  O   UNL     1     -40.148 -52.855  12.340  1.00  0.00    -0.273 OA
HETATM   13  H   UNL     1     -42.574 -51.024  13.277  1.00  0.00     0.162 HD
BRANCH  11  14
HETATM   14  C   UNL     1     -40.653 -50.594  11.651  1.00  0.00     0.103 C 
HETATM   15  C   UNL     1     -39.266 -50.013  11.849  1.00  0.00     0.042 C 
HETATM   16  C   UNL     1     -39.474 -48.510  11.863  1.00  0.00     0.168 C 
HETATM   17  O   UNL     1     -40.878 -48.261  11.766  1.00  0.00    -0.390 OA
HETATM   18  C   UNL     1     -41.556 -49.472  12.119  1.00  0.00     0.181 C 
ENDBRANCH  11  14
ENDBRANCH   1  10
TORSDOF 4
ENDMDL
