MODEL 1
REMARK VINA RESULT:      -5.9      0.000      0.000
REMARK  5 active torsions:
REMARK  status: ('A' for Active; 'I' for Inactive)
REMARK    1  A    between atoms: N_6  and  C_7 
REMARK    2  A    between atoms: C_7  and  C_8 
REMARK    3  A    between atoms: C_8  and  N_9 
REMARK       I    between atoms: N_9  and  C_10 
REMARK    4  A    between atoms: C_10  and  C_12 
REMARK    5  A    between atoms: C_12  and  N_13 
ROOT
HETATM    1  N   UNL     1     -42.353 -49.631  11.610  1.00  0.00    -0.358 N 
HETATM    2  C   UNL     1     -42.627 -48.302  11.371  1.00  0.00     0.237 C 
HETATM    3  O   UNL     1     -43.121 -47.559  12.215  1.00  0.00    -0.272 OA
HETATM    4  H   UNL     1     -41.976 -50.221  10.880  1.00  0.00     0.162 HD
ENDROOT
BRANCH   1   5
HETATM    5  C   UNL     1     -42.624 -50.243  12.901  1.00  0.00     0.152 C 
BRANCH   5   6
HETATM    6  C   UNL     1     -42.833 -51.770  12.822  1.00  0.00     0.292 C 
BRANCH   6   7
HETATM    7  N   UNL     1     -44.170 -52.206  13.276  1.00  0.00     0.090 N 
HETATM    8  C   UNL     1     -45.148 -51.108  13.282  1.00  0.00     0.272 C 
HETATM    9  C   UNL     1     -46.537 -51.579  13.714  1.00  0.00     0.031 C 
HETATM   10  C   UNL     1     -46.495 -52.286  15.062  1.00  0.00     0.007 C 
HETATM   11  C   UNL     1     -45.433 -53.392  15.083  1.00  0.00     0.010 C 
HETATM   12  C   UNL     1     -45.864 -54.603  14.250  1.00  0.00     0.011 C 
HETATM   13  C   UNL     1     -44.078 -52.831  14.609  1.00  0.00     0.276 C 
ENDBRANCH   6   7
ENDBRANCH   5   6
ENDBRANCH   1   5
BRANCH   2  14
HETATM   14  C   UNL     1     -42.248 -47.808   9.996  1.00  0.00     0.249 C 
BRANCH  14  15
HETATM   15  N   UNL     1     -43.194 -46.832   9.523  1.00  0.00    -0.264 N 
HETATM   16  C   UNL     1     -44.489 -47.003   9.147  1.00  0.00     0.213 A 
HETATM   17  N   UNL     1     -44.988 -45.827   8.846  1.00  0.00    -0.281 N 
HETATM   18  N   UNL     1     -43.973 -44.922   9.047  1.00  0.00    -0.008 NA
ATOM     19  HN  UNL     1     -45.936 -45.625   8.529  1.00  0.00     0.184 HD
HETATM   20  N   UNL     1     -42.872 -45.529   9.469  1.00  0.00    -0.005 NA
ENDBRANCH  14  15
ENDBRANCH   2  14
TORSDOF 5
ENDMDL
MODEL 2
REMARK VINA RESULT:      -5.8      4.737      5.562
REMARK  5 active torsions:
REMARK  status: ('A' for Active; 'I' for Inactive)
REMARK    1  A    between atoms: N_6  and  C_7 
REMARK    2  A    between atoms: C_7  and  C_8 
REMARK    3  A    between atoms: C_8  and  N_9 
REMARK       I    between atoms: N_9  and  C_10 
REMARK    4  A    between atoms: C_10  and  C_12 
REMARK    5  A    between atoms: C_12  and  N_13 
ROOT
HETATM    1  N   UNL     1     -41.072 -52.873  14.006  1.00  0.00    -0.358 N 
HETATM    2  C   UNL     1     -39.713 -53.067  13.886  1.00  0.00     0.237 C 
HETATM    3  O   UNL     1     -39.217 -54.148  13.578  1.00  0.00    -0.272 OA
HETATM    4  H   UNL     1     -41.442 -51.976  14.293  1.00  0.00     0.162 HD
ENDROOT
BRANCH   1   5
HETATM    5  C   UNL     1     -42.019 -53.949  13.761  1.00  0.00     0.152 C 
BRANCH   5   6
HETATM    6  C   UNL     1     -43.144 -54.023  14.814  1.00  0.00     0.292 C 
BRANCH   6   7
HETATM    7  N   UNL     1     -44.406 -53.392  14.373  1.00  0.00     0.090 N 
HETATM    8  C   UNL     1     -44.541 -53.366  12.910  1.00  0.00     0.272 C 
HETATM    9  C   UNL     1     -45.868 -52.749  12.467  1.00  0.00     0.031 C 
HETATM   10  C   UNL     1     -46.066 -51.361  13.062  1.00  0.00     0.007 C 
HETATM   11  C   UNL     1     -45.865 -51.369  14.581  1.00  0.00     0.010 C 
HETATM   12  C   UNL     1     -47.033 -52.050  15.302  1.00  0.00     0.011 C 
HETATM   13  C   UNL     1     -44.519 -52.032  14.932  1.00  0.00     0.276 C 
ENDBRANCH   6   7
ENDBRANCH   5   6
ENDBRANCH   1   5
BRANCH   2  14
HETATM   14  C   UNL     1     -38.866 -51.842  14.131  1.00  0.00     0.249 C 
BRANCH  14  15
HETATM   15  N   UNL     1     -38.393 -51.289  12.890  1.00  0.00    -0.264 N 
HETATM   16  C   UNL     1     -38.992 -50.388  12.067  1.00  0.00     0.213 A 
HETATM   17  N   UNL     1     -38.169 -50.125  11.078  1.00  0.00    -0.281 N 
HETATM   18  N   UNL     1     -37.045 -50.883  11.308  1.00  0.00    -0.008 NA
ATOM     19  HN  UNL     1     -38.330 -49.487  10.299  1.00  0.00     0.184 HD
HETATM   20  N   UNL     1     -37.172 -51.594  12.421  1.00  0.00    -0.005 NA
ENDBRANCH  14  15
ENDBRANCH   2  14
TORSDOF 5
ENDMDL
MODEL 3
REMARK VINA RESULT:      -5.7      4.670      7.500
REMARK  5 active torsions:
REMARK  status: ('A' for Active; 'I' for Inactive)
REMARK    1  A    between atoms: N_6  and  C_7 
REMARK    2  A    between atoms: C_7  and  C_8 
REMARK    3  A    between atoms: C_8  and  N_9 
REMARK       I    between atoms: N_9  and  C_10 
REMARK    4  A    between atoms: C_10  and  C_12 
REMARK    5  A    between atoms: C_12  and  N_13 
ROOT
HETATM    1  N   UNL     1     -42.075 -54.229  12.956  1.00  0.00    -0.358 N 
HETATM    2  C   UNL     1     -42.650 -54.235  14.208  1.00  0.00     0.237 C 
HETATM    3  O   UNL     1     -42.112 -53.734  15.194  1.00  0.00    -0.272 OA
HETATM    4  H   UNL     1     -42.534 -54.679  12.175  1.00  0.00     0.162 HD
ENDROOT
BRANCH   1   5
HETATM    5  C   UNL     1     -40.782 -53.610  12.716  1.00  0.00     0.152 C 
BRANCH   5   6
HETATM    6  C   UNL     1     -40.879 -52.116  12.345  1.00  0.00     0.292 C 
BRANCH   6   7
HETATM    7  N   UNL     1     -39.602 -51.387  12.496  1.00  0.00     0.090 N 
HETATM    8  C   UNL     1     -39.217 -51.212  13.904  1.00  0.00     0.272 C 
HETATM    9  C   UNL     1     -37.875 -50.493  14.048  1.00  0.00     0.031 C 
HETATM   10  C   UNL     1     -37.870 -49.163  13.306  1.00  0.00     0.007 C 
HETATM   11  C   UNL     1     -38.330 -49.329  11.854  1.00  0.00     0.010 C 
HETATM   12  C   UNL     1     -37.263 -50.023  11.000  1.00  0.00     0.011 C 
HETATM   13  C   UNL     1     -39.672 -50.084  11.808  1.00  0.00     0.276 C 
ENDBRANCH   6   7
ENDBRANCH   5   6
ENDBRANCH   1   5
BRANCH   2  14
HETATM   14  C   UNL     1     -44.014 -54.878  14.285  1.00  0.00     0.249 C 
BRANCH  14  15
HETATM   15  N   UNL     1     -45.008 -54.048  13.657  1.00  0.00    -0.264 N 
HETATM   16  C   UNL     1     -46.115 -53.475  14.199  1.00  0.00     0.213 A 
HETATM   17  N   UNL     1     -46.699 -52.752  13.271  1.00  0.00    -0.281 N 
HETATM   18  N   UNL     1     -45.926 -52.889  12.142  1.00  0.00    -0.008 NA
ATOM     19  HN  UNL     1     -47.551 -52.201  13.369  1.00  0.00     0.184 HD
HETATM   20  N   UNL     1     -44.884 -53.676  12.372  1.00  0.00    -0.005 NA
ENDBRANCH  14  15
ENDBRANCH   2  14
TORSDOF 5
ENDMDL
MODEL 4
REMARK VINA RESULT:      -5.7      1.781      2.448
REMARK  5 active torsions:
REMARK  status: ('A' for Active; 'I' for Inactive)
REMARK    1  A    between atoms: N_6  and  C_7 
REMARK    2  A    between atoms: C_7  and  C_8 
REMARK    3  A    between atoms: C_8  and  N_9 
REMARK       I    between atoms: N_9  and  C_10 
REMARK    4  A    between atoms: C_10  and  C_12 
REMARK    5  A    between atoms: C_12  and  N_13 
ROOT
HETATM    1  N   UNL     1     -43.095 -48.619  11.687  1.00  0.00    -0.358 N 
HETATM    2  C   UNL     1     -42.202 -47.987  10.850  1.00  0.00     0.237 C 
HETATM    3  O   UNL     1     -41.016 -48.302  10.777  1.00  0.00    -0.272 OA
HETATM    4  H   UNL     1     -44.057 -48.310  11.744  1.00  0.00     0.162 HD
ENDROOT
BRANCH   1   5
HETATM    5  C   UNL     1     -42.688 -49.725  12.539  1.00  0.00     0.152 C 
BRANCH   5   6
HETATM    6  C   UNL     1     -43.876 -50.520  13.118  1.00  0.00     0.292 C 
BRANCH   6   7
HETATM    7  N   UNL     1     -43.647 -51.980  13.153  1.00  0.00     0.090 N 
HETATM    8  C   UNL     1     -44.901 -52.746  13.157  1.00  0.00     0.272 C 
HETATM    9  C   UNL     1     -44.652 -54.255  13.151  1.00  0.00     0.031 C 
HETATM   10  C   UNL     1     -43.745 -54.677  14.300  1.00  0.00     0.007 C 
HETATM   11  C   UNL     1     -42.462 -53.839  14.338  1.00  0.00     0.010 C 
HETATM   12  C   UNL     1     -41.509 -54.214  13.199  1.00  0.00     0.011 C 
HETATM   13  C   UNL     1     -42.812 -52.338  14.314  1.00  0.00     0.276 C 
ENDBRANCH   6   7
ENDBRANCH   5   6
ENDBRANCH   1   5
BRANCH   2  14
HETATM   14  C   UNL     1     -42.789 -46.887   9.999  1.00  0.00     0.249 C 
BRANCH  14  15
HETATM   15  N   UNL     1     -43.787 -47.409   9.104  1.00  0.00    -0.264 N 
HETATM   16  C   UNL     1     -43.648 -47.847   7.825  1.00  0.00     0.213 A 
HETATM   17  N   UNL     1     -44.813 -48.294   7.415  1.00  0.00    -0.281 N 
HETATM   18  N   UNL     1     -45.677 -48.124   8.471  1.00  0.00    -0.008 NA
ATOM     19  HN  UNL     1     -45.032 -48.687   6.500  1.00  0.00     0.184 HD
HETATM   20  N   UNL     1     -45.054 -47.589   9.513  1.00  0.00    -0.005 NA
ENDBRANCH  14  15
ENDBRANCH   2  14
TORSDOF 5
ENDMDL
MODEL 5
REMARK VINA RESULT:      -5.5      3.390      4.900
REMARK  5 active torsions:
REMARK  status: ('A' for Active; 'I' for Inactive)
REMARK    1  A    between atoms: N_6  and  C_7 
REMARK    2  A    between atoms: C_7  and  C_8 
REMARK    3  A    between atoms: C_8  and  N_9 
REMARK       I    between atoms: N_9  and  C_10 
REMARK    4  A    between atoms: C_10  and  C_12 
REMARK    5  A    between atoms: C_12  and  N_13 
ROOT
HETATM    1  N   UNL     1     -42.780 -48.608  10.966  1.00  0.00    -0.358 N 
HETATM    2  C   UNL     1     -42.605 -47.254  10.781  1.00  0.00     0.237 C 
HETATM    3  O   UNL     1     -42.201 -46.505  11.667  1.00  0.00    -0.272 OA
HETATM    4  H   UNL     1     -43.146 -49.187  10.222  1.00  0.00     0.162 HD
ENDROOT
BRANCH   1   5
HETATM    5  C   UNL     1     -42.481 -49.247  12.237  1.00  0.00     0.152 C 
BRANCH   5   6
HETATM    6  C   UNL     1     -41.634 -50.528  12.092  1.00  0.00     0.292 C 
BRANCH   6   7
HETATM    7  N   UNL     1     -40.240 -50.367  12.556  1.00  0.00     0.090 N 
HETATM    8  C   UNL     1     -39.362 -49.808  11.519  1.00  0.00     0.272 C 
HETATM    9  C   UNL     1     -37.932 -49.607  12.023  1.00  0.00     0.031 C 
HETATM   10  C   UNL     1     -37.355 -50.894  12.596  1.00  0.00     0.007 C 
HETATM   11  C   UNL     1     -38.294 -51.517  13.634  1.00  0.00     0.010 C 
HETATM   12  C   UNL     1     -38.300 -50.717  14.941  1.00  0.00     0.011 C 
HETATM   13  C   UNL     1     -39.713 -51.654  13.048  1.00  0.00     0.276 C 
ENDBRANCH   6   7
ENDBRANCH   5   6
ENDBRANCH   1   5
BRANCH   2  14
HETATM   14  C   UNL     1     -42.919 -46.750   9.393  1.00  0.00     0.249 C 
BRANCH  14  15
HETATM   15  N   UNL     1     -44.101 -47.385   8.873  1.00  0.00    -0.264 N 
HETATM   16  C   UNL     1     -44.271 -48.059   7.705  1.00  0.00     0.213 A 
HETATM   17  N   UNL     1     -45.500 -48.521   7.672  1.00  0.00    -0.281 N 
HETATM   18  N   UNL     1     -46.087 -48.118   8.849  1.00  0.00    -0.008 NA
ATOM     19  HN  UNL     1     -45.930 -49.068   6.927  1.00  0.00     0.184 HD
HETATM   20  N   UNL     1     -45.234 -47.427   9.593  1.00  0.00    -0.005 NA
ENDBRANCH  14  15
ENDBRANCH   2  14
TORSDOF 5
ENDMDL
MODEL 6
REMARK VINA RESULT:      -5.4      1.562      2.610
REMARK  5 active torsions:
REMARK  status: ('A' for Active; 'I' for Inactive)
REMARK    1  A    between atoms: N_6  and  C_7 
REMARK    2  A    between atoms: C_7  and  C_8 
REMARK    3  A    between atoms: C_8  and  N_9 
REMARK       I    between atoms: N_9  and  C_10 
REMARK    4  A    between atoms: C_10  and  C_12 
REMARK    5  A    between atoms: C_12  and  N_13 
ROOT
HETATM    1  N   UNL     1     -42.303 -49.826  11.710  1.00  0.00    -0.358 N 
HETATM    2  C   UNL     1     -42.775 -48.571  12.025  1.00  0.00     0.237 C 
HETATM    3  O   UNL     1     -42.946 -48.192  13.181  1.00  0.00    -0.272 OA
HETATM    4  H   UNL     1     -42.205 -50.115  10.746  1.00  0.00     0.162 HD
ENDROOT
BRANCH   1   5
HETATM    5  C   UNL     1     -41.960 -50.791  12.743  1.00  0.00     0.152 C 
BRANCH   5   6
HETATM    6  C   UNL     1     -42.245 -52.251  12.334  1.00  0.00     0.292 C 
BRANCH   6   7
HETATM    7  N   UNL     1     -43.251 -52.916  13.189  1.00  0.00     0.090 N 
HETATM    8  C   UNL     1     -42.791 -54.219  13.690  1.00  0.00     0.272 C 
HETATM    9  C   UNL     1     -43.822 -54.879  14.607  1.00  0.00     0.031 C 
HETATM   10  C   UNL     1     -45.178 -55.000  13.926  1.00  0.00     0.007 C 
HETATM   11  C   UNL     1     -45.637 -53.658  13.346  1.00  0.00     0.010 C 
HETATM   12  C   UNL     1     -46.067 -52.684  14.448  1.00  0.00     0.011 C 
HETATM   13  C   UNL     1     -44.527 -53.058  12.461  1.00  0.00     0.276 C 
ENDBRANCH   6   7
ENDBRANCH   5   6
ENDBRANCH   1   5
BRANCH   2  14
HETATM   14  C   UNL     1     -43.044 -47.672  10.842  1.00  0.00     0.249 C 
BRANCH  14  15
HETATM   15  N   UNL     1     -41.927 -46.798  10.599  1.00  0.00    -0.264 N 
HETATM   16  C   UNL     1     -40.605 -47.011  10.827  1.00  0.00     0.213 A 
HETATM   17  N   UNL     1     -39.940 -45.964  10.395  1.00  0.00    -0.281 N 
HETATM   18  N   UNL     1     -40.882 -45.097   9.893  1.00  0.00    -0.008 NA
ATOM     19  HN  UNL     1     -38.931 -45.822  10.426  1.00  0.00     0.184 HD
HETATM   20  N   UNL     1     -42.102 -45.605  10.008  1.00  0.00    -0.005 NA
ENDBRANCH  14  15
ENDBRANCH   2  14
TORSDOF 5
ENDMDL
MODEL 7
REMARK VINA RESULT:      -5.4      4.978      5.623
REMARK  5 active torsions:
REMARK  status: ('A' for Active; 'I' for Inactive)
REMARK    1  A    between atoms: N_6  and  C_7 
REMARK    2  A    between atoms: C_7  and  C_8 
REMARK    3  A    between atoms: C_8  and  N_9 
REMARK       I    between atoms: N_9  and  C_10 
REMARK    4  A    between atoms: C_10  and  C_12 
REMARK    5  A    between atoms: C_12  and  N_13 
ROOT
HETATM    1  N   UNL     1     -39.687 -52.230  13.692  1.00  0.00    -0.358 N 
HETATM    2  C   UNL     1     -38.891 -51.577  14.607  1.00  0.00     0.237 C 
HETATM    3  O   UNL     1     -38.770 -51.946  15.773  1.00  0.00    -0.272 OA
HETATM    4  H   UNL     1     -39.787 -51.877  12.749  1.00  0.00     0.162 HD
ENDROOT
BRANCH   1   5
HETATM    5  C   UNL     1     -40.437 -53.423  14.051  1.00  0.00     0.152 C 
BRANCH   5   6
HETATM    6  C   UNL     1     -41.304 -53.970  12.898  1.00  0.00     0.292 C 
BRANCH   6   7
HETATM    7  N   UNL     1     -42.755 -53.791  13.117  1.00  0.00     0.090 N 
HETATM    8  C   UNL     1     -43.181 -52.394  12.953  1.00  0.00     0.272 C 
HETATM    9  C   UNL     1     -44.690 -52.228  13.140  1.00  0.00     0.031 C 
HETATM   10  C   UNL     1     -45.152 -52.790  14.477  1.00  0.00     0.007 C 
HETATM   11  C   UNL     1     -44.659 -54.226  14.683  1.00  0.00     0.010 C 
HETATM   12  C   UNL     1     -45.416 -55.216  13.792  1.00  0.00     0.011 C 
HETATM   13  C   UNL     1     -43.138 -54.300  14.447  1.00  0.00     0.276 C 
ENDBRANCH   6   7
ENDBRANCH   5   6
ENDBRANCH   1   5
BRANCH   2  14
HETATM   14  C   UNL     1     -38.145 -50.380  14.068  1.00  0.00     0.249 C 
BRANCH  14  15
HETATM   15  N   UNL     1     -37.706 -50.615  12.718  1.00  0.00    -0.264 N 
HETATM   16  C   UNL     1     -37.885 -49.848  11.611  1.00  0.00     0.213 A 
HETATM   17  N   UNL     1     -37.261 -50.422  10.608  1.00  0.00    -0.281 N 
HETATM   18  N   UNL     1     -36.690 -51.563  11.121  1.00  0.00    -0.008 NA
ATOM     19  HN  UNL     1     -37.210 -50.089   9.646  1.00  0.00     0.184 HD
HETATM   20  N   UNL     1     -36.951 -51.685  12.415  1.00  0.00    -0.005 NA
ENDBRANCH  14  15
ENDBRANCH   2  14
TORSDOF 5
ENDMDL
MODEL 8
REMARK VINA RESULT:      -5.3      4.310      5.191
REMARK  5 active torsions:
REMARK  status: ('A' for Active; 'I' for Inactive)
REMARK    1  A    between atoms: N_6  and  C_7 
REMARK    2  A    between atoms: C_7  and  C_8 
REMARK    3  A    between atoms: C_8  and  N_9 
REMARK       I    between atoms: N_9  and  C_10 
REMARK    4  A    between atoms: C_10  and  C_12 
REMARK    5  A    between atoms: C_12  and  N_13 
ROOT
HETATM    1  N   UNL     1     -40.275 -50.201  14.040  1.00  0.00    -0.358 N 
HETATM    2  C   UNL     1     -39.861 -48.895  13.887  1.00  0.00     0.237 C 
HETATM    3  O   UNL     1     -40.628 -47.938  13.961  1.00  0.00    -0.272 OA
HETATM    4  H   UNL     1     -39.620 -50.965  13.940  1.00  0.00     0.162 HD
ENDROOT
BRANCH   1   5
HETATM    5  C   UNL     1     -41.664 -50.531  14.314  1.00  0.00     0.152 C 
BRANCH   5   6
HETATM    6  C   UNL     1     -42.006 -52.009  14.036  1.00  0.00     0.292 C 
BRANCH   6   7
HETATM    7  N   UNL     1     -43.458 -52.268  13.933  1.00  0.00     0.090 N 
HETATM    8  C   UNL     1     -43.765 -53.416  13.067  1.00  0.00     0.272 C 
HETATM    9  C   UNL     1     -45.266 -53.700  13.000  1.00  0.00     0.031 C 
HETATM   10  C   UNL     1     -46.051 -52.466  12.577  1.00  0.00     0.007 C 
HETATM   11  C   UNL     1     -45.690 -51.249  13.436  1.00  0.00     0.010 C 
HETATM   12  C   UNL     1     -46.271 -51.364  14.849  1.00  0.00     0.011 C 
HETATM   13  C   UNL     1     -44.161 -51.059  13.465  1.00  0.00     0.276 C 
ENDBRANCH   6   7
ENDBRANCH   5   6
ENDBRANCH   1   5
BRANCH   2  14
HETATM   14  C   UNL     1     -38.382 -48.715  13.650  1.00  0.00     0.249 C 
BRANCH  14  15
HETATM   15  N   UNL     1     -37.876 -49.735  12.770  1.00  0.00    -0.264 N 
HETATM   16  C   UNL     1     -37.747 -49.715  11.417  1.00  0.00     0.213 A 
HETATM   17  N   UNL     1     -37.182 -50.840  11.042  1.00  0.00    -0.281 N 
HETATM   18  N   UNL     1     -36.963 -51.557  12.195  1.00  0.00    -0.008 NA
ATOM     19  HN  UNL     1     -36.952 -51.123  10.090  1.00  0.00     0.184 HD
HETATM   20  N   UNL     1     -37.379 -50.883  13.259  1.00  0.00    -0.005 NA
ENDBRANCH  14  15
ENDBRANCH   2  14
TORSDOF 5
ENDMDL
MODEL 9
REMARK VINA RESULT:      -5.3      4.245      5.362
REMARK  5 active torsions:
REMARK  status: ('A' for Active; 'I' for Inactive)
REMARK    1  A    between atoms: N_6  and  C_7 
REMARK    2  A    between atoms: C_7  and  C_8 
REMARK    3  A    between atoms: C_8  and  N_9 
REMARK       I    between atoms: N_9  and  C_10 
REMARK    4  A    between atoms: C_10  and  C_12 
REMARK    5  A    between atoms: C_12  and  N_13 
ROOT
HETATM    1  N   UNL     1     -41.618 -46.883  10.886  1.00  0.00    -0.358 N 
HETATM    2  C   UNL     1     -41.916 -45.727  10.199  1.00  0.00     0.237 C 
HETATM    3  O   UNL     1     -41.062 -44.911   9.860  1.00  0.00    -0.272 OA
HETATM    4  H   UNL     1     -42.352 -47.515  11.177  1.00  0.00     0.162 HD
ENDROOT
BRANCH   1   5
HETATM    5  C   UNL     1     -40.251 -47.222  11.247  1.00  0.00     0.152 C 
BRANCH   5   6
HETATM    6  C   UNL     1     -40.030 -47.329  12.770  1.00  0.00     0.292 C 
BRANCH   6   7
HETATM    7  N   UNL     1     -39.431 -48.614  13.189  1.00  0.00     0.090 N 
HETATM    8  C   UNL     1     -38.128 -48.440  13.846  1.00  0.00     0.272 C 
HETATM    9  C   UNL     1     -37.537 -49.771  14.312  1.00  0.00     0.031 C 
HETATM   10  C   UNL     1     -37.447 -50.774  13.171  1.00  0.00     0.007 C 
HETATM   11  C   UNL     1     -38.788 -50.915  12.441  1.00  0.00     0.010 C 
HETATM   12  C   UNL     1     -39.812 -51.682  13.285  1.00  0.00     0.011 C 
HETATM   13  C   UNL     1     -39.316 -49.526  12.035  1.00  0.00     0.276 C 
ENDBRANCH   6   7
ENDBRANCH   5   6
ENDBRANCH   1   5
BRANCH   2  14
HETATM   14  C   UNL     1     -43.376 -45.540   9.862  1.00  0.00     0.249 C 
BRANCH  14  15
HETATM   15  N   UNL     1     -43.860 -46.631   9.059  1.00  0.00    -0.264 N 
HETATM   16  C   UNL     1     -45.072 -47.245   9.085  1.00  0.00     0.213 A 
HETATM   17  N   UNL     1     -45.095 -48.150   8.134  1.00  0.00    -0.281 N 
HETATM   18  N   UNL     1     -43.869 -48.082   7.517  1.00  0.00    -0.008 NA
ATOM     19  HN  UNL     1     -45.866 -48.775   7.901  1.00  0.00     0.184 HD
HETATM   20  N   UNL     1     -43.108 -47.148   8.073  1.00  0.00    -0.005 NA
ENDBRANCH  14  15
ENDBRANCH   2  14
TORSDOF 5
ENDMDL
