MODEL 1
REMARK VINA RESULT:      -6.1      0.000      0.000
REMARK  4 active torsions:
REMARK  status: ('A' for Active; 'I' for Inactive)
REMARK       I    between atoms: C_2  and  N_3 
REMARK       I    between atoms: C_2  and  N_12 
REMARK    1  A    between atoms: N_3  and  C_4 
REMARK    2  A    between atoms: C_4  and  C_5 
REMARK    3  A    between atoms: C_5  and  N_6 
REMARK    4  A    between atoms: N_12  and  C_13 
ROOT
HETATM    1  O   UNL     1     -42.295 -48.079  11.592  1.00  0.00    -0.247 OA
HETATM    2  C   UNL     1     -41.899 -48.435  10.490  1.00  0.00     0.320 C 
HETATM    3  N   UNL     1     -40.857 -49.327  10.320  1.00  0.00    -0.341 N 
HETATM    4  N   UNL     1     -42.428 -48.035   9.286  1.00  0.00    -0.306 N 
HETATM    5  H   UNL     1     -40.294 -49.169   9.499  1.00  0.00     0.164 HD
HETATM    6  H   UNL     1     -42.072 -48.446   8.438  1.00  0.00     0.171 HD
ENDROOT
BRANCH   3   7
HETATM    7  C   UNL     1     -40.135 -49.802  11.494  1.00  0.00     0.154 C 
BRANCH   7   8
HETATM    8  C   UNL     1     -40.535 -51.234  11.914  1.00  0.00     0.292 C 
BRANCH   8   9
HETATM    9  N   UNL     1     -41.220 -51.348  13.221  1.00  0.00     0.090 N 
HETATM   10  C   UNL     1     -40.698 -52.504  13.976  1.00  0.00     0.272 C 
HETATM   11  C   UNL     1     -41.122 -53.872  13.420  1.00  0.00     0.030 C 
HETATM   12  C   UNL     1     -42.633 -53.964  13.228  1.00  0.00     0.003 C 
HETATM   13  C   UNL     1     -43.171 -52.753  12.472  1.00  0.00     0.030 C 
HETATM   14  C   UNL     1     -42.685 -51.454  13.116  1.00  0.00     0.272 C 
ENDBRANCH   8   9
ENDBRANCH   7   8
ENDBRANCH   3   7
BRANCH   4  15
HETATM   15  C   UNL     1     -43.493 -47.162   9.177  1.00  0.00     0.070 A 
HETATM   16  C   UNL     1     -44.861 -47.391   8.909  1.00  0.00     0.138 A 
HETATM   17  N   UNL     1     -45.573 -46.258   8.886  1.00  0.00    -0.310 N 
HETATM   18  N   UNL     1     -44.658 -45.310   9.139  1.00  0.00    -0.310 N 
ATOM     19  HN  UNL     1     -46.572 -46.143   8.716  1.00  0.00     0.186 HD
HETATM   20  C   UNL     1     -43.396 -45.800   9.320  1.00  0.00     0.138 A 
HETATM   21  H   UNL     1     -44.970 -44.345   9.176  1.00  0.00     0.186 HD
ENDBRANCH   4  15
TORSDOF 4
ENDMDL
MODEL 2
REMARK VINA RESULT:      -5.8      0.817      1.585
REMARK  4 active torsions:
REMARK  status: ('A' for Active; 'I' for Inactive)
REMARK       I    between atoms: C_2  and  N_3 
REMARK       I    between atoms: C_2  and  N_12 
REMARK    1  A    between atoms: N_3  and  C_4 
REMARK    2  A    between atoms: C_4  and  C_5 
REMARK    3  A    between atoms: C_5  and  N_6 
REMARK    4  A    between atoms: N_12  and  C_13 
ROOT
HETATM    1  O   UNL     1     -42.157 -47.504  11.522  1.00  0.00    -0.247 OA
HETATM    2  C   UNL     1     -41.952 -48.170  10.515  1.00  0.00     0.320 C 
HETATM    3  N   UNL     1     -40.944 -49.112  10.433  1.00  0.00    -0.341 N 
HETATM    4  N   UNL     1     -42.683 -48.103   9.353  1.00  0.00    -0.306 N 
HETATM    5  H   UNL     1     -40.532 -49.212   9.518  1.00  0.00     0.164 HD
HETATM    6  H   UNL     1     -42.473 -48.748   8.609  1.00  0.00     0.171 HD
ENDROOT
BRANCH   3   7
HETATM    7  C   UNL     1     -40.027 -49.267  11.556  1.00  0.00     0.154 C 
BRANCH   7   8
HETATM    8  C   UNL     1     -40.383 -50.460  12.470  1.00  0.00     0.292 C 
BRANCH   8   9
HETATM    9  N   UNL     1     -41.555 -51.260  12.048  1.00  0.00     0.090 N 
HETATM   10  C   UNL     1     -42.635 -51.157  13.050  1.00  0.00     0.272 C 
HETATM   11  C   UNL     1     -42.359 -51.904  14.363  1.00  0.00     0.030 C 
HETATM   12  C   UNL     1     -41.957 -53.356  14.119  1.00  0.00     0.003 C 
HETATM   13  C   UNL     1     -40.862 -53.458  13.063  1.00  0.00     0.030 C 
HETATM   14  C   UNL     1     -41.249 -52.679  11.804  1.00  0.00     0.272 C 
ENDBRANCH   8   9
ENDBRANCH   7   8
ENDBRANCH   3   7
BRANCH   4  15
HETATM   15  C   UNL     1     -43.761 -47.256   9.182  1.00  0.00     0.070 A 
HETATM   16  C   UNL     1     -43.825 -45.861   8.967  1.00  0.00     0.138 A 
HETATM   17  N   UNL     1     -45.084 -45.421   8.853  1.00  0.00    -0.310 N 
HETATM   18  N   UNL     1     -45.819 -46.535   8.994  1.00  0.00    -0.310 N 
ATOM     19  HN  UNL     1     -45.407 -44.467   8.695  1.00  0.00     0.186 HD
HETATM   20  C   UNL     1     -45.074 -47.661   9.194  1.00  0.00     0.138 A 
HETATM   21  H   UNL     1     -46.828 -46.449   8.939  1.00  0.00     0.186 HD
ENDBRANCH   4  15
TORSDOF 4
ENDMDL
MODEL 3
REMARK VINA RESULT:      -5.7      2.876      6.235
REMARK  4 active torsions:
REMARK  status: ('A' for Active; 'I' for Inactive)
REMARK       I    between atoms: C_2  and  N_3 
REMARK       I    between atoms: C_2  and  N_12 
REMARK    1  A    between atoms: N_3  and  C_4 
REMARK    2  A    between atoms: C_4  and  C_5 
REMARK    3  A    between atoms: C_5  and  N_6 
REMARK    4  A    between atoms: N_12  and  C_13 
ROOT
HETATM    1  O   UNL     1     -42.342 -51.810  13.583  1.00  0.00    -0.247 OA
HETATM    2  C   UNL     1     -42.353 -52.240  12.437  1.00  0.00     0.320 C 
HETATM    3  N   UNL     1     -41.317 -52.028  11.547  1.00  0.00    -0.341 N 
HETATM    4  N   UNL     1     -43.356 -52.999  11.880  1.00  0.00    -0.306 N 
HETATM    5  H   UNL     1     -41.598 -51.943  10.583  1.00  0.00     0.164 HD
HETATM    6  H   UNL     1     -43.229 -53.362  10.949  1.00  0.00     0.171 HD
ENDROOT
BRANCH   3   7
HETATM    7  C   UNL     1     -40.199 -51.184  11.952  1.00  0.00     0.154 C 
BRANCH   7   8
HETATM    8  C   UNL     1     -40.282 -49.752  11.380  1.00  0.00     0.292 C 
BRANCH   8   9
HETATM    9  N   UNL     1     -41.072 -48.789  12.180  1.00  0.00     0.090 N 
HETATM   10  C   UNL     1     -42.386 -48.554  11.549  1.00  0.00     0.272 C 
HETATM   11  C   UNL     1     -42.333 -47.726  10.256  1.00  0.00     0.030 C 
HETATM   12  C   UNL     1     -41.561 -46.424  10.446  1.00  0.00     0.003 C 
HETATM   13  C   UNL     1     -40.217 -46.669  11.124  1.00  0.00     0.030 C 
HETATM   14  C   UNL     1     -40.396 -47.500  12.396  1.00  0.00     0.272 C 
ENDBRANCH   8   9
ENDBRANCH   7   8
ENDBRANCH   3   7
BRANCH   4  15
HETATM   15  C   UNL     1     -44.495 -53.372  12.565  1.00  0.00     0.070 A 
HETATM   16  C   UNL     1     -44.779 -54.512  13.350  1.00  0.00     0.138 A 
HETATM   17  N   UNL     1     -46.022 -54.494  13.844  1.00  0.00    -0.310 N 
HETATM   18  N   UNL     1     -46.528 -53.343  13.375  1.00  0.00    -0.310 N 
ATOM     19  HN  UNL     1     -46.477 -55.188  14.437  1.00  0.00     0.186 HD
HETATM   20  C   UNL     1     -45.653 -52.634  12.602  1.00  0.00     0.138 A 
HETATM   21  H   UNL     1     -47.481 -53.104  13.627  1.00  0.00     0.186 HD
ENDBRANCH   4  15
TORSDOF 4
ENDMDL
MODEL 4
REMARK VINA RESULT:      -5.6      3.937      6.324
REMARK  4 active torsions:
REMARK  status: ('A' for Active; 'I' for Inactive)
REMARK       I    between atoms: C_2  and  N_3 
REMARK       I    between atoms: C_2  and  N_12 
REMARK    1  A    between atoms: N_3  and  C_4 
REMARK    2  A    between atoms: C_4  and  C_5 
REMARK    3  A    between atoms: C_5  and  N_6 
REMARK    4  A    between atoms: N_12  and  C_13 
ROOT
HETATM    1  O   UNL     1     -42.507 -52.664  13.792  1.00  0.00    -0.247 OA
HETATM    2  C   UNL     1     -42.818 -52.727  12.610  1.00  0.00     0.320 C 
HETATM    3  N   UNL     1     -41.954 -52.381  11.588  1.00  0.00    -0.341 N 
HETATM    4  N   UNL     1     -44.030 -53.161  12.127  1.00  0.00    -0.306 N 
HETATM    5  H   UNL     1     -42.397 -51.979  10.777  1.00  0.00     0.164 HD
HETATM    6  H   UNL     1     -44.154 -53.241  11.131  1.00  0.00     0.171 HD
ENDROOT
BRANCH   3   7
HETATM    7  C   UNL     1     -40.644 -51.834  11.924  1.00  0.00     0.154 C 
BRANCH   7   8
HETATM    8  C   UNL     1     -40.659 -50.302  12.122  1.00  0.00     0.292 C 
BRANCH   8   9
HETATM    9  N   UNL     1     -39.538 -49.566  11.497  1.00  0.00     0.090 N 
HETATM   10  C   UNL     1     -38.251 -50.206  11.834  1.00  0.00     0.272 C 
HETATM   11  C   UNL     1     -37.809 -50.019  13.293  1.00  0.00     0.030 C 
HETATM   12  C   UNL     1     -37.832 -48.552  13.711  1.00  0.00     0.003 C 
HETATM   13  C   UNL     1     -39.152 -47.888  13.334  1.00  0.00     0.030 C 
HETATM   14  C   UNL     1     -39.485 -48.141  11.863  1.00  0.00     0.272 C 
ENDBRANCH   8   9
ENDBRANCH   7   8
ENDBRANCH   3   7
BRANCH   4  15
HETATM   15  C   UNL     1     -45.062 -53.586  12.939  1.00  0.00     0.070 A 
HETATM   16  C   UNL     1     -45.304 -54.829  13.566  1.00  0.00     0.138 A 
HETATM   17  N   UNL     1     -46.437 -54.830  14.277  1.00  0.00    -0.310 N 
HETATM   18  N   UNL     1     -46.916 -53.588  14.103  1.00  0.00    -0.310 N 
ATOM     19  HN  UNL     1     -46.841 -55.592  14.821  1.00  0.00     0.186 HD
HETATM   20  C   UNL     1     -46.130 -52.804  13.309  1.00  0.00     0.138 A 
HETATM   21  H   UNL     1     -47.788 -53.346  14.561  1.00  0.00     0.186 HD
ENDBRANCH   4  15
TORSDOF 4
ENDMDL
MODEL 5
REMARK VINA RESULT:      -5.5      2.293      3.931
REMARK  4 active torsions:
REMARK  status: ('A' for Active; 'I' for Inactive)
REMARK       I    between atoms: C_2  and  N_3 
REMARK       I    between atoms: C_2  and  N_12 
REMARK    1  A    between atoms: N_3  and  C_4 
REMARK    2  A    between atoms: C_4  and  C_5 
REMARK    3  A    between atoms: C_5  and  N_6 
REMARK    4  A    between atoms: N_12  and  C_13 
ROOT
HETATM    1  O   UNL     1     -42.655 -48.516  11.564  1.00  0.00    -0.247 OA
HETATM    2  C   UNL     1     -42.008 -48.582  10.527  1.00  0.00     0.320 C 
HETATM    3  N   UNL     1     -40.897 -49.392  10.388  1.00  0.00    -0.341 N 
HETATM    4  N   UNL     1     -42.291 -47.900   9.367  1.00  0.00    -0.306 N 
HETATM    5  H   UNL     1     -40.182 -49.028   9.777  1.00  0.00     0.164 HD
HETATM    6  H   UNL     1     -41.733 -48.084   8.549  1.00  0.00     0.171 HD
ENDROOT
BRANCH   3   7
HETATM    7  C   UNL     1     -40.415 -50.137  11.545  1.00  0.00     0.154 C 
BRANCH   7   8
HETATM    8  C   UNL     1     -39.287 -49.409  12.309  1.00  0.00     0.292 C 
BRANCH   8   9
HETATM    9  N   UNL     1     -39.520 -49.212  13.757  1.00  0.00     0.090 N 
HETATM   10  C   UNL     1     -40.304 -47.982  13.988  1.00  0.00     0.272 C 
HETATM   11  C   UNL     1     -39.530 -46.678  13.742  1.00  0.00     0.030 C 
HETATM   12  C   UNL     1     -38.206 -46.650  14.500  1.00  0.00     0.003 C 
HETATM   13  C   UNL     1     -37.414 -47.934  14.280  1.00  0.00     0.030 C 
HETATM   14  C   UNL     1     -38.285 -49.161  14.556  1.00  0.00     0.272 C 
ENDBRANCH   8   9
ENDBRANCH   7   8
ENDBRANCH   3   7
BRANCH   4  15
HETATM   15  C   UNL     1     -43.363 -47.040   9.234  1.00  0.00     0.070 A 
HETATM   16  C   UNL     1     -43.466 -45.644   9.419  1.00  0.00     0.138 A 
HETATM   17  N   UNL     1     -44.703 -45.189   9.187  1.00  0.00    -0.310 N 
HETATM   18  N   UNL     1     -45.385 -46.295   8.853  1.00  0.00    -0.310 N 
ATOM     19  HN  UNL     1     -45.045 -44.230   9.248  1.00  0.00     0.186 HD
HETATM   20  C   UNL     1     -44.628 -47.431   8.867  1.00  0.00     0.138 A 
HETATM   21  H   UNL     1     -46.369 -46.197   8.625  1.00  0.00     0.186 HD
ENDBRANCH   4  15
TORSDOF 4
ENDMDL
MODEL 6
REMARK VINA RESULT:      -5.5      2.049      3.045
REMARK  4 active torsions:
REMARK  status: ('A' for Active; 'I' for Inactive)
REMARK       I    between atoms: C_2  and  N_3 
REMARK       I    between atoms: C_2  and  N_12 
REMARK    1  A    between atoms: N_3  and  C_4 
REMARK    2  A    between atoms: C_4  and  C_5 
REMARK    3  A    between atoms: C_5  and  N_6 
REMARK    4  A    between atoms: N_12  and  C_13 
ROOT
HETATM    1  O   UNL     1     -42.495 -46.739  11.572  1.00  0.00    -0.247 OA
HETATM    2  C   UNL     1     -41.845 -46.817  10.538  1.00  0.00     0.320 C 
HETATM    3  N   UNL     1     -40.471 -46.969  10.526  1.00  0.00    -0.341 N 
HETATM    4  N   UNL     1     -42.365 -46.788   9.265  1.00  0.00    -0.306 N 
HETATM    5  H   UNL     1     -40.002 -46.526   9.751  1.00  0.00     0.164 HD
HETATM    6  H   UNL     1     -41.745 -46.933   8.485  1.00  0.00     0.171 HD
ENDROOT
BRANCH   3   7
HETATM    7  C   UNL     1     -39.746 -46.952  11.792  1.00  0.00     0.154 C 
BRANCH   7   8
HETATM    8  C   UNL     1     -39.737 -48.322  12.505  1.00  0.00     0.292 C 
BRANCH   8   9
HETATM    9  N   UNL     1     -39.380 -49.481  11.656  1.00  0.00     0.090 N 
HETATM   10  C   UNL     1     -40.213 -50.649  12.005  1.00  0.00     0.272 C 
HETATM   11  C   UNL     1     -39.873 -51.293  13.358  1.00  0.00     0.030 C 
HETATM   12  C   UNL     1     -38.385 -51.609  13.480  1.00  0.00     0.003 C 
HETATM   13  C   UNL     1     -37.530 -50.408  13.091  1.00  0.00     0.030 C 
HETATM   14  C   UNL     1     -37.958 -49.855  11.730  1.00  0.00     0.272 C 
ENDBRANCH   8   9
ENDBRANCH   7   8
ENDBRANCH   3   7
BRANCH   4  15
HETATM   15  C   UNL     1     -43.714 -46.666   8.999  1.00  0.00     0.070 A 
HETATM   16  C   UNL     1     -44.571 -45.543   9.025  1.00  0.00     0.138 A 
HETATM   17  N   UNL     1     -45.831 -45.856   8.700  1.00  0.00    -0.310 N 
HETATM   18  N   UNL     1     -45.775 -47.176   8.467  1.00  0.00    -0.310 N 
ATOM     19  HN  UNL     1     -46.640 -45.238   8.642  1.00  0.00     0.186 HD
HETATM   20  C   UNL     1     -44.529 -47.709   8.634  1.00  0.00     0.138 A 
HETATM   21  H   UNL     1     -46.631 -47.648   8.194  1.00  0.00     0.186 HD
ENDBRANCH   4  15
TORSDOF 4
ENDMDL
MODEL 7
REMARK VINA RESULT:      -5.5      1.516      1.938
REMARK  4 active torsions:
REMARK  status: ('A' for Active; 'I' for Inactive)
REMARK       I    between atoms: C_2  and  N_3 
REMARK       I    between atoms: C_2  and  N_12 
REMARK    1  A    between atoms: N_3  and  C_4 
REMARK    2  A    between atoms: C_4  and  C_5 
REMARK    3  A    between atoms: C_5  and  N_6 
REMARK    4  A    between atoms: N_12  and  C_13 
ROOT
HETATM    1  O   UNL     1     -41.614 -49.258  12.591  1.00  0.00    -0.247 OA
HETATM    2  C   UNL     1     -41.237 -49.614  11.481  1.00  0.00     0.320 C 
HETATM    3  N   UNL     1     -40.598 -50.819  11.258  1.00  0.00    -0.341 N 
HETATM    4  N   UNL     1     -41.406 -48.903  10.317  1.00  0.00    -0.306 N 
HETATM    5  H   UNL     1     -39.912 -50.803  10.519  1.00  0.00     0.164 HD
HETATM    6  H   UNL     1     -41.122 -49.322   9.447  1.00  0.00     0.171 HD
ENDROOT
BRANCH   3   7
HETATM    7  C   UNL     1     -40.277 -51.671  12.396  1.00  0.00     0.154 C 
BRANCH   7   8
HETATM    8  C   UNL     1     -41.354 -52.743  12.675  1.00  0.00     0.292 C 
BRANCH   8   9
HETATM    9  N   UNL     1     -42.411 -52.351  13.633  1.00  0.00     0.090 N 
HETATM   10  C   UNL     1     -42.415 -53.262  14.795  1.00  0.00     0.272 C 
HETATM   11  C   UNL     1     -42.943 -54.673  14.497  1.00  0.00     0.030 C 
HETATM   12  C   UNL     1     -44.305 -54.638  13.808  1.00  0.00     0.003 C 
HETATM   13  C   UNL     1     -44.303 -53.674  12.627  1.00  0.00     0.030 C 
HETATM   14  C   UNL     1     -43.760 -52.306  13.044  1.00  0.00     0.272 C 
ENDBRANCH   8   9
ENDBRANCH   7   8
ENDBRANCH   3   7
BRANCH   4  15
HETATM   15  C   UNL     1     -42.036 -47.675  10.262  1.00  0.00     0.070 A 
HETATM   16  C   UNL     1     -43.369 -47.324   9.953  1.00  0.00     0.138 A 
HETATM   17  N   UNL     1     -43.575 -46.003  10.011  1.00  0.00    -0.310 N 
HETATM   18  N   UNL     1     -42.374 -45.514  10.356  1.00  0.00    -0.310 N 
ATOM     19  HN  UNL     1     -44.438 -45.490   9.835  1.00  0.00     0.186 HD
HETATM   20  C   UNL     1     -41.417 -46.475  10.517  1.00  0.00     0.138 A 
HETATM   21  H   UNL     1     -42.282 -44.510  10.466  1.00  0.00     0.186 HD
ENDBRANCH   4  15
TORSDOF 4
ENDMDL
MODEL 8
REMARK VINA RESULT:      -5.0      4.165      5.765
REMARK  4 active torsions:
REMARK  status: ('A' for Active; 'I' for Inactive)
REMARK       I    between atoms: C_2  and  N_3 
REMARK       I    between atoms: C_2  and  N_12 
REMARK    1  A    between atoms: N_3  and  C_4 
REMARK    2  A    between atoms: C_4  and  C_5 
REMARK    3  A    between atoms: C_5  and  N_6 
REMARK    4  A    between atoms: N_12  and  C_13 
ROOT
HETATM    1  O   UNL     1     -42.755 -51.055  13.041  1.00  0.00    -0.247 OA
HETATM    2  C   UNL     1     -42.440 -51.924  12.239  1.00  0.00     0.320 C 
HETATM    3  N   UNL     1     -41.260 -51.888  11.520  1.00  0.00    -0.341 N 
HETATM    4  N   UNL     1     -43.175 -53.050  11.955  1.00  0.00    -0.306 N 
HETATM    5  H   UNL     1     -41.314 -52.289  10.597  1.00  0.00     0.164 HD
HETATM    6  H   UNL     1     -42.786 -53.739  11.330  1.00  0.00     0.171 HD
ENDROOT
BRANCH   3   7
HETATM    7  C   UNL     1     -40.388 -50.726  11.650  1.00  0.00     0.154 C 
BRANCH   7   8
HETATM    8  C   UNL     1     -39.344 -50.873  12.778  1.00  0.00     0.292 C 
BRANCH   8   9
HETATM    9  N   UNL     1     -39.513 -49.956  13.928  1.00  0.00     0.090 N 
HETATM   10  C   UNL     1     -38.237 -49.279  14.236  1.00  0.00     0.272 C 
HETATM   11  C   UNL     1     -37.172 -50.185  14.872  1.00  0.00     0.030 C 
HETATM   12  C   UNL     1     -37.715 -50.937  16.084  1.00  0.00     0.003 C 
HETATM   13  C   UNL     1     -39.046 -51.611  15.768  1.00  0.00     0.030 C 
HETATM   14  C   UNL     1     -40.023 -50.613  15.142  1.00  0.00     0.272 C 
ENDBRANCH   8   9
ENDBRANCH   7   8
ENDBRANCH   3   7
BRANCH   4  15
HETATM   15  C   UNL     1     -44.385 -53.339  12.554  1.00  0.00     0.070 A 
HETATM   16  C   UNL     1     -45.604 -52.626  12.582  1.00  0.00     0.138 A 
HETATM   17  N   UNL     1     -46.549 -53.259  13.287  1.00  0.00    -0.310 N 
HETATM   18  N   UNL     1     -45.931 -54.374  13.708  1.00  0.00    -0.310 N 
ATOM     19  HN  UNL     1     -47.509 -52.965  13.463  1.00  0.00     0.186 HD
HETATM   20  C   UNL     1     -44.632 -54.468  13.296  1.00  0.00     0.138 A 
HETATM   21  H   UNL     1     -46.461 -55.028  14.272  1.00  0.00     0.186 HD
ENDBRANCH   4  15
TORSDOF 4
ENDMDL
MODEL 9
REMARK VINA RESULT:      -4.9      4.843      6.464
REMARK  4 active torsions:
REMARK  status: ('A' for Active; 'I' for Inactive)
REMARK       I    between atoms: C_2  and  N_3 
REMARK       I    between atoms: C_2  and  N_12 
REMARK    1  A    between atoms: N_3  and  C_4 
REMARK    2  A    between atoms: C_4  and  C_5 
REMARK    3  A    between atoms: C_5  and  N_6 
REMARK    4  A    between atoms: N_12  and  C_13 
ROOT
HETATM    1  O   UNL     1     -42.095 -53.401  14.936  1.00  0.00    -0.247 OA
HETATM    2  C   UNL     1     -41.876 -53.730  13.778  1.00  0.00     0.320 C 
HETATM    3  N   UNL     1     -40.599 -53.880  13.270  1.00  0.00    -0.341 N 
HETATM    4  N   UNL     1     -42.835 -54.016  12.835  1.00  0.00    -0.306 N 
HETATM    5  H   UNL     1     -40.500 -53.641  12.295  1.00  0.00     0.164 HD
HETATM    6  H   UNL     1     -42.543 -54.348  11.931  1.00  0.00     0.171 HD
ENDROOT
BRANCH   3   7
HETATM    7  C   UNL     1     -39.458 -53.551  14.116  1.00  0.00     0.154 C 
BRANCH   7   8
HETATM    8  C   UNL     1     -38.728 -52.263  13.677  1.00  0.00     0.292 C 
BRANCH   8   9
HETATM    9  N   UNL     1     -39.601 -51.107  13.370  1.00  0.00     0.090 N 
HETATM   10  C   UNL     1     -39.126 -50.411  12.158  1.00  0.00     0.272 C 
HETATM   11  C   UNL     1     -37.823 -49.619  12.348  1.00  0.00     0.030 C 
HETATM   12  C   UNL     1     -37.901 -48.674  13.543  1.00  0.00     0.003 C 
HETATM   13  C   UNL     1     -38.420 -49.391  14.785  1.00  0.00     0.030 C 
HETATM   14  C   UNL     1     -39.716 -50.141  14.475  1.00  0.00     0.272 C 
ENDBRANCH   8   9
ENDBRANCH   7   8
ENDBRANCH   3   7
BRANCH   4  15
HETATM   15  C   UNL     1     -44.191 -53.964  13.092  1.00  0.00     0.070 A 
HETATM   16  C   UNL     1     -45.042 -54.851  13.788  1.00  0.00     0.138 A 
HETATM   17  N   UNL     1     -46.312 -54.428  13.809  1.00  0.00    -0.310 N 
HETATM   18  N   UNL     1     -46.268 -53.273  13.127  1.00  0.00    -0.310 N 
ATOM     19  HN  UNL     1     -47.120 -54.877  14.240  1.00  0.00     0.186 HD
HETATM   20  C   UNL     1     -45.020 -52.951  12.676  1.00  0.00     0.138 A 
HETATM   21  H   UNL     1     -47.132 -52.755  13.012  1.00  0.00     0.186 HD
ENDBRANCH   4  15
TORSDOF 4
ENDMDL
