MODEL 1
REMARK VINA RESULT:      -6.7      0.000      0.000
REMARK  4 active torsions:
REMARK  status: ('A' for Active; 'I' for Inactive)
REMARK    1  A    between atoms: C_4  and  N_5 
REMARK       I    between atoms: N_5  and  C_6 
REMARK       I    between atoms: C_6  and  N_8 
REMARK    2  A    between atoms: N_8  and  C_9 
REMARK    3  A    between atoms: N_12  and  C_13 
REMARK    4  A    between atoms: C_13  and  C_14 
REMARK       I    between atoms: C_14  and  N_16 
ROOT
HETATM    1  N   UNL     1     -41.504 -47.809  10.081  1.00  0.00    -0.293 N 
HETATM    2  C   UNL     1     -41.168 -48.724  11.048  1.00  0.00     0.322 C 
HETATM    3  O   UNL     1     -41.905 -49.573  11.539  1.00  0.00    -0.247 OA
HETATM    4  N   UNL     1     -39.856 -48.577  11.475  1.00  0.00    -0.338 N 
HETATM    5  H   UNL     1     -40.842 -47.095   9.837  1.00  0.00     0.172 HD
HETATM    6  H   UNL     1     -39.197 -48.206  10.807  1.00  0.00     0.164 HD
ENDROOT
BRANCH   4   7
HETATM    7  C   UNL     1     -39.337 -49.474  12.504  1.00  0.00     0.089 C 
HETATM    8  C   UNL     1     -37.824 -49.673  12.387  1.00  0.00     0.055 C 
HETATM    9  C   UNL     1     -37.336 -50.627  13.482  1.00  0.00     0.275 C 
HETATM   10  N   UNL     1     -37.709 -50.231  14.856  1.00  0.00     0.097 N 
HETATM   11  C   UNL     1     -39.158 -49.977  14.946  1.00  0.00     0.275 C 
HETATM   12  C   UNL     1     -39.689 -48.985  13.905  1.00  0.00     0.055 C 
BRANCH  10  13
HETATM   13  C   UNL     1     -36.934 -49.071  15.355  1.00  0.00     0.374 C 
BRANCH  13  14
HETATM   14  C   UNL     1     -35.804 -49.512  16.284  1.00  0.00     0.243 C 
HETATM   15  O   UNL     1     -34.728 -48.928  16.366  1.00  0.00    -0.272 OA
HETATM   16  N   UNL     1     -36.082 -50.603  17.059  1.00  0.00    -0.369 N 
HETATM   17  H   UNL     1     -36.818 -51.232  16.753  1.00  0.00     0.159 HD
HETATM   18  H   UNL     1     -35.314 -50.990  17.590  1.00  0.00     0.159 HD
ENDBRANCH  13  14
ENDBRANCH  10  13
ENDBRANCH   4   7
BRANCH   1  19
HETATM   19  C   UNL     1     -42.751 -47.754   9.477  1.00  0.00     0.132 A 
HETATM   20  C   UNL     1     -43.947 -47.376  10.143  1.00  0.00     0.084 A 
HETATM   21  C   UNL     1     -44.912 -47.400   9.164  1.00  0.00     0.076 A 
HETATM   22  C   UNL     1     -46.346 -47.074   9.102  1.00  0.00     0.079 C 
HETATM   23  O   UNL     1     -44.348 -47.806   7.999  1.00  0.00    -0.241 OA
HETATM   24  N   UNL     1     -43.004 -48.024   8.194  1.00  0.00    -0.245 N 
ATOM     25  HN  UNL     1     -42.329 -48.332   7.493  1.00  0.00     0.196 HD
ENDBRANCH   1  19
TORSDOF 4
ENDMDL
MODEL 2
REMARK VINA RESULT:      -6.3      2.099      2.801
REMARK  4 active torsions:
REMARK  status: ('A' for Active; 'I' for Inactive)
REMARK    1  A    between atoms: C_4  and  N_5 
REMARK       I    between atoms: N_5  and  C_6 
REMARK       I    between atoms: C_6  and  N_8 
REMARK    2  A    between atoms: N_8  and  C_9 
REMARK    3  A    between atoms: N_12  and  C_13 
REMARK    4  A    between atoms: C_13  and  C_14 
REMARK       I    between atoms: C_14  and  N_16 
ROOT
HETATM    1  N   UNL     1     -41.512 -47.392  10.099  1.00  0.00    -0.293 N 
HETATM    2  C   UNL     1     -40.939 -48.302  10.953  1.00  0.00     0.322 C 
HETATM    3  O   UNL     1     -41.437 -49.353  11.342  1.00  0.00    -0.247 OA
HETATM    4  N   UNL     1     -39.689 -47.891  11.393  1.00  0.00    -0.338 N 
HETATM    5  H   UNL     1     -41.048 -46.516   9.939  1.00  0.00     0.172 HD
HETATM    6  H   UNL     1     -39.157 -47.299  10.772  1.00  0.00     0.164 HD
ENDROOT
BRANCH   4   7
HETATM    7  C   UNL     1     -38.940 -48.746  12.310  1.00  0.00     0.089 C 
HETATM    8  C   UNL     1     -39.746 -49.097  13.562  1.00  0.00     0.055 C 
HETATM    9  C   UNL     1     -38.912 -49.985  14.491  1.00  0.00     0.275 C 
HETATM   10  N   UNL     1     -38.372 -51.205  13.856  1.00  0.00     0.097 N 
HETATM   11  C   UNL     1     -37.653 -50.868  12.615  1.00  0.00     0.275 C 
HETATM   12  C   UNL     1     -38.464 -50.024  11.625  1.00  0.00     0.055 C 
BRANCH  10  13
HETATM   13  C   UNL     1     -39.408 -52.234  13.606  1.00  0.00     0.374 C 
BRANCH  13  14
HETATM   14  C   UNL     1     -39.147 -53.499  14.424  1.00  0.00     0.243 C 
HETATM   15  O   UNL     1     -39.208 -53.536  15.650  1.00  0.00    -0.272 OA
HETATM   16  N   UNL     1     -38.868 -54.618  13.691  1.00  0.00    -0.369 N 
HETATM   17  H   UNL     1     -38.521 -54.495  12.745  1.00  0.00     0.159 HD
HETATM   18  H   UNL     1     -38.572 -55.435  14.206  1.00  0.00     0.159 HD
ENDBRANCH  13  14
ENDBRANCH  10  13
ENDBRANCH   4   7
BRANCH   1  19
HETATM   19  C   UNL     1     -42.752 -47.572   9.506  1.00  0.00     0.132 A 
HETATM   20  C   UNL     1     -43.992 -47.308  10.146  1.00  0.00     0.084 A 
HETATM   21  C   UNL     1     -44.941 -47.560   9.185  1.00  0.00     0.076 A 
HETATM   22  C   UNL     1     -46.407 -47.449   9.108  1.00  0.00     0.079 C 
HETATM   23  O   UNL     1     -44.322 -47.990   8.057  1.00  0.00    -0.241 OA
HETATM   24  N   UNL     1     -42.961 -47.995   8.256  1.00  0.00    -0.245 N 
ATOM     25  HN  UNL     1     -42.247 -48.268   7.580  1.00  0.00     0.196 HD
ENDBRANCH   1  19
TORSDOF 4
ENDMDL
MODEL 3
REMARK VINA RESULT:      -6.3      4.676      6.294
REMARK  4 active torsions:
REMARK  status: ('A' for Active; 'I' for Inactive)
REMARK    1  A    between atoms: C_4  and  N_5 
REMARK       I    between atoms: N_5  and  C_6 
REMARK       I    between atoms: C_6  and  N_8 
REMARK    2  A    between atoms: N_8  and  C_9 
REMARK    3  A    between atoms: N_12  and  C_13 
REMARK    4  A    between atoms: C_13  and  C_14 
REMARK       I    between atoms: C_14  and  N_16 
ROOT
HETATM    1  N   UNL     1     -41.239 -47.689  10.534  1.00  0.00    -0.293 N 
HETATM    2  C   UNL     1     -41.263 -48.520  11.627  1.00  0.00     0.322 C 
HETATM    3  O   UNL     1     -40.873 -48.251  12.757  1.00  0.00    -0.247 OA
HETATM    4  N   UNL     1     -41.763 -49.777  11.318  1.00  0.00    -0.338 N 
HETATM    5  H   UNL     1     -41.489 -48.061   9.635  1.00  0.00     0.172 HD
HETATM    6  H   UNL     1     -42.432 -49.831  10.563  1.00  0.00     0.164 HD
ENDROOT
BRANCH   4   7
HETATM    7  C   UNL     1     -41.856 -50.785  12.370  1.00  0.00     0.089 C 
HETATM    8  C   UNL     1     -43.249 -50.835  13.002  1.00  0.00     0.055 C 
HETATM    9  C   UNL     1     -43.287 -51.899  14.103  1.00  0.00     0.275 C 
HETATM   10  N   UNL     1     -42.858 -53.246  13.672  1.00  0.00     0.097 N 
HETATM   11  C   UNL     1     -41.546 -53.184  13.005  1.00  0.00     0.275 C 
HETATM   12  C   UNL     1     -41.470 -52.169  11.858  1.00  0.00     0.055 C 
BRANCH  10  13
HETATM   13  C   UNL     1     -43.857 -53.926  12.815  1.00  0.00     0.374 C 
BRANCH  13  14
HETATM   14  C   UNL     1     -45.001 -54.509  13.644  1.00  0.00     0.243 C 
HETATM   15  O   UNL     1     -44.866 -55.459  14.409  1.00  0.00    -0.272 OA
HETATM   16  N   UNL     1     -46.202 -53.872  13.504  1.00  0.00    -0.369 N 
HETATM   17  H   UNL     1     -46.357 -53.324  12.664  1.00  0.00     0.159 HD
HETATM   18  H   UNL     1     -47.001 -54.310  13.943  1.00  0.00     0.159 HD
ENDBRANCH  13  14
ENDBRANCH  10  13
ENDBRANCH   4   7
BRANCH   1  19
HETATM   19  C   UNL     1     -40.800 -46.375  10.579  1.00  0.00     0.132 A 
HETATM   20  C   UNL     1     -41.573 -45.289  11.069  1.00  0.00     0.084 A 
HETATM   21  C   UNL     1     -40.736 -44.202  10.988  1.00  0.00     0.076 A 
HETATM   22  C   UNL     1     -40.828 -42.782  11.365  1.00  0.00     0.079 C 
HETATM   23  O   UNL     1     -39.556 -44.593  10.446  1.00  0.00    -0.241 OA
HETATM   24  N   UNL     1     -39.595 -45.946  10.194  1.00  0.00    -0.245 N 
ATOM     25  HN  UNL     1     -38.848 -46.511   9.791  1.00  0.00     0.196 HD
ENDBRANCH   1  19
TORSDOF 4
ENDMDL
MODEL 4
REMARK VINA RESULT:      -6.0      3.554      3.902
REMARK  4 active torsions:
REMARK  status: ('A' for Active; 'I' for Inactive)
REMARK    1  A    between atoms: C_4  and  N_5 
REMARK       I    between atoms: N_5  and  C_6 
REMARK       I    between atoms: C_6  and  N_8 
REMARK    2  A    between atoms: N_8  and  C_9 
REMARK    3  A    between atoms: N_12  and  C_13 
REMARK    4  A    between atoms: C_13  and  C_14 
REMARK       I    between atoms: C_14  and  N_16 
ROOT
HETATM    1  N   UNL     1     -41.215 -49.061  10.386  1.00  0.00    -0.293 N 
HETATM    2  C   UNL     1     -41.566 -49.761  11.514  1.00  0.00     0.322 C 
HETATM    3  O   UNL     1     -42.337 -49.393  12.393  1.00  0.00    -0.247 OA
HETATM    4  N   UNL     1     -40.906 -50.979  11.599  1.00  0.00    -0.338 N 
HETATM    5  H   UNL     1     -40.490 -49.424   9.793  1.00  0.00     0.172 HD
HETATM    6  H   UNL     1     -40.644 -51.419  10.730  1.00  0.00     0.164 HD
ENDROOT
BRANCH   4   7
HETATM    7  C   UNL     1     -41.164 -51.851  12.742  1.00  0.00     0.089 C 
HETATM    8  C   UNL     1     -41.004 -53.330  12.388  1.00  0.00     0.055 C 
HETATM    9  C   UNL     1     -41.295 -54.197  13.618  1.00  0.00     0.275 C 
HETATM   10  N   UNL     1     -40.500 -53.855  14.815  1.00  0.00     0.097 N 
HETATM   11  C   UNL     1     -40.605 -52.415  15.113  1.00  0.00     0.275 C 
HETATM   12  C   UNL     1     -40.271 -51.501  13.929  1.00  0.00     0.055 C 
BRANCH  10  13
HETATM   13  C   UNL     1     -39.083 -54.272  14.709  1.00  0.00     0.374 C 
BRANCH  13  14
HETATM   14  C   UNL     1     -38.648 -55.087  15.926  1.00  0.00     0.243 C 
HETATM   15  O   UNL     1     -38.630 -56.314  15.948  1.00  0.00    -0.272 OA
HETATM   16  N   UNL     1     -38.239 -54.350  17.002  1.00  0.00    -0.369 N 
HETATM   17  H   UNL     1     -38.555 -53.388  17.070  1.00  0.00     0.159 HD
HETATM   18  H   UNL     1     -38.064 -54.857  17.859  1.00  0.00     0.159 HD
ENDBRANCH  13  14
ENDBRANCH  10  13
ENDBRANCH   4   7
BRANCH   1  19
HETATM   19  C   UNL     1     -41.745 -47.823  10.057  1.00  0.00     0.132 A 
HETATM   20  C   UNL     1     -43.062 -47.620   9.566  1.00  0.00     0.084 A 
HETATM   21  C   UNL     1     -43.180 -46.257   9.439  1.00  0.00     0.076 A 
HETATM   22  C   UNL     1     -44.258 -45.332   9.050  1.00  0.00     0.079 C 
HETATM   23  O   UNL     1     -42.004 -45.678   9.785  1.00  0.00    -0.241 OA
HETATM   24  N   UNL     1     -41.112 -46.652  10.173  1.00  0.00    -0.245 N 
ATOM     25  HN  UNL     1     -40.152 -46.508  10.487  1.00  0.00     0.196 HD
ENDBRANCH   1  19
TORSDOF 4
ENDMDL
MODEL 5
REMARK VINA RESULT:      -5.9      5.095      6.673
REMARK  4 active torsions:
REMARK  status: ('A' for Active; 'I' for Inactive)
REMARK    1  A    between atoms: C_4  and  N_5 
REMARK       I    between atoms: N_5  and  C_6 
REMARK       I    between atoms: C_6  and  N_8 
REMARK    2  A    between atoms: N_8  and  C_9 
REMARK    3  A    between atoms: N_12  and  C_13 
REMARK    4  A    between atoms: C_13  and  C_14 
REMARK       I    between atoms: C_14  and  N_16 
ROOT
HETATM    1  N   UNL     1     -42.354 -48.147  11.269  1.00  0.00    -0.293 N 
HETATM    2  C   UNL     1     -42.066 -49.137  12.177  1.00  0.00     0.322 C 
HETATM    3  O   UNL     1     -41.045 -49.238  12.848  1.00  0.00    -0.247 OA
HETATM    4  N   UNL     1     -43.072 -50.089  12.249  1.00  0.00    -0.338 N 
HETATM    5  H   UNL     1     -43.178 -48.233  10.702  1.00  0.00     0.172 HD
HETATM    6  H   UNL     1     -44.010 -49.780  12.041  1.00  0.00     0.164 HD
ENDROOT
BRANCH   4   7
HETATM    7  C   UNL     1     -42.924 -51.214  13.168  1.00  0.00     0.089 C 
HETATM    8  C   UNL     1     -44.081 -51.303  14.165  1.00  0.00     0.055 C 
HETATM    9  C   UNL     1     -43.870 -52.491  15.108  1.00  0.00     0.275 C 
HETATM   10  N   UNL     1     -43.662 -53.787  14.430  1.00  0.00     0.097 N 
HETATM   11  C   UNL     1     -42.590 -53.679  13.424  1.00  0.00     0.275 C 
HETATM   12  C   UNL     1     -42.781 -52.536  12.420  1.00  0.00     0.055 C 
BRANCH  10  13
HETATM   13  C   UNL     1     -44.901 -54.332  13.828  1.00  0.00     0.374 C 
BRANCH  13  14
HETATM   14  C   UNL     1     -46.073 -54.265  14.806  1.00  0.00     0.243 C 
HETATM   15  O   UNL     1     -46.026 -54.707  15.951  1.00  0.00    -0.272 OA
HETATM   16  N   UNL     1     -47.192 -53.640  14.330  1.00  0.00    -0.369 N 
HETATM   17  H   UNL     1     -47.312 -53.577  13.325  1.00  0.00     0.159 HD
HETATM   18  H   UNL     1     -48.020 -53.690  14.908  1.00  0.00     0.159 HD
ENDBRANCH  13  14
ENDBRANCH  10  13
ENDBRANCH   4   7
BRANCH   1  19
HETATM   19  C   UNL     1     -41.519 -47.069  11.020  1.00  0.00     0.132 A 
HETATM   20  C   UNL     1     -41.898 -45.709  11.182  1.00  0.00     0.084 A 
HETATM   21  C   UNL     1     -40.760 -44.995  10.892  1.00  0.00     0.076 A 
HETATM   22  C   UNL     1     -40.389 -43.570  10.904  1.00  0.00     0.079 C 
HETATM   23  O   UNL     1     -39.776 -45.857  10.537  1.00  0.00    -0.241 OA
HETATM   24  N   UNL     1     -40.247 -47.148  10.619  1.00  0.00    -0.245 N 
ATOM     25  HN  UNL     1     -39.726 -48.000  10.414  1.00  0.00     0.196 HD
ENDBRANCH   1  19
TORSDOF 4
ENDMDL
MODEL 6
REMARK VINA RESULT:      -5.7      4.862      6.387
REMARK  4 active torsions:
REMARK  status: ('A' for Active; 'I' for Inactive)
REMARK    1  A    between atoms: C_4  and  N_5 
REMARK       I    between atoms: N_5  and  C_6 
REMARK       I    between atoms: C_6  and  N_8 
REMARK    2  A    between atoms: N_8  and  C_9 
REMARK    3  A    between atoms: N_12  and  C_13 
REMARK    4  A    between atoms: C_13  and  C_14 
REMARK       I    between atoms: C_14  and  N_16 
ROOT
HETATM    1  N   UNL     1     -44.043 -50.731  12.929  1.00  0.00    -0.293 N 
HETATM    2  C   UNL     1     -42.861 -50.131  12.569  1.00  0.00     0.322 C 
HETATM    3  O   UNL     1     -41.827 -50.698  12.233  1.00  0.00    -0.247 OA
HETATM    4  N   UNL     1     -42.929 -48.748  12.658  1.00  0.00    -0.338 N 
HETATM    5  H   UNL     1     -44.788 -50.162  13.289  1.00  0.00     0.172 HD
HETATM    6  H   UNL     1     -43.834 -48.324  12.518  1.00  0.00     0.164 HD
ENDROOT
BRANCH   4   7
HETATM    7  C   UNL     1     -41.753 -47.954  12.311  1.00  0.00     0.089 C 
HETATM    8  C   UNL     1     -42.069 -46.882  11.266  1.00  0.00     0.055 C 
HETATM    9  C   UNL     1     -40.802 -46.087  10.932  1.00  0.00     0.275 C 
HETATM   10  N   UNL     1     -40.121 -45.495  12.102  1.00  0.00     0.097 N 
HETATM   11  C   UNL     1     -39.878 -46.519  13.133  1.00  0.00     0.275 C 
HETATM   12  C   UNL     1     -41.127 -47.308  13.543  1.00  0.00     0.055 C 
BRANCH  10  13
HETATM   13  C   UNL     1     -40.845 -44.333  12.667  1.00  0.00     0.374 C 
BRANCH  13  14
HETATM   14  C   UNL     1     -40.080 -43.030  12.432  1.00  0.00     0.243 C 
HETATM   15  O   UNL     1     -39.169 -42.641  13.157  1.00  0.00    -0.272 OA
HETATM   16  N   UNL     1     -40.460 -42.327  11.324  1.00  0.00    -0.369 N 
HETATM   17  H   UNL     1     -41.385 -42.495  10.944  1.00  0.00     0.159 HD
HETATM   18  H   UNL     1     -40.059 -41.405  11.213  1.00  0.00     0.159 HD
ENDBRANCH  13  14
ENDBRANCH  10  13
ENDBRANCH   4   7
BRANCH   1  19
HETATM   19  C   UNL     1     -44.242 -52.103  12.911  1.00  0.00     0.132 A 
HETATM   20  C   UNL     1     -45.020 -52.812  13.864  1.00  0.00     0.084 A 
HETATM   21  C   UNL     1     -44.999 -54.116  13.431  1.00  0.00     0.076 A 
HETATM   22  C   UNL     1     -45.619 -55.376  13.874  1.00  0.00     0.079 C 
HETATM   23  O   UNL     1     -44.226 -54.198  12.319  1.00  0.00    -0.241 OA
HETATM   24  N   UNL     1     -43.758 -52.946  11.994  1.00  0.00    -0.245 N 
ATOM     25  HN  UNL     1     -43.157 -52.706  11.206  1.00  0.00     0.196 HD
ENDBRANCH   1  19
TORSDOF 4
ENDMDL
MODEL 7
REMARK VINA RESULT:      -5.5      4.094      7.665
REMARK  4 active torsions:
REMARK  status: ('A' for Active; 'I' for Inactive)
REMARK    1  A    between atoms: C_4  and  N_5 
REMARK       I    between atoms: N_5  and  C_6 
REMARK       I    between atoms: C_6  and  N_8 
REMARK    2  A    between atoms: N_8  and  C_9 
REMARK    3  A    between atoms: N_12  and  C_13 
REMARK    4  A    between atoms: C_13  and  C_14 
REMARK       I    between atoms: C_14  and  N_16 
ROOT
HETATM    1  N   UNL     1     -41.825 -51.557  12.587  1.00  0.00    -0.293 N 
HETATM    2  C   UNL     1     -41.350 -50.495  11.858  1.00  0.00     0.322 C 
HETATM    3  O   UNL     1     -40.205 -50.345  11.447  1.00  0.00    -0.247 OA
HETATM    4  N   UNL     1     -42.323 -49.530  11.644  1.00  0.00    -0.338 N 
HETATM    5  H   UNL     1     -42.758 -51.514  12.958  1.00  0.00     0.172 HD
HETATM    6  H   UNL     1     -43.281 -49.846  11.607  1.00  0.00     0.164 HD
ENDROOT
BRANCH   4   7
HETATM    7  C   UNL     1     -41.982 -48.330  10.884  1.00  0.00     0.089 C 
HETATM    8  C   UNL     1     -43.224 -47.557  10.437  1.00  0.00     0.055 C 
HETATM    9  C   UNL     1     -42.810 -46.317   9.638  1.00  0.00     0.275 C 
HETATM   10  N   UNL     1     -41.859 -45.425  10.334  1.00  0.00     0.097 N 
HETATM   11  C   UNL     1     -40.696 -46.187  10.821  1.00  0.00     0.275 C 
HETATM   12  C   UNL     1     -41.055 -47.410  11.673  1.00  0.00     0.055 C 
BRANCH  10  13
HETATM   13  C   UNL     1     -42.486 -44.655  11.433  1.00  0.00     0.374 C 
BRANCH  13  14
HETATM   14  C   UNL     1     -42.379 -43.149  11.192  1.00  0.00     0.243 C 
HETATM   15  O   UNL     1     -43.036 -42.551  10.346  1.00  0.00    -0.272 OA
HETATM   16  N   UNL     1     -41.510 -42.490  12.016  1.00  0.00    -0.369 N 
HETATM   17  H   UNL     1     -40.776 -43.028  12.464  1.00  0.00     0.159 HD
HETATM   18  H   UNL     1     -41.327 -41.520  11.798  1.00  0.00     0.159 HD
ENDBRANCH  13  14
ENDBRANCH  10  13
ENDBRANCH   4   7
BRANCH   1  19
HETATM   19  C   UNL     1     -41.058 -52.662  12.923  1.00  0.00     0.132 A 
HETATM   20  C   UNL     1     -40.434 -52.850  14.185  1.00  0.00     0.084 A 
HETATM   21  C   UNL     1     -39.842 -54.088  14.099  1.00  0.00     0.076 A 
HETATM   22  C   UNL     1     -39.086 -54.951  15.021  1.00  0.00     0.079 C 
HETATM   23  O   UNL     1     -40.054 -54.593  12.858  1.00  0.00    -0.241 OA
HETATM   24  N   UNL     1     -40.812 -53.707  12.127  1.00  0.00    -0.245 N 
ATOM     25  HN  UNL     1     -41.127 -53.825  11.164  1.00  0.00     0.196 HD
ENDBRANCH   1  19
TORSDOF 4
ENDMDL
MODEL 8
REMARK VINA RESULT:      -5.4      4.417      5.421
REMARK  4 active torsions:
REMARK  status: ('A' for Active; 'I' for Inactive)
REMARK    1  A    between atoms: C_4  and  N_5 
REMARK       I    between atoms: N_5  and  C_6 
REMARK       I    between atoms: C_6  and  N_8 
REMARK    2  A    between atoms: N_8  and  C_9 
REMARK    3  A    between atoms: N_12  and  C_13 
REMARK    4  A    between atoms: C_13  and  C_14 
REMARK       I    between atoms: C_14  and  N_16 
ROOT
HETATM    1  N   UNL     1     -42.610 -52.701  11.755  1.00  0.00    -0.293 N 
HETATM    2  C   UNL     1     -41.969 -51.535  12.097  1.00  0.00     0.322 C 
HETATM    3  O   UNL     1     -42.380 -50.675  12.868  1.00  0.00    -0.247 OA
HETATM    4  N   UNL     1     -40.762 -51.388  11.430  1.00  0.00    -0.338 N 
HETATM    5  H   UNL     1     -42.220 -53.276  11.030  1.00  0.00     0.172 HD
HETATM    6  H   UNL     1     -40.277 -52.233  11.168  1.00  0.00     0.164 HD
ENDROOT
BRANCH   4   7
HETATM    7  C   UNL     1     -39.951 -50.199  11.678  1.00  0.00     0.089 C 
HETATM    8  C   UNL     1     -40.708 -48.907  11.362  1.00  0.00     0.055 C 
HETATM    9  C   UNL     1     -39.810 -47.695  11.631  1.00  0.00     0.275 C 
HETATM   10  N   UNL     1     -39.233 -47.645  12.990  1.00  0.00     0.097 N 
HETATM   11  C   UNL     1     -38.562 -48.917  13.315  1.00  0.00     0.275 C 
HETATM   12  C   UNL     1     -39.437 -50.159  13.114  1.00  0.00     0.055 C 
BRANCH  10  13
HETATM   13  C   UNL     1     -40.227 -47.289  14.029  1.00  0.00     0.374 C 
BRANCH  13  14
HETATM   14  C   UNL     1     -40.038 -45.852  14.513  1.00  0.00     0.243 C 
HETATM   15  O   UNL     1     -39.237 -45.531  15.386  1.00  0.00    -0.272 OA
HETATM   16  N   UNL     1     -40.810 -44.920  13.877  1.00  0.00    -0.369 N 
HETATM   17  H   UNL     1     -41.655 -45.235  13.412  1.00  0.00     0.159 HD
HETATM   18  H   UNL     1     -40.797 -43.984  14.259  1.00  0.00     0.159 HD
ENDBRANCH  13  14
ENDBRANCH  10  13
ENDBRANCH   4   7
BRANCH   1  19
HETATM   19  C   UNL     1     -43.826 -53.093  12.294  1.00  0.00     0.132 A 
HETATM   20  C   UNL     1     -43.988 -54.173  13.203  1.00  0.00     0.084 A 
HETATM   21  C   UNL     1     -45.325 -54.163  13.520  1.00  0.00     0.076 A 
HETATM   22  C   UNL     1     -46.190 -54.936  14.427  1.00  0.00     0.079 C 
HETATM   23  O   UNL     1     -45.937 -53.176  12.819  1.00  0.00    -0.241 OA
HETATM   24  N   UNL     1     -45.004 -52.509  12.059  1.00  0.00    -0.245 N 
ATOM     25  HN  UNL     1     -45.178 -51.721  11.436  1.00  0.00     0.196 HD
ENDBRANCH   1  19
TORSDOF 4
ENDMDL
MODEL 9
REMARK VINA RESULT:      -5.3      4.318      7.683
REMARK  4 active torsions:
REMARK  status: ('A' for Active; 'I' for Inactive)
REMARK    1  A    between atoms: C_4  and  N_5 
REMARK       I    between atoms: N_5  and  C_6 
REMARK       I    between atoms: C_6  and  N_8 
REMARK    2  A    between atoms: N_8  and  C_9 
REMARK    3  A    between atoms: N_12  and  C_13 
REMARK    4  A    between atoms: C_13  and  C_14 
REMARK       I    between atoms: C_14  and  N_16 
ROOT
HETATM    1  N   UNL     1     -41.148 -49.565  11.260  1.00  0.00    -0.293 N 
HETATM    2  C   UNL     1     -40.914 -48.367  11.889  1.00  0.00     0.322 C 
HETATM    3  O   UNL     1     -40.415 -48.208  12.997  1.00  0.00    -0.247 OA
HETATM    4  N   UNL     1     -41.350 -47.286  11.134  1.00  0.00    -0.338 N 
HETATM    5  H   UNL     1     -41.662 -49.569  10.397  1.00  0.00     0.172 HD
HETATM    6  H   UNL     1     -41.348 -47.398  10.131  1.00  0.00     0.164 HD
ENDROOT
BRANCH   4   7
HETATM    7  C   UNL     1     -41.177 -45.935  11.660  1.00  0.00     0.089 C 
HETATM    8  C   UNL     1     -40.745 -44.944  10.577  1.00  0.00     0.055 C 
HETATM    9  C   UNL     1     -40.569 -43.549  11.183  1.00  0.00     0.275 C 
HETATM   10  N   UNL     1     -41.748 -43.043  11.916  1.00  0.00     0.097 N 
HETATM   11  C   UNL     1     -42.201 -44.029  12.914  1.00  0.00     0.275 C 
HETATM   12  C   UNL     1     -42.443 -45.432  12.346  1.00  0.00     0.055 C 
BRANCH  10  13
HETATM   13  C   UNL     1     -42.860 -42.645  11.022  1.00  0.00     0.374 C 
BRANCH  13  14
HETATM   14  C   UNL     1     -43.511 -41.342  11.486  1.00  0.00     0.243 C 
HETATM   15  O   UNL     1     -44.700 -41.084  11.322  1.00  0.00    -0.272 OA
HETATM   16  N   UNL     1     -42.679 -40.478  12.139  1.00  0.00    -0.369 N 
HETATM   17  H   UNL     1     -41.680 -40.566  11.983  1.00  0.00     0.159 HD
HETATM   18  H   UNL     1     -43.050 -39.561  12.347  1.00  0.00     0.159 HD
ENDBRANCH  13  14
ENDBRANCH  10  13
ENDBRANCH   4   7
BRANCH   1  19
HETATM   19  C   UNL     1     -40.792 -50.793  11.794  1.00  0.00     0.132 A 
HETATM   20  C   UNL     1     -41.713 -51.828  12.107  1.00  0.00     0.084 A 
HETATM   21  C   UNL     1     -40.931 -52.870  12.545  1.00  0.00     0.076 A 
HETATM   22  C   UNL     1     -41.180 -54.256  12.974  1.00  0.00     0.079 C 
HETATM   23  O   UNL     1     -39.632 -52.479  12.539  1.00  0.00    -0.241 OA
HETATM   24  N   UNL     1     -39.546 -51.188  12.070  1.00  0.00    -0.245 N 
ATOM     25  HN  UNL     1     -38.694 -50.638  11.954  1.00  0.00     0.196 HD
ENDBRANCH   1  19
TORSDOF 4
ENDMDL
