MODEL 1
REMARK VINA RESULT:      -6.5      0.000      0.000
REMARK  2 active torsions:
REMARK  status: ('A' for Active; 'I' for Inactive)
REMARK    1  A    between atoms: C_7  and  N_8 
REMARK       I    between atoms: N_8  and  C_9 
REMARK       I    between atoms: C_9  and  N_11 
REMARK    2  A    between atoms: N_11  and  C_12 
ROOT
HETATM    1  N   UNL     1     -40.227 -50.856  11.222  1.00  0.00    -0.288 N 
HETATM    2  C   UNL     1     -40.834 -51.665  12.148  1.00  0.00     0.322 C 
HETATM    3  O   UNL     1     -40.515 -52.848  12.227  1.00  0.00    -0.247 OA
HETATM    4  N   UNL     1     -41.820 -51.087  12.896  1.00  0.00    -0.336 N 
HETATM    5  H   UNL     1     -39.594 -51.302  10.581  1.00  0.00     0.172 HD
HETATM    6  H   UNL     1     -41.844 -50.072  12.895  1.00  0.00     0.164 HD
ENDROOT
BRANCH   1   7
HETATM    7  C   UNL     1     -40.495 -49.522  11.092  1.00  0.00     0.169 A 
HETATM    8  N   UNL     1     -41.350 -48.957  10.270  1.00  0.00    -0.279 N 
HETATM    9  N   UNL     1     -41.297 -47.591  10.327  1.00  0.00    -0.296 N 
ATOM     10  HN  UNL     1     -41.980 -49.476   9.659  1.00  0.00     0.189 HD
HETATM   11  C   UNL     1     -40.401 -47.174  11.193  1.00  0.00     0.066 A 
ATOM     12  HN  UNL     1     -41.883 -46.972   9.765  1.00  0.00     0.187 HD
HETATM   13  C   UNL     1     -40.064 -45.748  11.407  1.00  0.00     0.078 C 
HETATM   14  S   UNL     1     -39.609 -48.439  12.060  1.00  0.00    -0.038 SA
ENDBRANCH   1   7
BRANCH   4  15
HETATM   15  C   UNL     1     -42.573 -51.709  13.962  1.00  0.00     0.121 C 
HETATM   16  C   UNL     1     -42.022 -51.486  15.372  1.00  0.00     0.057 C 
HETATM   17  C   UNL     1     -43.247 -51.133  16.222  1.00  0.00     0.275 C 
HETATM   18  N   UNL     1     -44.374 -51.616  15.424  1.00  0.00     0.095 N 
HETATM   19  C   UNL     1     -45.669 -51.051  15.787  1.00  0.00     0.273 C 
HETATM   20  C   UNL     1     -44.024 -51.246  14.046  1.00  0.00     0.245 C 
HETATM   21  C   UNL     1     -46.751 -51.602  14.844  1.00  0.00     0.030 C 
HETATM   22  C   UNL     1     -46.398 -51.426  13.362  1.00  0.00     0.004 C 
HETATM   23  C   UNL     1     -44.980 -51.919  13.070  1.00  0.00     0.038 C 
ENDBRANCH   4  15
TORSDOF 2
ENDMDL
MODEL 2
REMARK VINA RESULT:      -6.4      2.067      2.340
REMARK  2 active torsions:
REMARK  status: ('A' for Active; 'I' for Inactive)
REMARK    1  A    between atoms: C_7  and  N_8 
REMARK       I    between atoms: N_8  and  C_9 
REMARK       I    between atoms: C_9  and  N_11 
REMARK    2  A    between atoms: N_11  and  C_12 
ROOT
HETATM    1  N   UNL     1     -41.379 -49.455  12.670  1.00  0.00    -0.288 N 
HETATM    2  C   UNL     1     -41.941 -50.587  13.203  1.00  0.00     0.322 C 
HETATM    3  O   UNL     1     -41.543 -51.014  14.283  1.00  0.00    -0.247 OA
HETATM    4  N   UNL     1     -42.890 -51.204  12.439  1.00  0.00    -0.336 N 
HETATM    5  H   UNL     1     -40.593 -49.068  13.162  1.00  0.00     0.172 HD
HETATM    6  H   UNL     1     -43.283 -50.651  11.684  1.00  0.00     0.164 HD
ENDROOT
BRANCH   1   7
HETATM    7  C   UNL     1     -41.787 -48.891  11.493  1.00  0.00     0.169 A 
HETATM    8  N   UNL     1     -41.261 -49.065  10.302  1.00  0.00    -0.279 N 
HETATM    9  N   UNL     1     -41.850 -48.271   9.355  1.00  0.00    -0.296 N 
ATOM     10  HN  UNL     1     -40.502 -49.716  10.105  1.00  0.00     0.189 HD
HETATM   11  C   UNL     1     -42.802 -47.525   9.870  1.00  0.00     0.066 A 
ATOM     12  HN  UNL     1     -41.583 -48.260   8.371  1.00  0.00     0.187 HD
HETATM   13  C   UNL     1     -43.555 -46.508   9.102  1.00  0.00     0.078 C 
HETATM   14  S   UNL     1     -43.094 -47.803  11.548  1.00  0.00    -0.038 SA
ENDBRANCH   1   7
BRANCH   4  15
HETATM   15  C   UNL     1     -43.658 -52.375  12.794  1.00  0.00     0.121 C 
HETATM   16  C   UNL     1     -42.837 -53.593  13.224  1.00  0.00     0.057 C 
HETATM   17  C   UNL     1     -43.544 -54.124  14.475  1.00  0.00     0.275 C 
HETATM   18  N   UNL     1     -44.879 -53.528  14.399  1.00  0.00     0.095 N 
HETATM   19  C   UNL     1     -45.621 -53.523  15.654  1.00  0.00     0.273 C 
HETATM   20  C   UNL     1     -44.632 -52.152  13.947  1.00  0.00     0.245 C 
HETATM   21  C   UNL     1     -46.976 -52.827  15.446  1.00  0.00     0.030 C 
HETATM   22  C   UNL     1     -46.844 -51.440  14.806  1.00  0.00     0.004 C 
HETATM   23  C   UNL     1     -45.949 -51.487  13.566  1.00  0.00     0.038 C 
ENDBRANCH   4  15
TORSDOF 2
ENDMDL
MODEL 3
REMARK VINA RESULT:      -6.3      2.155      6.417
REMARK  2 active torsions:
REMARK  status: ('A' for Active; 'I' for Inactive)
REMARK    1  A    between atoms: C_7  and  N_8 
REMARK       I    between atoms: N_8  and  C_9 
REMARK       I    between atoms: C_9  and  N_11 
REMARK    2  A    between atoms: N_11  and  C_12 
ROOT
HETATM    1  N   UNL     1     -41.080 -51.328  12.203  1.00  0.00    -0.288 N 
HETATM    2  C   UNL     1     -40.729 -50.194  11.516  1.00  0.00     0.322 C 
HETATM    3  O   UNL     1     -39.544 -49.955  11.299  1.00  0.00    -0.247 OA
HETATM    4  N   UNL     1     -41.753 -49.361  11.165  1.00  0.00    -0.336 N 
HETATM    5  H   UNL     1     -40.328 -51.879  12.577  1.00  0.00     0.172 HD
HETATM    6  H   UNL     1     -42.685 -49.761  11.204  1.00  0.00     0.164 HD
ENDROOT
BRANCH   1   7
HETATM    7  C   UNL     1     -42.375 -51.688  12.455  1.00  0.00     0.169 A 
HETATM    8  N   UNL     1     -43.097 -52.571  11.804  1.00  0.00    -0.279 N 
HETATM    9  N   UNL     1     -44.389 -52.615  12.253  1.00  0.00    -0.296 N 
ATOM     10  HN  UNL     1     -42.737 -53.157  11.051  1.00  0.00     0.189 HD
HETATM   11  C   UNL     1     -44.594 -51.759  13.229  1.00  0.00     0.066 A 
ATOM     12  HN  UNL     1     -45.105 -53.235  11.876  1.00  0.00     0.187 HD
HETATM   13  C   UNL     1     -45.916 -51.524  13.854  1.00  0.00     0.078 C 
HETATM   14  S   UNL     1     -43.186 -50.889  13.719  1.00  0.00    -0.038 SA
ENDBRANCH   1   7
BRANCH   4  15
HETATM   15  C   UNL     1     -41.650 -48.139  10.403  1.00  0.00     0.121 C 
HETATM   16  C   UNL     1     -42.877 -47.786   9.558  1.00  0.00     0.057 C 
HETATM   17  C   UNL     1     -43.113 -46.293   9.811  1.00  0.00     0.275 C 
HETATM   18  N   UNL     1     -41.833 -45.824  10.343  1.00  0.00     0.095 N 
HETATM   19  C   UNL     1     -41.893 -44.551  11.052  1.00  0.00     0.273 C 
HETATM   20  C   UNL     1     -41.408 -46.896  11.253  1.00  0.00     0.245 C 
HETATM   21  C   UNL     1     -40.498 -44.203  11.599  1.00  0.00     0.030 C 
HETATM   22  C   UNL     1     -39.880 -45.337  12.425  1.00  0.00     0.004 C 
HETATM   23  C   UNL     1     -39.963 -46.671  11.681  1.00  0.00     0.038 C 
ENDBRANCH   4  15
TORSDOF 2
ENDMDL
MODEL 4
REMARK VINA RESULT:      -6.2      2.292      2.432
REMARK  2 active torsions:
REMARK  status: ('A' for Active; 'I' for Inactive)
REMARK    1  A    between atoms: C_7  and  N_8 
REMARK       I    between atoms: N_8  and  C_9 
REMARK       I    between atoms: C_9  and  N_11 
REMARK    2  A    between atoms: N_11  and  C_12 
ROOT
HETATM    1  N   UNL     1     -39.404 -50.526  12.223  1.00  0.00    -0.288 N 
HETATM    2  C   UNL     1     -39.694 -51.760  12.747  1.00  0.00     0.322 C 
HETATM    3  O   UNL     1     -38.837 -52.368  13.383  1.00  0.00    -0.247 OA
HETATM    4  N   UNL     1     -40.933 -52.258  12.465  1.00  0.00    -0.336 N 
HETATM    5  H   UNL     1     -38.455 -50.209  12.315  1.00  0.00     0.172 HD
HETATM    6  H   UNL     1     -41.616 -51.588  12.125  1.00  0.00     0.164 HD
ENDROOT
BRANCH   1   7
HETATM    7  C   UNL     1     -40.310 -49.766  11.536  1.00  0.00     0.169 A 
HETATM    8  N   UNL     1     -40.533 -49.768  10.241  1.00  0.00    -0.279 N 
HETATM    9  N   UNL     1     -41.437 -48.811   9.871  1.00  0.00    -0.296 N 
ATOM     10  HN  UNL     1     -40.084 -50.409   9.588  1.00  0.00     0.189 HD
HETATM   11  C   UNL     1     -41.865 -48.119  10.903  1.00  0.00     0.066 A 
ATOM     12  HN  UNL     1     -41.743 -48.654   8.910  1.00  0.00     0.187 HD
HETATM   13  C   UNL     1     -42.784 -46.964  10.796  1.00  0.00     0.078 C 
HETATM   14  S   UNL     1     -41.239 -48.650  12.422  1.00  0.00    -0.038 SA
ENDBRANCH   1   7
BRANCH   4  15
HETATM   15  C   UNL     1     -41.492 -53.505  12.935  1.00  0.00     0.121 C 
HETATM   16  C   UNL     1     -40.749 -54.158  14.103  1.00  0.00     0.057 C 
HETATM   17  C   UNL     1     -41.849 -54.588  15.079  1.00  0.00     0.275 C 
HETATM   18  N   UNL     1     -43.059 -54.596  14.257  1.00  0.00     0.095 N 
HETATM   19  C   UNL     1     -44.310 -54.563  15.006  1.00  0.00     0.273 C 
HETATM   20  C   UNL     1     -42.934 -53.394  13.420  1.00  0.00     0.245 C 
HETATM   21  C   UNL     1     -45.495 -54.524  14.026  1.00  0.00     0.030 C 
HETATM   22  C   UNL     1     -45.372 -53.404  12.985  1.00  0.00     0.004 C 
HETATM   23  C   UNL     1     -43.992 -53.412  12.325  1.00  0.00     0.038 C 
ENDBRANCH   4  15
TORSDOF 2
ENDMDL
MODEL 5
REMARK VINA RESULT:      -6.0      2.268      3.089
REMARK  2 active torsions:
REMARK  status: ('A' for Active; 'I' for Inactive)
REMARK    1  A    between atoms: C_7  and  N_8 
REMARK       I    between atoms: N_8  and  C_9 
REMARK       I    between atoms: C_9  and  N_11 
REMARK    2  A    between atoms: N_11  and  C_12 
ROOT
HETATM    1  N   UNL     1     -41.682 -52.864  12.150  1.00  0.00    -0.288 N 
HETATM    2  C   UNL     1     -42.968 -52.719  12.605  1.00  0.00     0.322 C 
HETATM    3  O   UNL     1     -43.669 -53.712  12.776  1.00  0.00    -0.247 OA
HETATM    4  N   UNL     1     -43.402 -51.437  12.784  1.00  0.00    -0.336 N 
HETATM    5  H   UNL     1     -41.397 -53.792  11.893  1.00  0.00     0.172 HD
HETATM    6  H   UNL     1     -42.682 -50.723  12.820  1.00  0.00     0.164 HD
ENDROOT
BRANCH   1   7
HETATM    7  C   UNL     1     -40.823 -51.815  11.968  1.00  0.00     0.169 A 
HETATM    8  N   UNL     1     -40.739 -51.027  10.921  1.00  0.00    -0.279 N 
HETATM    9  N   UNL     1     -39.701 -50.141  11.022  1.00  0.00    -0.296 N 
ATOM     10  HN  UNL     1     -41.374 -51.069  10.125  1.00  0.00     0.189 HD
HETATM   11  C   UNL     1     -39.037 -50.296  12.147  1.00  0.00     0.066 A 
ATOM     12  HN  UNL     1     -39.470 -49.446  10.312  1.00  0.00     0.187 HD
HETATM   13  C   UNL     1     -37.815 -49.536  12.492  1.00  0.00     0.078 C 
HETATM   14  S   UNL     1     -39.694 -51.496  13.199  1.00  0.00    -0.038 SA
ENDBRANCH   1   7
BRANCH   4  15
HETATM   15  C   UNL     1     -44.689 -51.023  13.295  1.00  0.00     0.121 C 
HETATM   16  C   UNL     1     -45.900 -51.715  12.664  1.00  0.00     0.057 C 
HETATM   17  C   UNL     1     -46.801 -52.088  13.846  1.00  0.00     0.275 C 
HETATM   18  N   UNL     1     -46.326 -51.227  14.930  1.00  0.00     0.095 N 
HETATM   19  C   UNL     1     -46.717 -51.655  16.268  1.00  0.00     0.273 C 
HETATM   20  C   UNL     1     -44.863 -51.251  14.793  1.00  0.00     0.245 C 
HETATM   21  C   UNL     1     -46.113 -50.697  17.309  1.00  0.00     0.030 C 
HETATM   22  C   UNL     1     -44.601 -50.509  17.142  1.00  0.00     0.004 C 
HETATM   23  C   UNL     1     -44.241 -50.189  15.690  1.00  0.00     0.038 C 
ENDBRANCH   4  15
TORSDOF 2
ENDMDL
MODEL 6
REMARK VINA RESULT:      -6.0      3.001      6.177
REMARK  2 active torsions:
REMARK  status: ('A' for Active; 'I' for Inactive)
REMARK    1  A    between atoms: C_7  and  N_8 
REMARK       I    between atoms: N_8  and  C_9 
REMARK       I    between atoms: C_9  and  N_11 
REMARK    2  A    between atoms: N_11  and  C_12 
ROOT
HETATM    1  N   UNL     1     -41.966 -53.928  13.226  1.00  0.00    -0.288 N 
HETATM    2  C   UNL     1     -40.810 -53.232  12.981  1.00  0.00     0.322 C 
HETATM    3  O   UNL     1     -39.724 -53.792  13.102  1.00  0.00    -0.247 OA
HETATM    4  N   UNL     1     -40.958 -51.911  12.669  1.00  0.00    -0.336 N 
HETATM    5  H   UNL     1     -41.863 -54.863  13.581  1.00  0.00     0.172 HD
HETATM    6  H   UNL     1     -41.890 -51.620  12.391  1.00  0.00     0.164 HD
ENDROOT
BRANCH   1   7
HETATM    7  C   UNL     1     -43.216 -53.392  13.080  1.00  0.00     0.169 A 
HETATM    8  N   UNL     1     -43.886 -53.227  11.962  1.00  0.00    -0.279 N 
HETATM    9  N   UNL     1     -45.068 -52.567  12.161  1.00  0.00    -0.296 N 
ATOM     10  HN  UNL     1     -43.563 -53.553  11.052  1.00  0.00     0.189 HD
HETATM   11  C   UNL     1     -45.246 -52.257  13.426  1.00  0.00     0.066 A 
ATOM     12  HN  UNL     1     -45.730 -52.342  11.418  1.00  0.00     0.187 HD
HETATM   13  C   UNL     1     -46.393 -51.466  13.926  1.00  0.00     0.078 C 
HETATM   14  S   UNL     1     -44.002 -52.827  14.478  1.00  0.00    -0.038 SA
ENDBRANCH   1   7
BRANCH   4  15
HETATM   15  C   UNL     1     -39.907 -50.981  12.326  1.00  0.00     0.121 C 
HETATM   16  C   UNL     1     -40.278 -49.927  11.281  1.00  0.00     0.057 C 
HETATM   17  C   UNL     1     -39.731 -48.609  11.839  1.00  0.00     0.275 C 
HETATM   18  N   UNL     1     -38.746 -49.035  12.833  1.00  0.00     0.095 N 
HETATM   19  C   UNL     1     -38.373 -48.012  13.803  1.00  0.00     0.273 C 
HETATM   20  C   UNL     1     -39.385 -50.171  13.509  1.00  0.00     0.245 C 
HETATM   21  C   UNL     1     -37.375 -48.603  14.814  1.00  0.00     0.030 C 
HETATM   22  C   UNL     1     -37.873 -49.905  15.453  1.00  0.00     0.004 C 
HETATM   23  C   UNL     1     -38.371 -50.887  14.392  1.00  0.00     0.038 C 
ENDBRANCH   4  15
TORSDOF 2
ENDMDL
MODEL 7
REMARK VINA RESULT:      -6.0      2.720      3.593
REMARK  2 active torsions:
REMARK  status: ('A' for Active; 'I' for Inactive)
REMARK    1  A    between atoms: C_7  and  N_8 
REMARK       I    between atoms: N_8  and  C_9 
REMARK       I    between atoms: C_9  and  N_11 
REMARK    2  A    between atoms: N_11  and  C_12 
ROOT
HETATM    1  N   UNL     1     -42.204 -48.358  12.883  1.00  0.00    -0.288 N 
HETATM    2  C   UNL     1     -42.910 -49.235  13.668  1.00  0.00     0.322 C 
HETATM    3  O   UNL     1     -42.768 -49.210  14.887  1.00  0.00    -0.247 OA
HETATM    4  N   UNL     1     -43.697 -50.134  13.008  1.00  0.00    -0.336 N 
HETATM    5  H   UNL     1     -41.527 -47.781  13.349  1.00  0.00     0.172 HD
HETATM    6  H   UNL     1     -43.899 -49.921  12.036  1.00  0.00     0.164 HD
ENDROOT
BRANCH   1   7
HETATM    7  C   UNL     1     -42.330 -48.293  11.523  1.00  0.00     0.169 A 
HETATM    8  N   UNL     1     -41.540 -48.832  10.622  1.00  0.00    -0.279 N 
HETATM    9  N   UNL     1     -41.896 -48.488   9.348  1.00  0.00    -0.296 N 
ATOM     10  HN  UNL     1     -40.751 -49.438  10.848  1.00  0.00     0.189 HD
HETATM   11  C   UNL     1     -42.947 -47.698   9.333  1.00  0.00     0.066 A 
ATOM     12  HN  UNL     1     -41.407 -48.805   8.511  1.00  0.00     0.187 HD
HETATM   13  C   UNL     1     -43.507 -47.096   8.102  1.00  0.00     0.078 C 
HETATM   14  S   UNL     1     -43.621 -47.383  10.891  1.00  0.00    -0.038 SA
ENDBRANCH   1   7
BRANCH   4  15
HETATM   15  C   UNL     1     -44.567 -51.122  13.603  1.00  0.00     0.121 C 
HETATM   16  C   UNL     1     -45.941 -51.270  12.944  1.00  0.00     0.057 C 
HETATM   17  C   UNL     1     -46.158 -52.782  12.821  1.00  0.00     0.275 C 
HETATM   18  N   UNL     1     -45.204 -53.348  13.776  1.00  0.00     0.095 N 
HETATM   19  C   UNL     1     -44.900 -54.760  13.574  1.00  0.00     0.273 C 
HETATM   20  C   UNL     1     -43.993 -52.535  13.601  1.00  0.00     0.245 C 
HETATM   21  C   UNL     1     -43.854 -55.212  14.607  1.00  0.00     0.030 C 
HETATM   22  C   UNL     1     -42.612 -54.314  14.632  1.00  0.00     0.004 C 
HETATM   23  C   UNL     1     -43.000 -52.837  14.716  1.00  0.00     0.038 C 
ENDBRANCH   4  15
TORSDOF 2
ENDMDL
MODEL 8
REMARK VINA RESULT:      -5.9      3.093      6.570
REMARK  2 active torsions:
REMARK  status: ('A' for Active; 'I' for Inactive)
REMARK    1  A    between atoms: C_7  and  N_8 
REMARK       I    between atoms: N_8  and  C_9 
REMARK       I    between atoms: C_9  and  N_11 
REMARK    2  A    between atoms: N_11  and  C_12 
ROOT
HETATM    1  N   UNL     1     -43.056 -50.716  12.743  1.00  0.00    -0.288 N 
HETATM    2  C   UNL     1     -42.955 -49.506  12.104  1.00  0.00     0.322 C 
HETATM    3  O   UNL     1     -43.810 -48.645  12.293  1.00  0.00    -0.247 OA
HETATM    4  N   UNL     1     -41.911 -49.369  11.234  1.00  0.00    -0.336 N 
HETATM    5  H   UNL     1     -43.888 -50.872  13.283  1.00  0.00     0.172 HD
HETATM    6  H   UNL     1     -41.165 -50.051  11.324  1.00  0.00     0.164 HD
ENDROOT
BRANCH   1   7
HETATM    7  C   UNL     1     -42.130 -51.715  12.618  1.00  0.00     0.169 A 
HETATM    8  N   UNL     1     -41.880 -52.441  11.552  1.00  0.00    -0.279 N 
HETATM    9  N   UNL     1     -40.961 -53.424  11.800  1.00  0.00    -0.296 N 
ATOM     10  HN  UNL     1     -42.321 -52.290  10.645  1.00  0.00     0.189 HD
HETATM   11  C   UNL     1     -40.550 -53.402  13.048  1.00  0.00     0.066 A 
ATOM     12  HN  UNL     1     -40.635 -54.091  11.101  1.00  0.00     0.187 HD
HETATM   13  C   UNL     1     -39.620 -54.399  13.625  1.00  0.00     0.078 C 
HETATM   14  S   UNL     1     -41.211 -52.117  13.992  1.00  0.00    -0.038 SA
ENDBRANCH   1   7
BRANCH   4  15
HETATM   15  C   UNL     1     -41.564 -48.187  10.480  1.00  0.00     0.121 C 
HETATM   16  C   UNL     1     -42.642 -47.680   9.520  1.00  0.00     0.057 C 
HETATM   17  C   UNL     1     -42.685 -46.164   9.742  1.00  0.00     0.275 C 
HETATM   18  N   UNL     1     -41.408 -45.872  10.393  1.00  0.00     0.095 N 
HETATM   19  C   UNL     1     -41.353 -44.591  11.088  1.00  0.00     0.273 C 
HETATM   20  C   UNL     1     -41.228 -46.976  11.345  1.00  0.00     0.245 C 
HETATM   21  C   UNL     1     -39.981 -44.433  11.766  1.00  0.00     0.030 C 
HETATM   22  C   UNL     1     -39.613 -45.629  12.653  1.00  0.00     0.004 C 
HETATM   23  C   UNL     1     -39.814 -46.951  11.909  1.00  0.00     0.038 C 
ENDBRANCH   4  15
TORSDOF 2
ENDMDL
MODEL 9
REMARK VINA RESULT:      -5.8      2.367      3.165
REMARK  2 active torsions:
REMARK  status: ('A' for Active; 'I' for Inactive)
REMARK    1  A    between atoms: C_7  and  N_8 
REMARK       I    between atoms: N_8  and  C_9 
REMARK       I    between atoms: C_9  and  N_11 
REMARK    2  A    between atoms: N_11  and  C_12 
ROOT
HETATM    1  N   UNL     1     -40.442 -48.093  11.626  1.00  0.00    -0.288 N 
HETATM    2  C   UNL     1     -40.618 -48.878  12.736  1.00  0.00     0.322 C 
HETATM    3  O   UNL     1     -39.683 -49.056  13.511  1.00  0.00    -0.247 OA
HETATM    4  N   UNL     1     -41.843 -49.467  12.868  1.00  0.00    -0.336 N 
HETATM    5  H   UNL     1     -39.509 -47.761  11.452  1.00  0.00     0.172 HD
HETATM    6  H   UNL     1     -42.588 -49.080  12.297  1.00  0.00     0.164 HD
ENDROOT
BRANCH   1   7
HETATM    7  C   UNL     1     -41.439 -47.812  10.733  1.00  0.00     0.169 A 
HETATM    8  N   UNL     1     -41.739 -48.475   9.639  1.00  0.00    -0.279 N 
HETATM    9  N   UNL     1     -42.729 -47.865   8.920  1.00  0.00    -0.296 N 
ATOM     10  HN  UNL     1     -41.287 -49.345   9.360  1.00  0.00     0.189 HD
HETATM   11  C   UNL     1     -43.141 -46.759   9.498  1.00  0.00     0.066 A 
ATOM     12  HN  UNL     1     -43.103 -48.225   8.041  1.00  0.00     0.187 HD
HETATM   13  C   UNL     1     -44.143 -45.844   8.907  1.00  0.00     0.078 C 
HETATM   14  S   UNL     1     -42.388 -46.430  11.017  1.00  0.00    -0.038 SA
ENDBRANCH   1   7
BRANCH   4  15
HETATM   15  C   UNL     1     -42.291 -50.295  13.964  1.00  0.00     0.121 C 
HETATM   16  C   UNL     1     -43.635 -49.900  14.579  1.00  0.00     0.057 C 
HETATM   17  C   UNL     1     -44.398 -51.220  14.739  1.00  0.00     0.275 C 
HETATM   18  N   UNL     1     -43.349 -52.237  14.671  1.00  0.00     0.095 N 
HETATM   19  C   UNL     1     -43.821 -53.586  14.380  1.00  0.00     0.273 C 
HETATM   20  C   UNL     1     -42.460 -51.766  13.600  1.00  0.00     0.245 C 
HETATM   21  C   UNL     1     -42.620 -54.542  14.288  1.00  0.00     0.030 C 
HETATM   22  C   UNL     1     -41.537 -54.048  13.320  1.00  0.00     0.004 C 
HETATM   23  C   UNL     1     -41.177 -52.587  13.593  1.00  0.00     0.038 C 
ENDBRANCH   4  15
TORSDOF 2
ENDMDL
