MODEL 1
REMARK VINA RESULT:      -5.6      0.000      0.000
REMARK  3 active torsions:
REMARK  status: ('A' for Active; 'I' for Inactive)
REMARK    1  A    between atoms: C_2  and  N_4 
REMARK    2  A    between atoms: C_7  and  N_8 
REMARK       I    between atoms: N_8  and  C_9 
REMARK       I    between atoms: C_9  and  N_11 
REMARK    3  A    between atoms: N_11  and  C_12 
ROOT
HETATM    1  N   UNL     1     -40.064 -49.075  11.222  1.00  0.00    -0.329 N 
HETATM    2  C   UNL     1     -40.906 -48.050  10.864  1.00  0.00     0.324 C 
HETATM    3  O   UNL     1     -40.581 -46.879  11.015  1.00  0.00    -0.247 OA
HETATM    4  N   UNL     1     -42.065 -48.512  10.309  1.00  0.00    -0.274 N 
HETATM    5  H   UNL     1     -40.483 -49.975  11.407  1.00  0.00     0.165 HD
HETATM    6  H   UNL     1     -42.403 -49.440  10.503  1.00  0.00     0.174 HD
ENDROOT
BRANCH   1   7
HETATM    7  C   UNL     1     -38.811 -48.810  11.924  1.00  0.00     0.180 C 
HETATM    8  C   UNL     1     -37.640 -49.711  11.546  1.00  0.00     0.055 C 
HETATM    9  C   UNL     1     -37.755 -50.901  12.478  1.00  0.00     0.129 C 
HETATM   10  N   UNL     1     -38.459 -50.402  13.640  1.00  0.00    -0.346 N 
HETATM   11  C   UNL     1     -39.096 -49.191  13.369  1.00  0.00     0.243 C 
HETATM   12  O   UNL     1     -39.923 -48.632  14.079  1.00  0.00    -0.271 OA
BRANCH  10  13
HETATM   13  C   UNL     1     -38.991 -51.302  14.665  1.00  0.00     0.079 C 
HETATM   14  C   UNL     1     -39.041 -52.748  14.155  1.00  0.00     0.032 C 
HETATM   15  C   UNL     1     -38.210 -51.208  15.970  1.00  0.00     0.032 C 
ENDBRANCH  10  13
ENDBRANCH   1   7
BRANCH   4  16
HETATM   16  C   UNL     1     -42.959 -47.665   9.728  1.00  0.00     0.231 A 
HETATM   17  N   UNL     1     -42.656 -46.649   8.948  1.00  0.00    -0.330 N 
HETATM   18  C   UNL     1     -43.881 -46.123   8.617  1.00  0.00     0.116 A 
ATOM     19  HN  UNL     1     -41.732 -46.328   8.659  1.00  0.00     0.168 HD
HETATM   20  C   UNL     1     -44.876 -46.812   9.259  1.00  0.00     0.162 A 
HETATM   21  O   UNL     1     -44.292 -47.804   9.981  1.00  0.00    -0.290 OA
ENDBRANCH   4  16
TORSDOF 3
ENDMDL
MODEL 2
REMARK VINA RESULT:      -5.6      4.742      6.157
REMARK  3 active torsions:
REMARK  status: ('A' for Active; 'I' for Inactive)
REMARK    1  A    between atoms: C_2  and  N_4 
REMARK    2  A    between atoms: C_7  and  N_8 
REMARK       I    between atoms: N_8  and  C_9 
REMARK       I    between atoms: C_9  and  N_11 
REMARK    3  A    between atoms: N_11  and  C_12 
ROOT
HETATM    1  N   UNL     1     -42.628 -45.353  10.702  1.00  0.00    -0.329 N 
HETATM    2  C   UNL     1     -43.310 -46.454  10.245  1.00  0.00     0.324 C 
HETATM    3  O   UNL     1     -42.981 -47.586  10.574  1.00  0.00    -0.247 OA
HETATM    4  N   UNL     1     -44.369 -46.106   9.455  1.00  0.00    -0.274 N 
HETATM    5  H   UNL     1     -42.698 -44.505  10.158  1.00  0.00     0.165 HD
HETATM    6  H   UNL     1     -44.394 -45.223   8.974  1.00  0.00     0.174 HD
ENDROOT
BRANCH   1   7
HETATM    7  C   UNL     1     -41.402 -45.496  11.483  1.00  0.00     0.180 C 
HETATM    8  C   UNL     1     -41.563 -45.368  12.994  1.00  0.00     0.055 C 
HETATM    9  C   UNL     1     -41.407 -43.886  13.271  1.00  0.00     0.129 C 
HETATM   10  N   UNL     1     -40.600 -43.382  12.180  1.00  0.00    -0.346 N 
HETATM   11  C   UNL     1     -40.570 -44.279  11.112  1.00  0.00     0.243 C 
HETATM   12  O   UNL     1     -40.145 -44.050   9.986  1.00  0.00    -0.271 OA
BRANCH  10  13
HETATM   13  C   UNL     1     -40.432 -41.946  11.944  1.00  0.00     0.079 C 
HETATM   14  C   UNL     1     -41.765 -41.293  11.556  1.00  0.00     0.032 C 
HETATM   15  C   UNL     1     -39.802 -41.240  13.138  1.00  0.00     0.032 C 
ENDBRANCH  10  13
ENDBRANCH   1   7
BRANCH   4  16
HETATM   16  C   UNL     1     -45.278 -47.032   9.041  1.00  0.00     0.231 A 
HETATM   17  N   UNL     1     -45.035 -48.028   8.216  1.00  0.00    -0.330 N 
HETATM   18  C   UNL     1     -46.246 -48.669   8.121  1.00  0.00     0.116 A 
ATOM     19  HN  UNL     1     -44.156 -48.268   7.756  1.00  0.00     0.168 HD
HETATM   20  C   UNL     1     -47.190 -47.996   8.852  1.00  0.00     0.162 A 
HETATM   21  O   UNL     1     -46.577 -46.938   9.444  1.00  0.00    -0.290 OA
ENDBRANCH   4  16
TORSDOF 3
ENDMDL
MODEL 3
REMARK VINA RESULT:      -5.4      4.181      5.147
REMARK  3 active torsions:
REMARK  status: ('A' for Active; 'I' for Inactive)
REMARK    1  A    between atoms: C_2  and  N_4 
REMARK    2  A    between atoms: C_7  and  N_8 
REMARK       I    between atoms: N_8  and  C_9 
REMARK       I    between atoms: C_9  and  N_11 
REMARK    3  A    between atoms: N_11  and  C_12 
ROOT
HETATM    1  N   UNL     1     -42.477 -50.920  12.031  1.00  0.00    -0.329 N 
HETATM    2  C   UNL     1     -41.865 -49.694  12.129  1.00  0.00     0.324 C 
HETATM    3  O   UNL     1     -41.165 -49.410  13.092  1.00  0.00    -0.247 OA
HETATM    4  N   UNL     1     -42.108 -48.914  11.034  1.00  0.00    -0.274 N 
HETATM    5  H   UNL     1     -43.289 -50.986  11.435  1.00  0.00     0.165 HD
HETATM    6  H   UNL     1     -42.917 -49.064  10.455  1.00  0.00     0.174 HD
ENDROOT
BRANCH   1   7
HETATM    7  C   UNL     1     -42.432 -51.875  13.135  1.00  0.00     0.180 C 
HETATM    8  C   UNL     1     -42.638 -53.337  12.752  1.00  0.00     0.055 C 
HETATM    9  C   UNL     1     -44.137 -53.542  12.813  1.00  0.00     0.129 C 
HETATM   10  N   UNL     1     -44.616 -52.549  13.751  1.00  0.00    -0.346 N 
HETATM   11  C   UNL     1     -43.663 -51.553  13.968  1.00  0.00     0.243 C 
HETATM   12  O   UNL     1     -43.846 -50.488  14.544  1.00  0.00    -0.271 OA
BRANCH  10  13
HETATM   13  C   UNL     1     -46.041 -52.251  13.901  1.00  0.00     0.079 C 
HETATM   14  C   UNL     1     -46.652 -51.800  12.568  1.00  0.00     0.032 C 
HETATM   15  C   UNL     1     -46.813 -53.428  14.486  1.00  0.00     0.032 C 
ENDBRANCH  10  13
ENDBRANCH   1   7
BRANCH   4  16
HETATM   16  C   UNL     1     -41.457 -47.733  10.848  1.00  0.00     0.231 A 
HETATM   17  N   UNL     1     -40.168 -47.533  11.024  1.00  0.00    -0.330 N 
HETATM   18  C   UNL     1     -40.003 -46.207  10.706  1.00  0.00     0.116 A 
ATOM     19  HN  UNL     1     -39.460 -48.203  11.325  1.00  0.00     0.168 HD
HETATM   20  C   UNL     1     -41.215 -45.644  10.404  1.00  0.00     0.162 A 
HETATM   21  O   UNL     1     -42.157 -46.617  10.498  1.00  0.00    -0.290 OA
ENDBRANCH   4  16
TORSDOF 3
ENDMDL
MODEL 4
REMARK VINA RESULT:      -5.4      2.789      6.446
REMARK  3 active torsions:
REMARK  status: ('A' for Active; 'I' for Inactive)
REMARK    1  A    between atoms: C_2  and  N_4 
REMARK    2  A    between atoms: C_7  and  N_8 
REMARK       I    between atoms: N_8  and  C_9 
REMARK       I    between atoms: C_9  and  N_11 
REMARK    3  A    between atoms: N_11  and  C_12 
ROOT
HETATM    1  N   UNL     1     -42.046 -49.093  11.130  1.00  0.00    -0.329 N 
HETATM    2  C   UNL     1     -41.981 -50.179  11.968  1.00  0.00     0.324 C 
HETATM    3  O   UNL     1     -42.803 -50.343  12.860  1.00  0.00    -0.247 OA
HETATM    4  N   UNL     1     -40.951 -51.014  11.642  1.00  0.00    -0.274 N 
HETATM    5  H   UNL     1     -41.195 -48.816  10.663  1.00  0.00     0.165 HD
HETATM    6  H   UNL     1     -40.149 -50.680  11.134  1.00  0.00     0.174 HD
ENDROOT
BRANCH   1   7
HETATM    7  C   UNL     1     -43.012 -48.022  11.358  1.00  0.00     0.180 C 
HETATM    8  C   UNL     1     -43.525 -47.316  10.107  1.00  0.00     0.055 C 
HETATM    9  C   UNL     1     -42.536 -46.193   9.868  1.00  0.00     0.129 C 
HETATM   10  N   UNL     1     -41.974 -45.903  11.170  1.00  0.00    -0.346 N 
HETATM   11  C   UNL     1     -42.218 -46.939  12.072  1.00  0.00     0.243 C 
HETATM   12  O   UNL     1     -41.703 -47.075  13.176  1.00  0.00    -0.271 OA
BRANCH  10  13
HETATM   13  C   UNL     1     -40.796 -45.048  11.329  1.00  0.00     0.079 C 
HETATM   14  C   UNL     1     -39.770 -45.313  10.220  1.00  0.00     0.032 C 
HETATM   15  C   UNL     1     -41.166 -43.571  11.392  1.00  0.00     0.032 C 
ENDBRANCH  10  13
ENDBRANCH   1   7
BRANCH   4  16
HETATM   16  C   UNL     1     -40.812 -52.233  12.232  1.00  0.00     0.231 A 
HETATM   17  N   UNL     1     -41.662 -53.234  12.132  1.00  0.00    -0.330 N 
HETATM   18  C   UNL     1     -41.082 -54.224  12.886  1.00  0.00     0.116 A 
ATOM     19  HN  UNL     1     -42.542 -53.266  11.617  1.00  0.00     0.168 HD
HETATM   20  C   UNL     1     -39.928 -53.759  13.460  1.00  0.00     0.162 A 
HETATM   21  O   UNL     1     -39.749 -52.477  13.050  1.00  0.00    -0.290 OA
ENDBRANCH   4  16
TORSDOF 3
ENDMDL
MODEL 5
REMARK VINA RESULT:      -5.2      5.396      8.935
REMARK  3 active torsions:
REMARK  status: ('A' for Active; 'I' for Inactive)
REMARK    1  A    between atoms: C_2  and  N_4 
REMARK    2  A    between atoms: C_7  and  N_8 
REMARK       I    between atoms: N_8  and  C_9 
REMARK       I    between atoms: C_9  and  N_11 
REMARK    3  A    between atoms: N_11  and  C_12 
ROOT
HETATM    1  N   UNL     1     -42.307 -53.677  14.113  1.00  0.00    -0.329 N 
HETATM    2  C   UNL     1     -41.085 -54.233  14.405  1.00  0.00     0.324 C 
HETATM    3  O   UNL     1     -40.121 -54.072  13.669  1.00  0.00    -0.247 OA
HETATM    4  N   UNL     1     -41.105 -54.910  15.592  1.00  0.00    -0.274 N 
HETATM    5  H   UNL     1     -43.122 -54.103  14.529  1.00  0.00     0.165 HD
HETATM    6  H   UNL     1     -41.963 -55.271  15.973  1.00  0.00     0.174 HD
ENDROOT
BRANCH   1   7
HETATM    7  C   UNL     1     -42.538 -52.992  12.844  1.00  0.00     0.180 C 
HETATM    8  C   UNL     1     -42.465 -51.469  12.893  1.00  0.00     0.055 C 
HETATM    9  C   UNL     1     -43.875 -51.029  13.233  1.00  0.00     0.129 C 
HETATM   10  N   UNL     1     -44.728 -52.098  12.760  1.00  0.00    -0.346 N 
HETATM   11  C   UNL     1     -44.000 -53.265  12.524  1.00  0.00     0.243 C 
HETATM   12  O   UNL     1     -44.464 -54.379  12.315  1.00  0.00    -0.271 OA
BRANCH  10  13
HETATM   13  C   UNL     1     -46.145 -52.174  13.123  1.00  0.00     0.079 C 
HETATM   14  C   UNL     1     -46.423 -51.396  14.415  1.00  0.00     0.032 C 
HETATM   15  C   UNL     1     -47.050 -51.701  11.992  1.00  0.00     0.032 C 
ENDBRANCH  10  13
ENDBRANCH   1   7
BRANCH   4  16
HETATM   16  C   UNL     1     -39.960 -55.388  16.154  1.00  0.00     0.231 A 
HETATM   17  N   UNL     1     -38.816 -54.741  16.229  1.00  0.00    -0.330 N 
HETATM   18  C   UNL     1     -37.990 -55.625  16.878  1.00  0.00     0.116 A 
ATOM     19  HN  UNL     1     -38.596 -53.805  15.888  1.00  0.00     0.168 HD
HETATM   20  C   UNL     1     -38.656 -56.798  17.117  1.00  0.00     0.162 A 
HETATM   21  O   UNL     1     -39.923 -56.657  16.650  1.00  0.00    -0.290 OA
ENDBRANCH   4  16
TORSDOF 3
ENDMDL
MODEL 6
REMARK VINA RESULT:      -5.1      3.925      6.006
REMARK  3 active torsions:
REMARK  status: ('A' for Active; 'I' for Inactive)
REMARK    1  A    between atoms: C_2  and  N_4 
REMARK    2  A    between atoms: C_7  and  N_8 
REMARK       I    between atoms: N_8  and  C_9 
REMARK       I    between atoms: C_9  and  N_11 
REMARK    3  A    between atoms: N_11  and  C_12 
ROOT
HETATM    1  N   UNL     1     -42.044 -50.375  11.949  1.00  0.00    -0.329 N 
HETATM    2  C   UNL     1     -42.332 -51.687  12.233  1.00  0.00     0.324 C 
HETATM    3  O   UNL     1     -41.503 -52.571  12.058  1.00  0.00    -0.247 OA
HETATM    4  N   UNL     1     -43.588 -51.833  12.751  1.00  0.00    -0.274 N 
HETATM    5  H   UNL     1     -42.823 -49.756  11.776  1.00  0.00     0.165 HD
HETATM    6  H   UNL     1     -44.307 -51.153  12.574  1.00  0.00     0.174 HD
ENDROOT
BRANCH   1   7
HETATM    7  C   UNL     1     -40.792 -50.003  11.296  1.00  0.00     0.180 C 
HETATM    8  C   UNL     1     -39.591 -49.829  12.220  1.00  0.00     0.055 C 
HETATM    9  C   UNL     1     -39.644 -48.376  12.647  1.00  0.00     0.129 C 
HETATM   10  N   UNL     1     -40.350 -47.695  11.583  1.00  0.00    -0.346 N 
HETATM   11  C   UNL     1     -41.039 -48.597  10.771  1.00  0.00     0.243 C 
HETATM   12  O   UNL     1     -41.877 -48.314   9.923  1.00  0.00    -0.271 OA
BRANCH  10  13
HETATM   13  C   UNL     1     -40.829 -46.319  11.730  1.00  0.00     0.079 C 
HETATM   14  C   UNL     1     -40.744 -45.861  13.192  1.00  0.00     0.032 C 
HETATM   15  C   UNL     1     -40.090 -45.355  10.810  1.00  0.00     0.032 C 
ENDBRANCH  10  13
ENDBRANCH   1   7
BRANCH   4  16
HETATM   16  C   UNL     1     -44.009 -53.023  13.262  1.00  0.00     0.231 A 
HETATM   17  N   UNL     1     -43.429 -53.685  14.241  1.00  0.00    -0.330 N 
HETATM   18  C   UNL     1     -44.222 -54.796  14.391  1.00  0.00     0.116 A 
ATOM     19  HN  UNL     1     -42.590 -53.432  14.764  1.00  0.00     0.168 HD
HETATM   20  C   UNL     1     -45.221 -54.788  13.453  1.00  0.00     0.162 A 
HETATM   21  O   UNL     1     -45.089 -53.653  12.719  1.00  0.00    -0.290 OA
ENDBRANCH   4  16
TORSDOF 3
ENDMDL
MODEL 7
REMARK VINA RESULT:      -5.1      3.135      3.630
REMARK  3 active torsions:
REMARK  status: ('A' for Active; 'I' for Inactive)
REMARK    1  A    between atoms: C_2  and  N_4 
REMARK    2  A    between atoms: C_7  and  N_8 
REMARK       I    between atoms: N_8  and  C_9 
REMARK       I    between atoms: C_9  and  N_11 
REMARK    3  A    between atoms: N_11  and  C_12 
ROOT
HETATM    1  N   UNL     1     -42.580 -50.329  12.414  1.00  0.00    -0.329 N 
HETATM    2  C   UNL     1     -42.342 -49.103  11.842  1.00  0.00     0.324 C 
HETATM    3  O   UNL     1     -41.230 -48.593  11.873  1.00  0.00    -0.247 OA
HETATM    4  N   UNL     1     -43.458 -48.599  11.235  1.00  0.00    -0.274 N 
HETATM    5  H   UNL     1     -43.533 -50.544  12.670  1.00  0.00     0.165 HD
HETATM    6  H   UNL     1     -44.380 -48.892  11.510  1.00  0.00     0.174 HD
ENDROOT
BRANCH   1   7
HETATM    7  C   UNL     1     -41.553 -51.005  13.202  1.00  0.00     0.180 C 
HETATM    8  C   UNL     1     -40.802 -52.124  12.487  1.00  0.00     0.055 C 
HETATM    9  C   UNL     1     -41.629 -53.367  12.747  1.00  0.00     0.129 C 
HETATM   10  N   UNL     1     -42.336 -53.098  13.981  1.00  0.00    -0.346 N 
HETATM   11  C   UNL     1     -42.325 -51.737  14.288  1.00  0.00     0.243 C 
HETATM   12  O   UNL     1     -43.000 -51.183  15.148  1.00  0.00    -0.271 OA
BRANCH  10  13
HETATM   13  C   UNL     1     -43.432 -53.951  14.445  1.00  0.00     0.079 C 
HETATM   14  C   UNL     1     -44.362 -54.330  13.286  1.00  0.00     0.032 C 
HETATM   15  C   UNL     1     -42.924 -55.192  15.168  1.00  0.00     0.032 C 
ENDBRANCH  10  13
ENDBRANCH   1   7
BRANCH   4  16
HETATM   16  C   UNL     1     -43.398 -47.481  10.460  1.00  0.00     0.231 A 
HETATM   17  N   UNL     1     -43.123 -46.266  10.887  1.00  0.00    -0.330 N 
HETATM   18  C   UNL     1     -43.175 -45.505   9.746  1.00  0.00     0.116 A 
ATOM     19  HN  UNL     1     -42.920 -45.963  11.840  1.00  0.00     0.168 HD
HETATM   20  C   UNL     1     -43.537 -46.285   8.679  1.00  0.00     0.162 A 
HETATM   21  O   UNL     1     -43.688 -47.558   9.130  1.00  0.00    -0.290 OA
ENDBRANCH   4  16
TORSDOF 3
ENDMDL
MODEL 8
REMARK VINA RESULT:      -4.9      4.847      6.706
REMARK  3 active torsions:
REMARK  status: ('A' for Active; 'I' for Inactive)
REMARK    1  A    between atoms: C_2  and  N_4 
REMARK    2  A    between atoms: C_7  and  N_8 
REMARK       I    between atoms: N_8  and  C_9 
REMARK       I    between atoms: C_9  and  N_11 
REMARK    3  A    between atoms: N_11  and  C_12 
ROOT
HETATM    1  N   UNL     1     -42.329 -52.056  13.093  1.00  0.00    -0.329 N 
HETATM    2  C   UNL     1     -41.010 -52.037  12.712  1.00  0.00     0.324 C 
HETATM    3  O   UNL     1     -40.448 -53.052  12.319  1.00  0.00    -0.247 OA
HETATM    4  N   UNL     1     -40.473 -50.783  12.791  1.00  0.00    -0.274 N 
HETATM    5  H   UNL     1     -42.641 -51.324  13.716  1.00  0.00     0.165 HD
HETATM    6  H   UNL     1     -40.864 -50.086  13.402  1.00  0.00     0.174 HD
ENDROOT
BRANCH   1   7
HETATM    7  C   UNL     1     -43.071 -53.311  13.180  1.00  0.00     0.180 C 
HETATM    8  C   UNL     1     -44.337 -53.389  12.333  1.00  0.00     0.055 C 
HETATM    9  C   UNL     1     -45.429 -52.837  13.226  1.00  0.00     0.129 C 
HETATM   10  N   UNL     1     -44.966 -53.070  14.577  1.00  0.00    -0.346 N 
HETATM   11  C   UNL     1     -43.598 -53.344  14.606  1.00  0.00     0.243 C 
HETATM   12  O   UNL     1     -42.888 -53.385  15.603  1.00  0.00    -0.271 OA
BRANCH  10  13
HETATM   13  C   UNL     1     -45.620 -52.457  15.735  1.00  0.00     0.079 C 
HETATM   14  C   UNL     1     -46.777 -51.550  15.296  1.00  0.00     0.032 C 
HETATM   15  C   UNL     1     -46.092 -53.498  16.743  1.00  0.00     0.032 C 
ENDBRANCH  10  13
ENDBRANCH   1   7
BRANCH   4  16
HETATM   16  C   UNL     1     -39.235 -50.510  12.295  1.00  0.00     0.231 A 
HETATM   17  N   UNL     1     -38.966 -50.166  11.053  1.00  0.00    -0.330 N 
HETATM   18  C   UNL     1     -37.603 -49.994  11.056  1.00  0.00     0.116 A 
ATOM     19  HN  UNL     1     -39.615 -50.054  10.274  1.00  0.00     0.168 HD
HETATM   20  C   UNL     1     -37.096 -50.298  12.292  1.00  0.00     0.162 A 
HETATM   21  O   UNL     1     -38.138 -50.636  13.095  1.00  0.00    -0.290 OA
ENDBRANCH   4  16
TORSDOF 3
ENDMDL
MODEL 9
REMARK VINA RESULT:      -4.8      3.103      4.670
REMARK  3 active torsions:
REMARK  status: ('A' for Active; 'I' for Inactive)
REMARK    1  A    between atoms: C_2  and  N_4 
REMARK    2  A    between atoms: C_7  and  N_8 
REMARK       I    between atoms: N_8  and  C_9 
REMARK       I    between atoms: C_9  and  N_11 
REMARK    3  A    between atoms: N_11  and  C_12 
ROOT
HETATM    1  N   UNL     1     -41.314 -52.321  13.783  1.00  0.00    -0.329 N 
HETATM    2  C   UNL     1     -41.245 -51.505  12.681  1.00  0.00     0.324 C 
HETATM    3  O   UNL     1     -41.234 -51.967  11.548  1.00  0.00    -0.247 OA
HETATM    4  N   UNL     1     -41.238 -50.182  13.025  1.00  0.00    -0.274 N 
HETATM    5  H   UNL     1     -40.978 -51.947  14.659  1.00  0.00     0.165 HD
HETATM    6  H   UNL     1     -40.931 -49.881  13.935  1.00  0.00     0.174 HD
ENDROOT
BRANCH   1   7
HETATM    7  C   UNL     1     -41.235 -53.773  13.651  1.00  0.00     0.180 C 
HETATM    8  C   UNL     1     -42.102 -54.572  14.619  1.00  0.00     0.055 C 
HETATM    9  C   UNL     1     -41.229 -54.770  15.842  1.00  0.00     0.129 C 
HETATM   10  N   UNL     1     -39.869 -54.696  15.350  1.00  0.00    -0.346 N 
HETATM   11  C   UNL     1     -39.818 -54.118  14.082  1.00  0.00     0.243 C 
HETATM   12  O   UNL     1     -38.808 -53.741  13.498  1.00  0.00    -0.271 OA
BRANCH  10  13
HETATM   13  C   UNL     1     -38.725 -54.589  16.258  1.00  0.00     0.079 C 
HETATM   14  C   UNL     1     -39.090 -53.781  17.510  1.00  0.00     0.032 C 
HETATM   15  C   UNL     1     -38.162 -55.954  16.631  1.00  0.00     0.032 C 
ENDBRANCH  10  13
ENDBRANCH   1   7
BRANCH   4  16
HETATM   16  C   UNL     1     -41.349 -49.205  12.084  1.00  0.00     0.231 A 
HETATM   17  N   UNL     1     -42.259 -49.156  11.133  1.00  0.00    -0.330 N 
HETATM   18  C   UNL     1     -41.959 -47.996  10.462  1.00  0.00     0.116 A 
ATOM     19  HN  UNL     1     -43.008 -49.821  10.942  1.00  0.00     0.168 HD
HETATM   20  C   UNL     1     -40.840 -47.419  11.001  1.00  0.00     0.162 A 
HETATM   21  O   UNL     1     -40.437 -48.192  12.042  1.00  0.00    -0.290 OA
ENDBRANCH   4  16
TORSDOF 3
ENDMDL
