MODEL 1
REMARK VINA RESULT:      -6.5      0.000      0.000
REMARK  4 active torsions:
REMARK  status: ('A' for Active; 'I' for Inactive)
REMARK    1  A    between atoms: C_2  and  S_3 
REMARK    2  A    between atoms: S_3  and  C_4 
REMARK    3  A    between atoms: C_9  and  N_10 
REMARK       I    between atoms: N_10  and  C_11 
REMARK       I    between atoms: C_11  and  N_13 
REMARK    4  A    between atoms: N_13  and  C_14 
ROOT
HETATM    1  N   UNL     1     -39.875 -48.507  11.304  1.00  0.00    -0.337 N 
HETATM    2  C   UNL     1     -41.209 -48.619  10.974  1.00  0.00     0.322 C 
HETATM    3  O   UNL     1     -41.947 -49.457  11.472  1.00  0.00    -0.247 OA
HETATM    4  N   UNL     1     -41.561 -47.704  10.016  1.00  0.00    -0.293 N 
HETATM    5  H   UNL     1     -39.428 -47.617  11.138  1.00  0.00     0.164 HD
HETATM    6  H   UNL     1     -40.843 -47.419   9.371  1.00  0.00     0.172 HD
ENDROOT
BRANCH   1   7
HETATM    7  C   UNL     1     -39.259 -49.407  12.266  1.00  0.00     0.100 C 
HETATM    8  C   UNL     1     -39.275 -48.925  13.743  1.00  0.00     0.070 C 
HETATM    9  C   UNL     1     -38.739 -50.079  14.617  1.00  0.00     0.017 C 
HETATM   10  C   UNL     1     -37.367 -50.608  14.182  1.00  0.00     0.001 C 
HETATM   11  C   UNL     1     -37.279 -50.909  12.686  1.00  0.00     0.002 C 
HETATM   12  C   UNL     1     -37.843 -49.790  11.816  1.00  0.00     0.026 C 
BRANCH   8  13
HETATM   13  S   UNL     1     -38.301 -47.379  14.105  1.00  0.00    -0.163 SA
BRANCH  13  14
HETATM   14  C   UNL     1     -39.599 -46.106  13.982  1.00  0.00     0.070 C 
HETATM   15  C   UNL     1     -39.106 -44.866  13.258  1.00  0.00     0.016 C 
ENDBRANCH  13  14
ENDBRANCH   8  13
ENDBRANCH   1   7
BRANCH   4  16
HETATM   16  C   UNL     1     -42.828 -47.662   9.474  1.00  0.00     0.132 A 
HETATM   17  C   UNL     1     -44.045 -47.277  10.079  1.00  0.00     0.084 A 
HETATM   18  C   UNL     1     -44.986 -47.486   9.099  1.00  0.00     0.076 A 
HETATM   19  C   UNL     1     -46.452 -47.332   9.026  1.00  0.00     0.079 C 
HETATM   20  O   UNL     1     -44.372 -47.939   7.979  1.00  0.00    -0.241 OA
HETATM   21  N   UNL     1     -43.009 -48.000   8.193  1.00  0.00    -0.245 N 
ATOM     22  HN  UNL     1     -42.290 -48.251   7.515  1.00  0.00     0.196 HD
ENDBRANCH   4  16
TORSDOF 4
ENDMDL
MODEL 2
REMARK VINA RESULT:      -6.1      3.243      6.249
REMARK  4 active torsions:
REMARK  status: ('A' for Active; 'I' for Inactive)
REMARK    1  A    between atoms: C_2  and  S_3 
REMARK    2  A    between atoms: S_3  and  C_4 
REMARK    3  A    between atoms: C_9  and  N_10 
REMARK       I    between atoms: N_10  and  C_11 
REMARK       I    between atoms: C_11  and  N_13 
REMARK    4  A    between atoms: N_13  and  C_14 
ROOT
HETATM    1  N   UNL     1     -40.777 -47.569  10.604  1.00  0.00    -0.337 N 
HETATM    2  C   UNL     1     -40.794 -48.617  11.499  1.00  0.00     0.322 C 
HETATM    3  O   UNL     1     -40.976 -48.463  12.697  1.00  0.00    -0.247 OA
HETATM    4  N   UNL     1     -40.553 -49.811  10.868  1.00  0.00    -0.293 N 
HETATM    5  H   UNL     1     -40.969 -47.780   9.636  1.00  0.00     0.164 HD
HETATM    6  H   UNL     1     -39.977 -49.783  10.044  1.00  0.00     0.172 HD
ENDROOT
BRANCH   1   7
HETATM    7  C   UNL     1     -40.959 -46.196  11.048  1.00  0.00     0.100 C 
HETATM    8  C   UNL     1     -42.426 -45.684  11.059  1.00  0.00     0.070 C 
HETATM    9  C   UNL     1     -42.428 -44.287  11.716  1.00  0.00     0.017 C 
HETATM   10  C   UNL     1     -41.458 -43.290  11.070  1.00  0.00     0.001 C 
HETATM   11  C   UNL     1     -40.049 -43.852  10.879  1.00  0.00     0.002 C 
HETATM   12  C   UNL     1     -40.040 -45.248  10.266  1.00  0.00     0.026 C 
BRANCH   8  13
HETATM   13  S   UNL     1     -43.264 -45.581   9.399  1.00  0.00    -0.163 SA
BRANCH  13  14
HETATM   14  C   UNL     1     -43.876 -47.286   9.205  1.00  0.00     0.070 C 
HETATM   15  C   UNL     1     -43.551 -47.850   7.834  1.00  0.00     0.016 C 
ENDBRANCH  13  14
ENDBRANCH   8  13
ENDBRANCH   1   7
BRANCH   4  16
HETATM   16  C   UNL     1     -40.455 -50.998  11.562  1.00  0.00     0.132 A 
HETATM   17  C   UNL     1     -41.400 -52.041  11.684  1.00  0.00     0.084 A 
HETATM   18  C   UNL     1     -40.799 -52.940  12.531  1.00  0.00     0.076 A 
HETATM   19  C   UNL     1     -41.201 -54.232  13.120  1.00  0.00     0.079 C 
HETATM   20  O   UNL     1     -39.570 -52.480  12.873  1.00  0.00    -0.241 OA
HETATM   21  N   UNL     1     -39.329 -51.285  12.223  1.00  0.00    -0.245 N 
ATOM     22  HN  UNL     1     -38.470 -50.736  12.243  1.00  0.00     0.196 HD
ENDBRANCH   4  16
TORSDOF 4
ENDMDL
MODEL 3
REMARK VINA RESULT:      -6.0      2.624      3.279
REMARK  4 active torsions:
REMARK  status: ('A' for Active; 'I' for Inactive)
REMARK    1  A    between atoms: C_2  and  S_3 
REMARK    2  A    between atoms: S_3  and  C_4 
REMARK    3  A    between atoms: C_9  and  N_10 
REMARK       I    between atoms: N_10  and  C_11 
REMARK       I    between atoms: C_11  and  N_13 
REMARK    4  A    between atoms: N_13  and  C_14 
ROOT
HETATM    1  N   UNL     1     -40.881 -50.864  11.543  1.00  0.00    -0.337 N 
HETATM    2  C   UNL     1     -41.514 -49.640  11.529  1.00  0.00     0.322 C 
HETATM    3  O   UNL     1     -42.161 -49.216  12.476  1.00  0.00    -0.247 OA
HETATM    4  N   UNL     1     -41.340 -49.006  10.325  1.00  0.00    -0.293 N 
HETATM    5  H   UNL     1     -40.109 -50.996  10.907  1.00  0.00     0.164 HD
HETATM    6  H   UNL     1     -41.226 -49.590   9.515  1.00  0.00     0.172 HD
ENDROOT
BRANCH   1   7
HETATM    7  C   UNL     1     -40.967 -51.743  12.699  1.00  0.00     0.100 C 
HETATM    8  C   UNL     1     -40.036 -51.378  13.889  1.00  0.00     0.070 C 
HETATM    9  C   UNL     1     -40.396 -52.311  15.066  1.00  0.00     0.017 C 
HETATM   10  C   UNL     1     -40.353 -53.804  14.716  1.00  0.00     0.001 C 
HETATM   11  C   UNL     1     -41.111 -54.149  13.435  1.00  0.00     0.002 C 
HETATM   12  C   UNL     1     -40.792 -53.208  12.278  1.00  0.00     0.026 C 
BRANCH   8  13
HETATM   13  S   UNL     1     -38.207 -51.491  13.555  1.00  0.00    -0.163 SA
BRANCH  13  14
HETATM   14  C   UNL     1     -37.864 -49.825  12.903  1.00  0.00     0.070 C 
HETATM   15  C   UNL     1     -37.454 -49.864  11.442  1.00  0.00     0.016 C 
ENDBRANCH  13  14
ENDBRANCH   8  13
ENDBRANCH   1   7
BRANCH   4  16
HETATM   16  C   UNL     1     -41.933 -47.794  10.044  1.00  0.00     0.132 A 
HETATM   17  C   UNL     1     -43.271 -47.515   9.691  1.00  0.00     0.084 A 
HETATM   18  C   UNL     1     -43.284 -46.159   9.471  1.00  0.00     0.076 A 
HETATM   19  C   UNL     1     -44.316 -45.191   9.050  1.00  0.00     0.079 C 
HETATM   20  O   UNL     1     -42.047 -45.656   9.701  1.00  0.00    -0.241 OA
HETATM   21  N   UNL     1     -41.207 -46.673  10.114  1.00  0.00    -0.245 N 
ATOM     22  HN  UNL     1     -40.235 -46.585  10.411  1.00  0.00     0.196 HD
ENDBRANCH   4  16
TORSDOF 4
ENDMDL
MODEL 4
REMARK VINA RESULT:      -5.9      4.513      5.978
REMARK  4 active torsions:
REMARK  status: ('A' for Active; 'I' for Inactive)
REMARK    1  A    between atoms: C_2  and  S_3 
REMARK    2  A    between atoms: S_3  and  C_4 
REMARK    3  A    between atoms: C_9  and  N_10 
REMARK       I    between atoms: N_10  and  C_11 
REMARK       I    between atoms: C_11  and  N_13 
REMARK    4  A    between atoms: N_13  and  C_14 
ROOT
HETATM    1  N   UNL     1     -43.346 -50.498  12.395  1.00  0.00    -0.337 N 
HETATM    2  C   UNL     1     -42.882 -49.203  12.304  1.00  0.00     0.322 C 
HETATM    3  O   UNL     1     -43.083 -48.364  13.170  1.00  0.00    -0.247 OA
HETATM    4  N   UNL     1     -42.213 -48.998  11.125  1.00  0.00    -0.293 N 
HETATM    5  H   UNL     1     -42.871 -51.202  11.851  1.00  0.00     0.164 HD
HETATM    6  H   UNL     1     -42.502 -49.550  10.335  1.00  0.00     0.172 HD
ENDROOT
BRANCH   1   7
HETATM    7  C   UNL     1     -44.130 -50.938  13.538  1.00  0.00     0.100 C 
HETATM    8  C   UNL     1     -43.553 -52.151  14.321  1.00  0.00     0.070 C 
HETATM    9  C   UNL     1     -44.425 -52.351  15.580  1.00  0.00     0.017 C 
HETATM   10  C   UNL     1     -45.923 -52.494  15.288  1.00  0.00     0.001 C 
HETATM   11  C   UNL     1     -46.466 -51.409  14.359  1.00  0.00     0.002 C 
HETATM   12  C   UNL     1     -45.591 -51.176  13.132  1.00  0.00     0.026 C 
BRANCH   8  13
HETATM   13  S   UNL     1     -43.458 -53.755  13.380  1.00  0.00    -0.163 SA
BRANCH  13  14
HETATM   14  C   UNL     1     -41.669 -54.093  13.436  1.00  0.00     0.070 C 
HETATM   15  C   UNL     1     -40.893 -53.182  12.501  1.00  0.00     0.016 C 
ENDBRANCH  13  14
ENDBRANCH   8  13
ENDBRANCH   1   7
BRANCH   4  16
HETATM   16  C   UNL     1     -41.712 -47.764  10.773  1.00  0.00     0.132 A 
HETATM   17  C   UNL     1     -40.545 -47.112  11.229  1.00  0.00     0.084 A 
HETATM   18  C   UNL     1     -40.571 -45.895  10.592  1.00  0.00     0.076 A 
HETATM   19  C   UNL     1     -39.702 -44.702  10.607  1.00  0.00     0.079 C 
HETATM   20  O   UNL     1     -41.663 -45.832   9.791  1.00  0.00    -0.241 OA
HETATM   21  N   UNL     1     -42.354 -47.027   9.861  1.00  0.00    -0.245 N 
ATOM     22  HN  UNL     1     -43.182 -47.291   9.327  1.00  0.00     0.196 HD
ENDBRANCH   4  16
TORSDOF 4
ENDMDL
MODEL 5
REMARK VINA RESULT:      -5.8      4.231      5.575
REMARK  4 active torsions:
REMARK  status: ('A' for Active; 'I' for Inactive)
REMARK    1  A    between atoms: C_2  and  S_3 
REMARK    2  A    between atoms: S_3  and  C_4 
REMARK    3  A    between atoms: C_9  and  N_10 
REMARK       I    between atoms: N_10  and  C_11 
REMARK       I    between atoms: C_11  and  N_13 
REMARK    4  A    between atoms: N_13  and  C_14 
ROOT
HETATM    1  N   UNL     1     -42.441 -51.723  11.982  1.00  0.00    -0.337 N 
HETATM    2  C   UNL     1     -41.942 -50.465  12.242  1.00  0.00     0.322 C 
HETATM    3  O   UNL     1     -41.916 -49.980  13.363  1.00  0.00    -0.247 OA
HETATM    4  N   UNL     1     -41.525 -49.849  11.089  1.00  0.00    -0.293 N 
HETATM    5  H   UNL     1     -42.125 -52.184  11.141  1.00  0.00     0.164 HD
HETATM    6  H   UNL     1     -41.999 -50.103  10.240  1.00  0.00     0.172 HD
ENDROOT
BRANCH   1   7
HETATM    7  C   UNL     1     -42.990 -52.550  13.045  1.00  0.00     0.100 C 
HETATM    8  C   UNL     1     -41.953 -53.126  14.049  1.00  0.00     0.070 C 
HETATM    9  C   UNL     1     -42.738 -53.820  15.183  1.00  0.00     0.017 C 
HETATM   10  C   UNL     1     -43.740 -54.874  14.697  1.00  0.00     0.001 C 
HETATM   11  C   UNL     1     -44.645 -54.376  13.570  1.00  0.00     0.002 C 
HETATM   12  C   UNL     1     -43.882 -53.654  12.464  1.00  0.00     0.026 C 
BRANCH   8  13
HETATM   13  S   UNL     1     -40.713 -54.322  13.342  1.00  0.00    -0.163 SA
BRANCH  13  14
HETATM   14  C   UNL     1     -39.177 -53.752  14.138  1.00  0.00     0.070 C 
HETATM   15  C   UNL     1     -39.095 -52.237  14.186  1.00  0.00     0.016 C 
ENDBRANCH  13  14
ENDBRANCH   8  13
ENDBRANCH   1   7
BRANCH   4  16
HETATM   16  C   UNL     1     -41.047 -48.556  11.082  1.00  0.00     0.132 A 
HETATM   17  C   UNL     1     -41.708 -47.362  10.719  1.00  0.00     0.084 A 
HETATM   18  C   UNL     1     -40.743 -46.393  10.846  1.00  0.00     0.076 A 
HETATM   19  C   UNL     1     -40.705 -44.936  10.613  1.00  0.00     0.079 C 
HETATM   20  O   UNL     1     -39.591 -46.962  11.279  1.00  0.00    -0.241 OA
HETATM   21  N   UNL     1     -39.793 -48.314  11.479  1.00  0.00    -0.245 N 
ATOM     22  HN  UNL     1     -39.125 -48.987  11.853  1.00  0.00     0.196 HD
ENDBRANCH   4  16
TORSDOF 4
ENDMDL
MODEL 6
REMARK VINA RESULT:      -5.7      3.937      6.281
REMARK  4 active torsions:
REMARK  status: ('A' for Active; 'I' for Inactive)
REMARK    1  A    between atoms: C_2  and  S_3 
REMARK    2  A    between atoms: S_3  and  C_4 
REMARK    3  A    between atoms: C_9  and  N_10 
REMARK       I    between atoms: N_10  and  C_11 
REMARK       I    between atoms: C_11  and  N_13 
REMARK    4  A    between atoms: N_13  and  C_14 
ROOT
HETATM    1  N   UNL     1     -41.538 -49.418  11.332  1.00  0.00    -0.337 N 
HETATM    2  C   UNL     1     -42.241 -50.263  12.163  1.00  0.00     0.322 C 
HETATM    3  O   UNL     1     -42.913 -49.862  13.102  1.00  0.00    -0.247 OA
HETATM    4  N   UNL     1     -42.053 -51.575  11.811  1.00  0.00    -0.293 N 
HETATM    5  H   UNL     1     -41.304 -49.759  10.411  1.00  0.00     0.164 HD
HETATM    6  H   UNL     1     -41.175 -51.810  11.380  1.00  0.00     0.172 HD
ENDROOT
BRANCH   1   7
HETATM    7  C   UNL     1     -41.543 -47.979  11.542  1.00  0.00     0.100 C 
HETATM    8  C   UNL     1     -42.794 -47.227  11.008  1.00  0.00     0.070 C 
HETATM    9  C   UNL     1     -42.691 -45.759  11.475  1.00  0.00     0.017 C 
HETATM   10  C   UNL     1     -41.377 -45.070  11.088  1.00  0.00     0.001 C 
HETATM   11  C   UNL     1     -40.136 -45.890  11.438  1.00  0.00     0.002 C 
HETATM   12  C   UNL     1     -40.245 -47.351  11.016  1.00  0.00     0.026 C 
BRANCH   8  13
HETATM   13  S   UNL     1     -43.040 -47.267   9.162  1.00  0.00    -0.163 SA
BRANCH  13  14
HETATM   14  C   UNL     1     -44.646 -46.421   9.001  1.00  0.00     0.070 C 
HETATM   15  C   UNL     1     -45.809 -47.366   9.244  1.00  0.00     0.016 C 
ENDBRANCH  13  14
ENDBRANCH   8  13
ENDBRANCH   1   7
BRANCH   4  16
HETATM   16  C   UNL     1     -42.601 -52.613  12.533  1.00  0.00     0.132 A 
HETATM   17  C   UNL     1     -42.138 -53.213  13.725  1.00  0.00     0.084 A 
HETATM   18  C   UNL     1     -43.036 -54.226  13.960  1.00  0.00     0.076 A 
HETATM   19  C   UNL     1     -43.166 -55.271  14.994  1.00  0.00     0.079 C 
HETATM   20  O   UNL     1     -43.984 -54.218  12.991  1.00  0.00    -0.241 OA
HETATM   21  N   UNL     1     -43.744 -53.171  12.122  1.00  0.00    -0.245 N 
ATOM     22  HN  UNL     1     -44.321 -52.884  11.331  1.00  0.00     0.196 HD
ENDBRANCH   4  16
TORSDOF 4
ENDMDL
MODEL 7
REMARK VINA RESULT:      -5.3      4.978      5.850
REMARK  4 active torsions:
REMARK  status: ('A' for Active; 'I' for Inactive)
REMARK    1  A    between atoms: C_2  and  S_3 
REMARK    2  A    between atoms: S_3  and  C_4 
REMARK    3  A    between atoms: C_9  and  N_10 
REMARK       I    between atoms: N_10  and  C_11 
REMARK       I    between atoms: C_11  and  N_13 
REMARK    4  A    between atoms: N_13  and  C_14 
ROOT
HETATM    1  N   UNL     1     -43.251 -51.417  14.104  1.00  0.00    -0.337 N 
HETATM    2  C   UNL     1     -42.878 -50.875  12.893  1.00  0.00     0.322 C 
HETATM    3  O   UNL     1     -42.214 -51.487  12.069  1.00  0.00    -0.247 OA
HETATM    4  N   UNL     1     -43.322 -49.583  12.770  1.00  0.00    -0.293 N 
HETATM    5  H   UNL     1     -44.055 -51.017  14.565  1.00  0.00     0.164 HD
HETATM    6  H   UNL     1     -43.419 -49.052  13.618  1.00  0.00     0.172 HD
ENDROOT
BRANCH   1   7
HETATM    7  C   UNL     1     -42.850 -52.763  14.482  1.00  0.00     0.100 C 
HETATM    8  C   UNL     1     -43.993 -53.815  14.526  1.00  0.00     0.070 C 
HETATM    9  C   UNL     1     -43.348 -55.196  14.774  1.00  0.00     0.017 C 
HETATM   10  C   UNL     1     -42.444 -55.251  16.011  1.00  0.00     0.001 C 
HETATM   11  C   UNL     1     -41.434 -54.105  16.077  1.00  0.00     0.002 C 
HETATM   12  C   UNL     1     -42.056 -52.742  15.795  1.00  0.00     0.026 C 
BRANCH   8  13
HETATM   13  S   UNL     1     -45.320 -53.522  15.801  1.00  0.00    -0.163 SA
BRANCH  13  14
HETATM   14  C   UNL     1     -46.704 -52.974  14.751  1.00  0.00     0.070 C 
HETATM   15  C   UNL     1     -46.808 -51.460  14.700  1.00  0.00     0.016 C 
ENDBRANCH  13  14
ENDBRANCH   8  13
ENDBRANCH   1   7
BRANCH   4  16
HETATM   16  C   UNL     1     -43.019 -48.806  11.672  1.00  0.00     0.132 A 
HETATM   17  C   UNL     1     -43.739 -47.726  11.117  1.00  0.00     0.084 A 
HETATM   18  C   UNL     1     -43.009 -47.370  10.010  1.00  0.00     0.076 A 
HETATM   19  C   UNL     1     -43.169 -46.357   8.949  1.00  0.00     0.079 C 
HETATM   20  O   UNL     1     -41.914 -48.165   9.921  1.00  0.00    -0.241 OA
HETATM   21  N   UNL     1     -41.889 -49.034  10.995  1.00  0.00    -0.245 N 
ATOM     22  HN  UNL     1     -41.159 -49.709  11.223  1.00  0.00     0.196 HD
ENDBRANCH   4  16
TORSDOF 4
ENDMDL
MODEL 8
REMARK VINA RESULT:      -5.0      4.609      5.699
REMARK  4 active torsions:
REMARK  status: ('A' for Active; 'I' for Inactive)
REMARK    1  A    between atoms: C_2  and  S_3 
REMARK    2  A    between atoms: S_3  and  C_4 
REMARK    3  A    between atoms: C_9  and  N_10 
REMARK       I    between atoms: N_10  and  C_11 
REMARK       I    between atoms: C_11  and  N_13 
REMARK    4  A    between atoms: N_13  and  C_14 
ROOT
HETATM    1  N   UNL     1     -39.845 -51.551  13.524  1.00  0.00    -0.337 N 
HETATM    2  C   UNL     1     -41.006 -52.078  14.046  1.00  0.00     0.322 C 
HETATM    3  O   UNL     1     -41.563 -51.614  15.030  1.00  0.00    -0.247 OA
HETATM    4  N   UNL     1     -41.411 -53.182  13.339  1.00  0.00    -0.293 N 
HETATM    5  H   UNL     1     -39.639 -51.746  12.555  1.00  0.00     0.164 HD
HETATM    6  H   UNL     1     -40.692 -53.730  12.899  1.00  0.00     0.172 HD
ENDROOT
BRANCH   1   7
HETATM    7  C   UNL     1     -39.196 -50.404  14.139  1.00  0.00     0.100 C 
HETATM    8  C   UNL     1     -39.626 -49.016  13.587  1.00  0.00     0.070 C 
HETATM    9  C   UNL     1     -38.966 -47.937  14.473  1.00  0.00     0.017 C 
HETATM   10  C   UNL     1     -37.444 -48.078  14.601  1.00  0.00     0.001 C 
HETATM   11  C   UNL     1     -36.994 -49.494  14.959  1.00  0.00     0.002 C 
HETATM   12  C   UNL     1     -37.671 -50.569  14.116  1.00  0.00     0.026 C 
BRANCH   8  13
HETATM   13  S   UNL     1     -39.207 -48.684  11.803  1.00  0.00    -0.163 SA
BRANCH  13  14
HETATM   14  C   UNL     1     -40.542 -47.538  11.332  1.00  0.00     0.070 C 
HETATM   15  C   UNL     1     -40.005 -46.168  10.959  1.00  0.00     0.016 C 
ENDBRANCH  13  14
ENDBRANCH   8  13
ENDBRANCH   1   7
BRANCH   4  16
HETATM   16  C   UNL     1     -42.512 -53.924  13.708  1.00  0.00     0.132 A 
HETATM   17  C   UNL     1     -43.811 -53.932  13.152  1.00  0.00     0.084 A 
HETATM   18  C   UNL     1     -44.509 -54.809  13.945  1.00  0.00     0.076 A 
HETATM   19  C   UNL     1     -45.906 -55.285  13.977  1.00  0.00     0.079 C 
HETATM   20  O   UNL     1     -43.682 -55.311  14.894  1.00  0.00    -0.241 OA
HETATM   21  N   UNL     1     -42.412 -54.798  14.715  1.00  0.00    -0.245 N 
ATOM     22  HN  UNL     1     -41.572 -55.037  15.242  1.00  0.00     0.196 HD
ENDBRANCH   4  16
TORSDOF 4
ENDMDL
MODEL 9
REMARK VINA RESULT:      -4.9      4.331      5.476
REMARK  4 active torsions:
REMARK  status: ('A' for Active; 'I' for Inactive)
REMARK    1  A    between atoms: C_2  and  S_3 
REMARK    2  A    between atoms: S_3  and  C_4 
REMARK    3  A    between atoms: C_9  and  N_10 
REMARK       I    between atoms: N_10  and  C_11 
REMARK       I    between atoms: C_11  and  N_13 
REMARK    4  A    between atoms: N_13  and  C_14 
ROOT
HETATM    1  N   UNL     1     -41.801 -51.918  11.644  1.00  0.00    -0.337 N 
HETATM    2  C   UNL     1     -41.323 -50.672  11.989  1.00  0.00     0.322 C 
HETATM    3  O   UNL     1     -40.937 -50.398  13.116  1.00  0.00    -0.247 OA
HETATM    4  N   UNL     1     -41.373 -49.809  10.924  1.00  0.00    -0.293 N 
HETATM    5  H   UNL     1     -41.771 -52.174  10.668  1.00  0.00     0.164 HD
HETATM    6  H   UNL     1     -42.097 -49.966  10.244  1.00  0.00     0.172 HD
ENDROOT
BRANCH   1   7
HETATM    7  C   UNL     1     -41.892 -52.988  12.625  1.00  0.00     0.100 C 
HETATM    8  C   UNL     1     -43.298 -53.205  13.251  1.00  0.00     0.070 C 
HETATM    9  C   UNL     1     -43.228 -54.477  14.124  1.00  0.00     0.017 C 
HETATM   10  C   UNL     1     -42.110 -54.455  15.173  1.00  0.00     0.001 C 
HETATM   11  C   UNL     1     -40.750 -54.055  14.602  1.00  0.00     0.002 C 
HETATM   12  C   UNL     1     -40.816 -52.822  13.706  1.00  0.00     0.026 C 
BRANCH   8  13
HETATM   13  S   UNL     1     -43.961 -51.796  14.274  1.00  0.00    -0.163 SA
BRANCH  13  14
HETATM   14  C   UNL     1     -45.583 -52.455  14.776  1.00  0.00     0.070 C 
HETATM   15  C   UNL     1     -46.683 -51.419  14.631  1.00  0.00     0.016 C 
ENDBRANCH  13  14
ENDBRANCH   8  13
ENDBRANCH   1   7
BRANCH   4  16
HETATM   16  C   UNL     1     -41.009 -48.485  11.037  1.00  0.00     0.132 A 
HETATM   17  C   UNL     1     -41.800 -47.325  10.882  1.00  0.00     0.084 A 
HETATM   18  C   UNL     1     -40.913 -46.290  11.048  1.00  0.00     0.076 A 
HETATM   19  C   UNL     1     -41.021 -44.819  10.995  1.00  0.00     0.079 C 
HETATM   20  O   UNL     1     -39.681 -46.793  11.309  1.00  0.00    -0.241 OA
HETATM   21  N   UNL     1     -39.749 -48.172  11.357  1.00  0.00    -0.245 N 
ATOM     22  HN  UNL     1     -38.994 -48.817  11.587  1.00  0.00     0.196 HD
ENDBRANCH   4  16
TORSDOF 4
ENDMDL
