MODEL 1
REMARK VINA RESULT:      -6.0      0.000      0.000
REMARK  2 active torsions:
REMARK  status: ('A' for Active; 'I' for Inactive)
REMARK    1  A    between atoms: C_4  and  N_5 
REMARK       I    between atoms: N_5  and  C_6 
REMARK       I    between atoms: C_6  and  N_8 
REMARK    2  A    between atoms: N_8  and  C_9 
ROOT
HETATM    1  N   UNL     1     -41.501 -47.900  10.186  1.00  0.00    -0.293 N 
HETATM    2  C   UNL     1     -41.120 -48.807  11.125  1.00  0.00     0.322 C 
HETATM    3  O   UNL     1     -39.983 -48.742  11.594  1.00  0.00    -0.247 OA
HETATM    4  N   UNL     1     -42.014 -49.775  11.469  1.00  0.00    -0.338 N 
HETATM    5  H   UNL     1     -40.771 -47.250   9.932  1.00  0.00     0.172 HD
HETATM    6  H   UNL     1     -42.975 -49.640  11.165  1.00  0.00     0.164 HD
ENDROOT
BRANCH   1   7
HETATM    7  C   UNL     1     -42.716 -47.788   9.548  1.00  0.00     0.132 A 
HETATM    8  C   UNL     1     -43.910 -47.374  10.180  1.00  0.00     0.084 A 
HETATM    9  C   UNL     1     -44.855 -47.416   9.184  1.00  0.00     0.076 A 
HETATM   10  C   UNL     1     -46.296 -47.126   9.110  1.00  0.00     0.079 C 
HETATM   11  O   UNL     1     -44.270 -47.828   8.031  1.00  0.00    -0.241 OA
HETATM   12  N   UNL     1     -42.931 -48.064   8.258  1.00  0.00    -0.245 N 
ATOM     13  HN  UNL     1     -42.242 -48.384   7.577  1.00  0.00     0.196 HD
ENDBRANCH   1   7
BRANCH   4  14
HETATM   14  C   UNL     1     -41.704 -50.794  12.433  1.00  0.00     0.086 C 
HETATM   15  C   UNL     1     -41.293 -52.128  11.817  1.00  0.00     0.025 C 
HETATM   16  C   UNL     1     -41.483 -53.137  12.955  1.00  0.00     0.002 C 
HETATM   17  C   UNL     1     -42.319 -52.421  14.019  1.00  0.00     0.002 C 
HETATM   18  C   UNL     1     -42.883 -51.198  13.310  1.00  0.00     0.025 C 
ENDBRANCH   4  14
TORSDOF 2
ENDMDL
MODEL 2
REMARK VINA RESULT:      -5.7      4.662      6.652
REMARK  2 active torsions:
REMARK  status: ('A' for Active; 'I' for Inactive)
REMARK    1  A    between atoms: C_4  and  N_5 
REMARK       I    between atoms: N_5  and  C_6 
REMARK       I    between atoms: C_6  and  N_8 
REMARK    2  A    between atoms: N_8  and  C_9 
ROOT
HETATM    1  N   UNL     1     -43.778 -53.237  11.844  1.00  0.00    -0.293 N 
HETATM    2  C   UNL     1     -44.826 -52.738  12.553  1.00  0.00     0.322 C 
HETATM    3  O   UNL     1     -45.960 -52.820  12.083  1.00  0.00    -0.247 OA
HETATM    4  N   UNL     1     -44.553 -52.130  13.741  1.00  0.00    -0.338 N 
HETATM    5  H   UNL     1     -44.042 -53.617  10.946  1.00  0.00     0.172 HD
HETATM    6  H   UNL     1     -43.622 -52.271  14.124  1.00  0.00     0.164 HD
ENDROOT
BRANCH   1   7
HETATM    7  C   UNL     1     -42.445 -53.259  12.187  1.00  0.00     0.132 A 
HETATM    8  C   UNL     1     -41.906 -54.042  13.233  1.00  0.00     0.084 A 
HETATM    9  C   UNL     1     -40.565 -53.749  13.223  1.00  0.00     0.076 A 
HETATM   10  C   UNL     1     -39.403 -54.181  14.016  1.00  0.00     0.079 C 
HETATM   11  O   UNL     1     -40.312 -52.850  12.238  1.00  0.00    -0.241 OA
HETATM   12  N   UNL     1     -41.489 -52.540  11.590  1.00  0.00    -0.245 N 
ATOM     13  HN  UNL     1     -41.607 -51.892  10.812  1.00  0.00     0.196 HD
ENDBRANCH   1   7
BRANCH   4  14
HETATM   14  C   UNL     1     -45.584 -51.551  14.557  1.00  0.00     0.086 C 
HETATM   15  C   UNL     1     -45.062 -50.814  15.786  1.00  0.00     0.025 C 
HETATM   16  C   UNL     1     -46.283 -50.717  16.708  1.00  0.00     0.002 C 
HETATM   17  C   UNL     1     -47.315 -51.697  16.145  1.00  0.00     0.002 C 
HETATM   18  C   UNL     1     -46.532 -52.571  15.176  1.00  0.00     0.025 C 
ENDBRANCH   4  14
TORSDOF 2
ENDMDL
MODEL 3
REMARK VINA RESULT:      -5.7      4.036      6.049
REMARK  2 active torsions:
REMARK  status: ('A' for Active; 'I' for Inactive)
REMARK    1  A    between atoms: C_4  and  N_5 
REMARK       I    between atoms: N_5  and  C_6 
REMARK       I    between atoms: C_6  and  N_8 
REMARK    2  A    between atoms: N_8  and  C_9 
ROOT
HETATM    1  N   UNL     1     -43.044 -53.106  11.906  1.00  0.00    -0.293 N 
HETATM    2  C   UNL     1     -44.150 -53.257  12.683  1.00  0.00     0.322 C 
HETATM    3  O   UNL     1     -45.013 -54.068  12.347  1.00  0.00    -0.247 OA
HETATM    4  N   UNL     1     -44.261 -52.463  13.784  1.00  0.00    -0.338 N 
HETATM    5  H   UNL     1     -43.055 -53.679  11.074  1.00  0.00     0.172 HD
HETATM    6  H   UNL     1     -43.426 -51.961  14.074  1.00  0.00     0.164 HD
ENDROOT
BRANCH   1   7
HETATM    7  C   UNL     1     -41.967 -52.273  12.103  1.00  0.00     0.132 A 
HETATM    8  C   UNL     1     -40.759 -52.668  12.722  1.00  0.00     0.084 A 
HETATM    9  C   UNL     1     -39.984 -51.535  12.713  1.00  0.00     0.076 A 
HETATM   10  C   UNL     1     -38.630 -51.202  13.183  1.00  0.00     0.079 C 
HETATM   11  O   UNL     1     -40.677 -50.525  12.129  1.00  0.00    -0.241 OA
HETATM   12  N   UNL     1     -41.920 -50.985  11.749  1.00  0.00    -0.245 N 
ATOM     13  HN  UNL     1     -42.656 -50.449  11.289  1.00  0.00     0.196 HD
ENDBRANCH   1   7
BRANCH   4  14
HETATM   14  C   UNL     1     -45.399 -52.527  14.660  1.00  0.00     0.086 C 
HETATM   15  C   UNL     1     -46.459 -51.467  14.380  1.00  0.00     0.025 C 
HETATM   16  C   UNL     1     -47.286 -51.417  15.670  1.00  0.00     0.002 C 
HETATM   17  C   UNL     1     -46.462 -52.156  16.727  1.00  0.00     0.002 C 
HETATM   18  C   UNL     1     -45.068 -52.266  16.125  1.00  0.00     0.025 C 
ENDBRANCH   4  14
TORSDOF 2
ENDMDL
MODEL 4
REMARK VINA RESULT:      -5.7      2.299      2.507
REMARK  2 active torsions:
REMARK  status: ('A' for Active; 'I' for Inactive)
REMARK    1  A    between atoms: C_4  and  N_5 
REMARK       I    between atoms: N_5  and  C_6 
REMARK       I    between atoms: C_6  and  N_8 
REMARK    2  A    between atoms: N_8  and  C_9 
ROOT
HETATM    1  N   UNL     1     -42.185 -46.129   9.513  1.00  0.00    -0.293 N 
HETATM    2  C   UNL     1     -41.204 -46.524  10.368  1.00  0.00     0.322 C 
HETATM    3  O   UNL     1     -40.391 -45.693  10.772  1.00  0.00    -0.247 OA
HETATM    4  N   UNL     1     -41.151 -47.843  10.704  1.00  0.00    -0.338 N 
HETATM    5  H   UNL     1     -42.129 -45.154   9.257  1.00  0.00     0.172 HD
HETATM    6  H   UNL     1     -41.962 -48.409  10.468  1.00  0.00     0.164 HD
ENDROOT
BRANCH   1   7
HETATM    7  C   UNL     1     -43.191 -46.886   8.957  1.00  0.00     0.132 A 
HETATM    8  C   UNL     1     -44.485 -47.017   9.510  1.00  0.00     0.084 A 
HETATM    9  C   UNL     1     -45.143 -47.857   8.645  1.00  0.00     0.076 A 
HETATM   10  C   UNL     1     -46.498 -48.428   8.583  1.00  0.00     0.079 C 
HETATM   11  O   UNL     1     -44.302 -48.208   7.639  1.00  0.00    -0.241 OA
HETATM   12  N   UNL     1     -43.079 -47.604   7.834  1.00  0.00    -0.245 N 
ATOM     13  HN  UNL     1     -42.253 -47.687   7.241  1.00  0.00     0.196 HD
ENDBRANCH   1   7
BRANCH   4  14
HETATM   14  C   UNL     1     -40.142 -48.368  11.582  1.00  0.00     0.086 C 
HETATM   15  C   UNL     1     -39.862 -49.854  11.388  1.00  0.00     0.025 C 
HETATM   16  C   UNL     1     -39.159 -50.273  12.684  1.00  0.00     0.002 C 
HETATM   17  C   UNL     1     -39.396 -49.134  13.679  1.00  0.00     0.002 C 
HETATM   18  C   UNL     1     -40.512 -48.304  13.059  1.00  0.00     0.025 C 
ENDBRANCH   4  14
TORSDOF 2
ENDMDL
MODEL 5
REMARK VINA RESULT:      -5.6      2.463      3.749
REMARK  2 active torsions:
REMARK  status: ('A' for Active; 'I' for Inactive)
REMARK    1  A    between atoms: C_4  and  N_5 
REMARK       I    between atoms: N_5  and  C_6 
REMARK       I    between atoms: C_6  and  N_8 
REMARK    2  A    between atoms: N_8  and  C_9 
ROOT
HETATM    1  N   UNL     1     -40.191 -51.474  11.956  1.00  0.00    -0.293 N 
HETATM    2  C   UNL     1     -40.782 -52.593  12.455  1.00  0.00     0.322 C 
HETATM    3  O   UNL     1     -40.075 -53.537  12.807  1.00  0.00    -0.247 OA
HETATM    4  N   UNL     1     -42.143 -52.622  12.500  1.00  0.00    -0.338 N 
HETATM    5  H   UNL     1     -39.185 -51.543  11.893  1.00  0.00     0.172 HD
HETATM    6  H   UNL     1     -42.625 -51.739  12.359  1.00  0.00     0.164 HD
ENDROOT
BRANCH   1   7
HETATM    7  C   UNL     1     -40.787 -50.313  11.521  1.00  0.00     0.132 A 
HETATM    8  C   UNL     1     -41.669 -49.531  12.301  1.00  0.00     0.084 A 
HETATM    9  C   UNL     1     -42.022 -48.489  11.478  1.00  0.00     0.076 A 
HETATM   10  C   UNL     1     -42.893 -47.312  11.612  1.00  0.00     0.079 C 
HETATM   11  O   UNL     1     -41.395 -48.634  10.283  1.00  0.00    -0.241 OA
HETATM   12  N   UNL     1     -40.624 -49.777  10.307  1.00  0.00    -0.245 N 
ATOM     13  HN  UNL     1     -40.045 -50.140   9.550  1.00  0.00     0.196 HD
ENDBRANCH   1   7
BRANCH   4  14
HETATM   14  C   UNL     1     -42.866 -53.764  12.988  1.00  0.00     0.086 C 
HETATM   15  C   UNL     1     -44.337 -53.786  12.583  1.00  0.00     0.025 C 
HETATM   16  C   UNL     1     -44.979 -54.768  13.569  1.00  0.00     0.002 C 
HETATM   17  C   UNL     1     -43.956 -54.970  14.690  1.00  0.00     0.002 C 
HETATM   18  C   UNL     1     -42.953 -53.839  14.507  1.00  0.00     0.025 C 
ENDBRANCH   4  14
TORSDOF 2
ENDMDL
MODEL 6
REMARK VINA RESULT:      -5.5      3.417      5.390
REMARK  2 active torsions:
REMARK  status: ('A' for Active; 'I' for Inactive)
REMARK    1  A    between atoms: C_4  and  N_5 
REMARK       I    between atoms: N_5  and  C_6 
REMARK       I    between atoms: C_6  and  N_8 
REMARK    2  A    between atoms: N_8  and  C_9 
ROOT
HETATM    1  N   UNL     1     -41.478 -47.668  10.194  1.00  0.00    -0.293 N 
HETATM    2  C   UNL     1     -40.763 -46.666  10.772  1.00  0.00     0.322 C 
HETATM    3  O   UNL     1     -39.671 -46.925  11.280  1.00  0.00    -0.247 OA
HETATM    4  N   UNL     1     -41.318 -45.422  10.793  1.00  0.00    -0.338 N 
HETATM    5  H   UNL     1     -41.038 -48.574  10.269  1.00  0.00     0.172 HD
HETATM    6  H   UNL     1     -42.128 -45.273  10.197  1.00  0.00     0.164 HD
ENDROOT
BRANCH   1   7
HETATM    7  C   UNL     1     -42.701 -47.594   9.567  1.00  0.00     0.132 A 
HETATM    8  C   UNL     1     -43.909 -47.255  10.216  1.00  0.00     0.084 A 
HETATM    9  C   UNL     1     -44.858 -47.312   9.225  1.00  0.00     0.076 A 
HETATM   10  C   UNL     1     -46.311 -47.088   9.167  1.00  0.00     0.079 C 
HETATM   11  O   UNL     1     -44.262 -47.661   8.057  1.00  0.00    -0.241 OA
HETATM   12  N   UNL     1     -42.912 -47.841   8.269  1.00  0.00    -0.245 N 
ATOM     13  HN  UNL     1     -42.213 -48.109   7.576  1.00  0.00     0.196 HD
ENDBRANCH   1   7
BRANCH   4  14
HETATM   14  C   UNL     1     -40.655 -44.300  11.397  1.00  0.00     0.086 C 
HETATM   15  C   UNL     1     -40.761 -44.262  12.918  1.00  0.00     0.025 C 
HETATM   16  C   UNL     1     -40.431 -42.808  13.278  1.00  0.00     0.002 C 
HETATM   17  C   UNL     1     -40.517 -42.020  11.968  1.00  0.00     0.002 C 
HETATM   18  C   UNL     1     -41.241 -42.949  11.003  1.00  0.00     0.025 C 
ENDBRANCH   4  14
TORSDOF 2
ENDMDL
MODEL 7
REMARK VINA RESULT:      -5.4      2.677      3.732
REMARK  2 active torsions:
REMARK  status: ('A' for Active; 'I' for Inactive)
REMARK    1  A    between atoms: C_4  and  N_5 
REMARK       I    between atoms: N_5  and  C_6 
REMARK       I    between atoms: C_6  and  N_8 
REMARK    2  A    between atoms: N_8  and  C_9 
ROOT
HETATM    1  N   UNL     1     -41.179 -50.433  11.466  1.00  0.00    -0.293 N 
HETATM    2  C   UNL     1     -42.027 -51.138  12.262  1.00  0.00     0.322 C 
HETATM    3  O   UNL     1     -41.799 -52.329  12.475  1.00  0.00    -0.247 OA
HETATM    4  N   UNL     1     -43.119 -50.488  12.754  1.00  0.00    -0.338 N 
HETATM    5  H   UNL     1     -40.426 -50.990  11.086  1.00  0.00     0.172 HD
HETATM    6  H   UNL     1     -43.124 -49.475  12.673  1.00  0.00     0.164 HD
ENDROOT
BRANCH   1   7
HETATM    7  C   UNL     1     -41.242 -49.105  11.113  1.00  0.00     0.132 A 
HETATM    8  C   UNL     1     -40.390 -48.103  11.631  1.00  0.00     0.084 A 
HETATM    9  C   UNL     1     -40.809 -46.948  11.018  1.00  0.00     0.076 A 
HETATM   10  C   UNL     1     -40.395 -45.537  11.072  1.00  0.00     0.079 C 
HETATM   11  O   UNL     1     -41.843 -47.234  10.187  1.00  0.00    -0.241 OA
HETATM   12  N   UNL     1     -42.117 -48.583  10.247  1.00  0.00    -0.245 N 
ATOM     13  HN  UNL     1     -42.843 -49.084   9.734  1.00  0.00     0.196 HD
ENDBRANCH   1   7
BRANCH   4  14
HETATM   14  C   UNL     1     -44.088 -51.146  13.586  1.00  0.00     0.086 C 
HETATM   15  C   UNL     1     -45.486 -51.209  12.980  1.00  0.00     0.025 C 
HETATM   16  C   UNL     1     -46.400 -51.488  14.179  1.00  0.00     0.002 C 
HETATM   17  C   UNL     1     -45.556 -51.210  15.425  1.00  0.00     0.002 C 
HETATM   18  C   UNL     1     -44.348 -50.440  14.912  1.00  0.00     0.025 C 
ENDBRANCH   4  14
TORSDOF 2
ENDMDL
MODEL 8
REMARK VINA RESULT:      -5.4      5.007      7.249
REMARK  2 active torsions:
REMARK  status: ('A' for Active; 'I' for Inactive)
REMARK    1  A    between atoms: C_4  and  N_5 
REMARK       I    between atoms: N_5  and  C_6 
REMARK       I    between atoms: C_6  and  N_8 
REMARK    2  A    between atoms: N_8  and  C_9 
ROOT
HETATM    1  N   UNL     1     -44.580 -54.630  13.328  1.00  0.00    -0.293 N 
HETATM    2  C   UNL     1     -45.545 -54.381  14.254  1.00  0.00     0.322 C 
HETATM    3  O   UNL     1     -46.428 -55.218  14.438  1.00  0.00    -0.247 OA
HETATM    4  N   UNL     1     -45.502 -53.187  14.906  1.00  0.00    -0.338 N 
HETATM    5  H   UNL     1     -44.707 -55.504  12.837  1.00  0.00     0.172 HD
HETATM    6  H   UNL     1     -44.645 -52.647  14.818  1.00  0.00     0.164 HD
ENDROOT
BRANCH   1   7
HETATM    7  C   UNL     1     -43.507 -53.843  12.978  1.00  0.00     0.132 A 
HETATM    8  C   UNL     1     -42.263 -53.851  13.649  1.00  0.00     0.084 A 
HETATM    9  C   UNL     1     -41.507 -52.921  12.978  1.00  0.00     0.076 A 
HETATM   10  C   UNL     1     -40.135 -52.406  13.116  1.00  0.00     0.079 C 
HETATM   11  O   UNL     1     -42.245 -52.390  11.971  1.00  0.00    -0.241 OA
HETATM   12  N   UNL     1     -43.498 -52.963  11.971  1.00  0.00    -0.245 N 
ATOM     13  HN  UNL     1     -44.265 -52.758  11.331  1.00  0.00     0.196 HD
ENDBRANCH   1   7
BRANCH   4  14
HETATM   14  C   UNL     1     -46.485 -52.816  15.887  1.00  0.00     0.086 C 
HETATM   15  C   UNL     1     -47.232 -51.527  15.560  1.00  0.00     0.025 C 
HETATM   16  C   UNL     1     -47.833 -51.095  16.903  1.00  0.00     0.002 C 
HETATM   17  C   UNL     1     -47.117 -51.925  17.971  1.00  0.00     0.002 C 
HETATM   18  C   UNL     1     -45.903 -52.508  17.261  1.00  0.00     0.025 C 
ENDBRANCH   4  14
TORSDOF 2
ENDMDL
MODEL 9
REMARK VINA RESULT:      -5.3      3.814      5.513
REMARK  2 active torsions:
REMARK  status: ('A' for Active; 'I' for Inactive)
REMARK    1  A    between atoms: C_4  and  N_5 
REMARK       I    between atoms: N_5  and  C_6 
REMARK       I    between atoms: C_6  and  N_8 
REMARK    2  A    between atoms: N_8  and  C_9 
ROOT
HETATM    1  N   UNL     1     -41.272 -53.009  12.560  1.00  0.00    -0.293 N 
HETATM    2  C   UNL     1     -42.481 -53.165  13.162  1.00  0.00     0.322 C 
HETATM    3  O   UNL     1     -42.908 -54.302  13.362  1.00  0.00    -0.247 OA
HETATM    4  N   UNL     1     -43.180 -52.039  13.478  1.00  0.00    -0.338 N 
HETATM    5  H   UNL     1     -40.836 -53.881  12.296  1.00  0.00     0.172 HD
HETATM    6  H   UNL     1     -42.672 -51.159  13.440  1.00  0.00     0.164 HD
ENDROOT
BRANCH   1   7
HETATM    7  C   UNL     1     -40.611 -51.840  12.257  1.00  0.00     0.132 A 
HETATM    8  C   UNL     1     -39.609 -51.260  13.067  1.00  0.00     0.084 A 
HETATM    9  C   UNL     1     -39.242 -50.121  12.394  1.00  0.00     0.076 A 
HETATM   10  C   UNL     1     -38.274 -49.039  12.637  1.00  0.00     0.079 C 
HETATM   11  O   UNL     1     -39.974 -50.021  11.255  1.00  0.00    -0.241 OA
HETATM   12  N   UNL     1     -40.834 -51.095  11.169  1.00  0.00    -0.245 N 
ATOM     13  HN  UNL     1     -41.505 -51.283  10.425  1.00  0.00     0.196 HD
ENDBRANCH   1   7
BRANCH   4  14
HETATM   14  C   UNL     1     -44.476 -52.093  14.097  1.00  0.00     0.086 C 
HETATM   15  C   UNL     1     -45.626 -51.738  13.160  1.00  0.00     0.025 C 
HETATM   16  C   UNL     1     -46.784 -51.399  14.105  1.00  0.00     0.002 C 
HETATM   17  C   UNL     1     -46.159 -51.218  15.490  1.00  0.00     0.002 C 
HETATM   18  C   UNL     1     -44.665 -51.089  15.228  1.00  0.00     0.025 C 
ENDBRANCH   4  14
TORSDOF 2
ENDMDL
