MODEL 1
REMARK VINA RESULT:      -6.1      0.000      0.000
REMARK  2 active torsions:
REMARK  status: ('A' for Active; 'I' for Inactive)
REMARK       I    between atoms: N_1  and  C_2 
REMARK    1  A    between atoms: C_2  and  C_4 
REMARK    2  A    between atoms: C_8  and  N_9 
ROOT
HETATM    1  C   UNL     1     -42.932 -47.602  10.565  1.00  0.00     0.049 A 
HETATM    2  C   UNL     1     -41.857 -48.176   9.902  1.00  0.00     0.106 A 
HETATM    3  N   UNL     1     -41.112 -49.200  10.401  1.00  0.00    -0.350 N 
ATOM      4  HN  UNL     1     -40.335 -49.590   9.867  1.00  0.00     0.166 HD
HETATM    5  C   UNL     1     -41.429 -49.688  11.626  1.00  0.00     0.125 A 
HETATM    6  C   UNL     1     -42.494 -49.127  12.361  1.00  0.00     0.079 A 
HETATM    7 CL   UNL     1     -42.785 -49.488  14.034  1.00  0.00    -0.080 Cl
HETATM    8  C   UNL     1     -43.277 -48.117  11.807  1.00  0.00     0.046 A 
ENDROOT
BRANCH   5   9
HETATM    9  N   UNL     1     -40.602 -50.634  12.182  1.00  0.00    -0.357 N 
HETATM   10  C   UNL     1     -39.143 -50.432  12.081  1.00  0.00     0.151 C 
HETATM   11  C   UNL     1     -38.472 -51.109  13.313  1.00  0.00     0.188 C 
HETATM   12  O   UNL     1     -38.910 -52.473  13.554  1.00  0.00    -0.382 OA
HETATM   13  C   UNL     1     -40.343 -52.525  13.585  1.00  0.00     0.144 C 
HETATM   14  C   UNL     1     -40.916 -53.915  13.746  1.00  0.00     0.034 C 
HETATM   15  C   UNL     1     -40.891 -52.072  12.223  1.00  0.00     0.115 C 
HETATM   16  C   UNL     1     -42.325 -53.795  13.162  1.00  0.00     0.005 C 
HETATM   17  C   UNL     1     -42.298 -52.637  12.150  1.00  0.00     0.028 C 
ENDBRANCH   5   9
BRANCH   1  18
HETATM   18  C   UNL     1     -43.640 -46.454   9.964  1.00  0.00     0.250 C 
HETATM   19  N   UNL     1     -44.989 -46.575   9.766  1.00  0.00    -0.366 N 
HETATM   20  H   UNL     1     -45.473 -45.743   9.455  1.00  0.00     0.159 HD
HETATM   21  H   UNL     1     -45.551 -47.299  10.195  1.00  0.00     0.159 HD
HETATM   22  O   UNL     1     -43.051 -45.418   9.687  1.00  0.00    -0.268 OA
ENDBRANCH   1  18
TORSDOF 2
ENDMDL
MODEL 2
REMARK VINA RESULT:      -6.0      1.977      2.637
REMARK  2 active torsions:
REMARK  status: ('A' for Active; 'I' for Inactive)
REMARK       I    between atoms: N_1  and  C_2 
REMARK    1  A    between atoms: C_2  and  C_4 
REMARK    2  A    between atoms: C_8  and  N_9 
ROOT
HETATM    1  C   UNL     1     -41.683 -48.702  11.239  1.00  0.00     0.049 A 
HETATM    2  C   UNL     1     -40.834 -49.753  10.923  1.00  0.00     0.106 A 
HETATM    3  N   UNL     1     -40.876 -50.974  11.524  1.00  0.00    -0.350 N 
ATOM      4  HN  UNL     1     -40.232 -51.716  11.248  1.00  0.00     0.166 HD
HETATM    5  C   UNL     1     -41.796 -51.179  12.499  1.00  0.00     0.125 A 
HETATM    6  C   UNL     1     -42.668 -50.140  12.884  1.00  0.00     0.079 A 
HETATM    7 CL   UNL     1     -43.670 -50.217  14.300  1.00  0.00    -0.080 Cl
HETATM    8  C   UNL     1     -42.644 -48.917  12.217  1.00  0.00     0.046 A 
ENDROOT
BRANCH   5   9
HETATM    9  N   UNL     1     -41.756 -52.365  13.191  1.00  0.00    -0.357 N 
HETATM   10  C   UNL     1     -40.437 -52.908  13.571  1.00  0.00     0.151 C 
HETATM   11  C   UNL     1     -40.610 -53.736  14.878  1.00  0.00     0.188 C 
HETATM   12  O   UNL     1     -41.702 -54.693  14.836  1.00  0.00    -0.382 OA
HETATM   13  C   UNL     1     -42.906 -54.037  14.413  1.00  0.00     0.144 C 
HETATM   14  C   UNL     1     -44.096 -54.956  14.251  1.00  0.00     0.034 C 
HETATM   15  C   UNL     1     -42.700 -53.473  13.000  1.00  0.00     0.115 C 
HETATM   16  C   UNL     1     -45.001 -54.206  13.272  1.00  0.00     0.005 C 
HETATM   17  C   UNL     1     -44.096 -53.284  12.436  1.00  0.00     0.028 C 
ENDBRANCH   5   9
BRANCH   1  18
HETATM   18  C   UNL     1     -41.517 -47.396  10.570  1.00  0.00     0.250 C 
HETATM   19  N   UNL     1     -40.263 -46.848  10.554  1.00  0.00    -0.366 N 
HETATM   20  H   UNL     1     -40.147 -46.009  10.000  1.00  0.00     0.159 HD
HETATM   21  H   UNL     1     -39.426 -47.370  10.777  1.00  0.00     0.159 HD
HETATM   22  O   UNL     1     -42.456 -46.842  10.015  1.00  0.00    -0.268 OA
ENDBRANCH   1  18
TORSDOF 2
ENDMDL
MODEL 3
REMARK VINA RESULT:      -6.0      3.853      4.840
REMARK  2 active torsions:
REMARK  status: ('A' for Active; 'I' for Inactive)
REMARK       I    between atoms: N_1  and  C_2 
REMARK    1  A    between atoms: C_2  and  C_4 
REMARK    2  A    between atoms: C_8  and  N_9 
ROOT
HETATM    1  C   UNL     1     -44.488 -47.380   9.196  1.00  0.00     0.049 A 
HETATM    2  C   UNL     1     -43.465 -46.673   8.578  1.00  0.00     0.106 A 
HETATM    3  N   UNL     1     -42.337 -46.253   9.214  1.00  0.00    -0.350 N 
ATOM      4  HN  UNL     1     -41.611 -45.743   8.709  1.00  0.00     0.166 HD
HETATM    5  C   UNL     1     -42.202 -46.530  10.535  1.00  0.00     0.125 A 
HETATM    6  C   UNL     1     -43.221 -47.219  11.224  1.00  0.00     0.079 A 
HETATM    7 CL   UNL     1     -43.266 -47.363  12.954  1.00  0.00    -0.080 Cl
HETATM    8  C   UNL     1     -44.341 -47.688  10.541  1.00  0.00     0.046 A 
ENDROOT
BRANCH   5   9
HETATM    9  N   UNL     1     -41.126 -45.999  11.203  1.00  0.00    -0.357 N 
HETATM   10  C   UNL     1     -40.708 -44.622  10.871  1.00  0.00     0.151 C 
HETATM   11  C   UNL     1     -40.060 -43.992  12.140  1.00  0.00     0.188 C 
HETATM   12  O   UNL     1     -39.052 -44.826  12.770  1.00  0.00    -0.382 OA
HETATM   13  C   UNL     1     -39.582 -46.141  12.994  1.00  0.00     0.144 C 
HETATM   14  C   UNL     1     -38.590 -47.125  13.572  1.00  0.00     0.034 C 
HETATM   15  C   UNL     1     -39.956 -46.768  11.642  1.00  0.00     0.115 C 
HETATM   16  C   UNL     1     -39.151 -48.487  13.159  1.00  0.00     0.005 C 
HETATM   17  C   UNL     1     -39.995 -48.264  11.892  1.00  0.00     0.028 C 
ENDBRANCH   5   9
BRANCH   1  18
HETATM   18  C   UNL     1     -45.699 -47.739   8.433  1.00  0.00     0.250 C 
HETATM   19  N   UNL     1     -45.541 -48.545   7.337  1.00  0.00    -0.366 N 
HETATM   20  H   UNL     1     -46.391 -48.867   6.892  1.00  0.00     0.159 HD
HETATM   21  H   UNL     1     -44.698 -49.070   7.151  1.00  0.00     0.159 HD
HETATM   22  O   UNL     1     -46.809 -47.363   8.787  1.00  0.00    -0.268 OA
ENDBRANCH   1  18
TORSDOF 2
ENDMDL
MODEL 4
REMARK VINA RESULT:      -6.0      3.611      5.760
REMARK  2 active torsions:
REMARK  status: ('A' for Active; 'I' for Inactive)
REMARK       I    between atoms: N_1  and  C_2 
REMARK    1  A    between atoms: C_2  and  C_4 
REMARK    2  A    between atoms: C_8  and  N_9 
ROOT
HETATM    1  C   UNL     1     -40.355 -51.422  12.608  1.00  0.00     0.049 A 
HETATM    2  C   UNL     1     -41.566 -50.991  12.084  1.00  0.00     0.106 A 
HETATM    3  N   UNL     1     -42.779 -51.472  12.472  1.00  0.00    -0.350 N 
ATOM      4  HN  UNL     1     -43.640 -51.114  12.060  1.00  0.00     0.166 HD
HETATM    5  C   UNL     1     -42.812 -52.440  13.422  1.00  0.00     0.125 A 
HETATM    6  C   UNL     1     -41.613 -52.940  13.971  1.00  0.00     0.079 A 
HETATM    7 CL   UNL     1     -41.545 -54.360  14.967  1.00  0.00    -0.080 Cl
HETATM    8  C   UNL     1     -40.387 -52.393  13.599  1.00  0.00     0.046 A 
ENDROOT
BRANCH   5   9
HETATM    9  N   UNL     1     -44.024 -53.013  13.722  1.00  0.00    -0.357 N 
HETATM   10  C   UNL     1     -44.486 -54.145  12.894  1.00  0.00     0.151 C 
HETATM   11  C   UNL     1     -45.386 -55.059  13.778  1.00  0.00     0.188 C 
HETATM   12  O   UNL     1     -46.418 -54.346  14.512  1.00  0.00    -0.382 OA
HETATM   13  C   UNL     1     -45.833 -53.253  15.233  1.00  0.00     0.144 C 
HETATM   14  C   UNL     1     -46.828 -52.385  15.970  1.00  0.00     0.034 C 
HETATM   15  C   UNL     1     -45.188 -52.280  14.234  1.00  0.00     0.115 C 
HETATM   16  C   UNL     1     -46.101 -51.048  16.119  1.00  0.00     0.005 C 
HETATM   17  C   UNL     1     -45.075 -50.961  14.976  1.00  0.00     0.028 C 
ENDBRANCH   5   9
BRANCH   1  18
HETATM   18  C   UNL     1     -39.089 -50.879  12.077  1.00  0.00     0.250 C 
HETATM   19  N   UNL     1     -39.170 -49.936  11.088  1.00  0.00    -0.366 N 
HETATM   20  H   UNL     1     -38.300 -49.498  10.813  1.00  0.00     0.159 HD
HETATM   21  H   UNL     1     -40.024 -49.445  10.857  1.00  0.00     0.159 HD
HETATM   22  O   UNL     1     -38.007 -51.229  12.530  1.00  0.00    -0.268 OA
ENDBRANCH   1  18
TORSDOF 2
ENDMDL
MODEL 5
REMARK VINA RESULT:      -5.9      1.080      2.599
REMARK  2 active torsions:
REMARK  status: ('A' for Active; 'I' for Inactive)
REMARK       I    between atoms: N_1  and  C_2 
REMARK    1  A    between atoms: C_2  and  C_4 
REMARK    2  A    between atoms: C_8  and  N_9 
ROOT
HETATM    1  C   UNL     1     -43.245 -47.003  10.163  1.00  0.00     0.049 A 
HETATM    2  C   UNL     1     -42.316 -47.791   9.498  1.00  0.00     0.106 A 
HETATM    3  N   UNL     1     -41.662 -48.841  10.067  1.00  0.00    -0.350 N 
ATOM      4  HN  UNL     1     -40.993 -49.394   9.529  1.00  0.00     0.166 HD
HETATM    5  C   UNL     1     -41.921 -49.134  11.366  1.00  0.00     0.125 A 
HETATM    6  C   UNL     1     -42.834 -48.351  12.102  1.00  0.00     0.079 A 
HETATM    7 CL   UNL     1     -43.011 -48.469  13.825  1.00  0.00    -0.080 Cl
HETATM    8  C   UNL     1     -43.533 -47.316  11.484  1.00  0.00     0.046 A 
ENDROOT
BRANCH   5   9
HETATM    9  N   UNL     1     -41.171 -50.111  11.974  1.00  0.00    -0.357 N 
HETATM   10  C   UNL     1     -41.840 -51.370  12.355  1.00  0.00     0.151 C 
HETATM   11  C   UNL     1     -40.786 -52.516  12.305  1.00  0.00     0.188 C 
HETATM   12  O   UNL     1     -39.550 -52.217  13.006  1.00  0.00    -0.382 OA
HETATM   13  C   UNL     1     -39.037 -50.951  12.567  1.00  0.00     0.144 C 
HETATM   14  C   UNL     1     -37.791 -50.494  13.293  1.00  0.00     0.034 C 
HETATM   15  C   UNL     1     -40.060 -49.853  12.898  1.00  0.00     0.115 C 
HETATM   16  C   UNL     1     -37.804 -48.976  13.113  1.00  0.00     0.005 C 
HETATM   17  C   UNL     1     -39.270 -48.558  12.902  1.00  0.00     0.028 C 
ENDBRANCH   5   9
BRANCH   1  18
HETATM   18  C   UNL     1     -43.856 -45.849   9.475  1.00  0.00     0.250 C 
HETATM   19  N   UNL     1     -45.075 -46.039   8.882  1.00  0.00    -0.366 N 
HETATM   20  H   UNL     1     -45.527 -45.213   8.510  1.00  0.00     0.159 HD
HETATM   21  H   UNL     1     -45.664 -46.840   9.067  1.00  0.00     0.159 HD
HETATM   22  O   UNL     1     -43.314 -44.752   9.468  1.00  0.00    -0.268 OA
ENDBRANCH   1  18
TORSDOF 2
ENDMDL
MODEL 6
REMARK VINA RESULT:      -5.7      3.076      5.637
REMARK  2 active torsions:
REMARK  status: ('A' for Active; 'I' for Inactive)
REMARK       I    between atoms: N_1  and  C_2 
REMARK    1  A    between atoms: C_2  and  C_4 
REMARK    2  A    between atoms: C_8  and  N_9 
ROOT
HETATM    1  C   UNL     1     -44.534 -53.655  13.703  1.00  0.00     0.049 A 
HETATM    2  C   UNL     1     -44.070 -53.521  12.402  1.00  0.00     0.106 A 
HETATM    3  N   UNL     1     -43.054 -52.691  12.037  1.00  0.00    -0.350 N 
ATOM      4  HN  UNL     1     -42.746 -52.637  11.065  1.00  0.00     0.166 HD
HETATM    5  C   UNL     1     -42.462 -51.938  12.997  1.00  0.00     0.125 A 
HETATM    6  C   UNL     1     -42.910 -52.009  14.333  1.00  0.00     0.079 A 
HETATM    7 CL   UNL     1     -42.413 -50.886  15.560  1.00  0.00    -0.080 Cl
HETATM    8  C   UNL     1     -43.913 -52.906  14.693  1.00  0.00     0.046 A 
ENDROOT
BRANCH   5   9
HETATM    9  N   UNL     1     -41.525 -51.011  12.610  1.00  0.00    -0.357 N 
HETATM   10  C   UNL     1     -40.127 -51.208  13.042  1.00  0.00     0.151 C 
HETATM   11  C   UNL     1     -39.193 -50.573  11.970  1.00  0.00     0.188 C 
HETATM   12  O   UNL     1     -39.556 -49.217  11.594  1.00  0.00    -0.382 OA
HETATM   13  C   UNL     1     -40.945 -49.168  11.240  1.00  0.00     0.144 C 
HETATM   14  C   UNL     1     -41.458 -47.784  10.909  1.00  0.00     0.034 C 
HETATM   15  C   UNL     1     -41.788 -49.575  12.458  1.00  0.00     0.115 C 
HETATM   16  C   UNL     1     -42.962 -47.886  11.165  1.00  0.00     0.005 C 
HETATM   17  C   UNL     1     -43.171 -49.010  12.195  1.00  0.00     0.028 C 
ENDBRANCH   5   9
BRANCH   1  18
HETATM   18  C   UNL     1     -45.682 -54.539  13.987  1.00  0.00     0.250 C 
HETATM   19  N   UNL     1     -46.875 -53.946  14.304  1.00  0.00    -0.366 N 
HETATM   20  H   UNL     1     -47.673 -54.562  14.388  1.00  0.00     0.159 HD
HETATM   21  H   UNL     1     -47.066 -52.965  14.148  1.00  0.00     0.159 HD
HETATM   22  O   UNL     1     -45.584 -55.755  13.903  1.00  0.00    -0.268 OA
ENDBRANCH   1  18
TORSDOF 2
ENDMDL
MODEL 7
REMARK VINA RESULT:      -5.6      2.099      6.406
REMARK  2 active torsions:
REMARK  status: ('A' for Active; 'I' for Inactive)
REMARK       I    between atoms: N_1  and  C_2 
REMARK    1  A    between atoms: C_2  and  C_4 
REMARK    2  A    between atoms: C_8  and  N_9 
ROOT
HETATM    1  C   UNL     1     -41.037 -51.329  12.506  1.00  0.00     0.049 A 
HETATM    2  C   UNL     1     -40.604 -50.979  11.235  1.00  0.00     0.106 A 
HETATM    3  N   UNL     1     -40.807 -49.756  10.670  1.00  0.00    -0.350 N 
ATOM      4  HN  UNL     1     -40.460 -49.548   9.734  1.00  0.00     0.166 HD
HETATM    5  C   UNL     1     -41.481 -48.822  11.386  1.00  0.00     0.125 A 
HETATM    6  C   UNL     1     -41.970 -49.128  12.673  1.00  0.00     0.079 A 
HETATM    7 CL   UNL     1     -43.079 -48.106  13.534  1.00  0.00    -0.080 Cl
HETATM    8  C   UNL     1     -41.703 -50.366  13.251  1.00  0.00     0.046 A 
ENDROOT
BRANCH   5   9
HETATM    9  N   UNL     1     -41.794 -47.634  10.771  1.00  0.00    -0.357 N 
HETATM   10  C   UNL     1     -42.680 -47.671   9.591  1.00  0.00     0.151 C 
HETATM   11  C   UNL     1     -43.465 -46.327   9.529  1.00  0.00     0.188 C 
HETATM   12  O   UNL     1     -42.631 -45.145   9.659  1.00  0.00    -0.382 OA
HETATM   13  C   UNL     1     -41.797 -45.266  10.820  1.00  0.00     0.144 C 
HETATM   14  C   UNL     1     -40.821 -44.126  11.011  1.00  0.00     0.034 C 
HETATM   15  C   UNL     1     -40.883 -46.489  10.656  1.00  0.00     0.115 C 
HETATM   16  C   UNL     1     -39.714 -44.738  11.870  1.00  0.00     0.005 C 
HETATM   17  C   UNL     1     -39.725 -46.254  11.609  1.00  0.00     0.028 C 
ENDBRANCH   5   9
BRANCH   1  18
HETATM   18  C   UNL     1     -40.819 -52.702  13.004  1.00  0.00     0.250 C 
HETATM   19  N   UNL     1     -40.828 -53.717  12.086  1.00  0.00    -0.366 N 
HETATM   20  H   UNL     1     -40.571 -54.634  12.429  1.00  0.00     0.159 HD
HETATM   21  H   UNL     1     -40.761 -53.565  11.089  1.00  0.00     0.159 HD
HETATM   22  O   UNL     1     -40.600 -52.921  14.188  1.00  0.00    -0.268 OA
ENDBRANCH   1  18
TORSDOF 2
ENDMDL
MODEL 8
REMARK VINA RESULT:      -5.5      2.909      4.285
REMARK  2 active torsions:
REMARK  status: ('A' for Active; 'I' for Inactive)
REMARK       I    between atoms: N_1  and  C_2 
REMARK    1  A    between atoms: C_2  and  C_4 
REMARK    2  A    between atoms: C_8  and  N_9 
ROOT
HETATM    1  C   UNL     1     -41.829 -49.609  11.911  1.00  0.00     0.049 A 
HETATM    2  C   UNL     1     -43.029 -49.590  12.607  1.00  0.00     0.106 A 
HETATM    3  N   UNL     1     -43.542 -50.663  13.271  1.00  0.00    -0.350 N 
ATOM      4  HN  UNL     1     -44.427 -50.592  13.774  1.00  0.00     0.166 HD
HETATM    5  C   UNL     1     -42.847 -51.827  13.245  1.00  0.00     0.125 A 
HETATM    6  C   UNL     1     -41.634 -51.916  12.530  1.00  0.00     0.079 A 
HETATM    7 CL   UNL     1     -40.833 -53.421  12.205  1.00  0.00    -0.080 Cl
HETATM    8  C   UNL     1     -41.101 -50.791  11.905  1.00  0.00     0.046 A 
ENDROOT
BRANCH   5   9
HETATM    9  N   UNL     1     -43.424 -52.940  13.806  1.00  0.00    -0.357 N 
HETATM   10  C   UNL     1     -44.862 -53.175  13.573  1.00  0.00     0.151 C 
HETATM   11  C   UNL     1     -45.118 -54.710  13.613  1.00  0.00     0.188 C 
HETATM   12  O   UNL     1     -44.546 -55.378  14.770  1.00  0.00    -0.382 OA
HETATM   13  C   UNL     1     -43.160 -55.027  14.896  1.00  0.00     0.144 C 
HETATM   14  C   UNL     1     -42.478 -55.600  16.118  1.00  0.00     0.034 C 
HETATM   15  C   UNL     1     -43.044 -53.510  15.105  1.00  0.00     0.115 C 
HETATM   16  C   UNL     1     -41.299 -54.654  16.350  1.00  0.00     0.005 C 
HETATM   17  C   UNL     1     -41.681 -53.296  15.737  1.00  0.00     0.028 C 
ENDBRANCH   5   9
BRANCH   1  18
HETATM   18  C   UNL     1     -41.388 -48.408  11.173  1.00  0.00     0.250 C 
HETATM   19  N   UNL     1     -41.719 -48.322   9.848  1.00  0.00    -0.366 N 
HETATM   20  H   UNL     1     -41.504 -47.447   9.388  1.00  0.00     0.159 HD
HETATM   21  H   UNL     1     -42.414 -48.912   9.409  1.00  0.00     0.159 HD
HETATM   22  O   UNL     1     -40.783 -47.504  11.733  1.00  0.00    -0.268 OA
ENDBRANCH   1  18
TORSDOF 2
ENDMDL
MODEL 9
REMARK VINA RESULT:      -5.4      2.490      3.077
REMARK  2 active torsions:
REMARK  status: ('A' for Active; 'I' for Inactive)
REMARK       I    between atoms: N_1  and  C_2 
REMARK    1  A    between atoms: C_2  and  C_4 
REMARK    2  A    between atoms: C_8  and  N_9 
ROOT
HETATM    1  C   UNL     1     -40.672 -47.520  11.755  1.00  0.00     0.049 A 
HETATM    2  C   UNL     1     -41.294 -48.355  10.838  1.00  0.00     0.106 A 
HETATM    3  N   UNL     1     -41.775 -49.593  11.139  1.00  0.00    -0.350 N 
ATOM      4  HN  UNL     1     -42.232 -50.164  10.428  1.00  0.00     0.166 HD
HETATM    5  C   UNL     1     -41.630 -50.047  12.409  1.00  0.00     0.125 A 
HETATM    6  C   UNL     1     -40.981 -49.256  13.378  1.00  0.00     0.079 A 
HETATM    7 CL   UNL     1     -40.499 -49.863  14.932  1.00  0.00    -0.080 Cl
HETATM    8  C   UNL     1     -40.547 -47.970  13.062  1.00  0.00     0.046 A 
ENDROOT
BRANCH   5   9
HETATM    9  N   UNL     1     -42.001 -51.342  12.681  1.00  0.00    -0.357 N 
HETATM   10  C   UNL     1     -41.291 -52.433  11.985  1.00  0.00     0.151 C 
HETATM   11  C   UNL     1     -41.302 -53.688  12.907  1.00  0.00     0.188 C 
HETATM   12  O   UNL     1     -42.612 -54.022  13.441  1.00  0.00    -0.382 OA
HETATM   13  C   UNL     1     -43.198 -52.862  14.048  1.00  0.00     0.144 C 
HETATM   14  C   UNL     1     -44.603 -53.069  14.567  1.00  0.00     0.034 C 
HETATM   15  C   UNL     1     -43.372 -51.771  12.982  1.00  0.00     0.115 C 
HETATM   16  C   UNL     1     -45.193 -51.658  14.587  1.00  0.00     0.005 C 
HETATM   17  C   UNL     1     -44.430 -50.834  13.536  1.00  0.00     0.028 C 
ENDBRANCH   5   9
BRANCH   1  18
HETATM   18  C   UNL     1     -40.131 -46.218  11.315  1.00  0.00     0.250 C 
HETATM   19  N   UNL     1     -40.313 -45.868  10.004  1.00  0.00    -0.366 N 
HETATM   20  H   UNL     1     -40.033 -44.930   9.747  1.00  0.00     0.159 HD
HETATM   21  H   UNL     1     -40.966 -46.337   9.389  1.00  0.00     0.159 HD
HETATM   22  O   UNL     1     -39.576 -45.461  12.100  1.00  0.00    -0.268 OA
ENDBRANCH   1  18
TORSDOF 2
ENDMDL
