MODEL 1
REMARK VINA RESULT:      -5.7      0.000      0.000
REMARK  4 active torsions:
REMARK  status: ('A' for Active; 'I' for Inactive)
REMARK    1  A    between atoms: O_1  and  C_2 
REMARK    2  A    between atoms: C_2  and  C_4 
REMARK    3  A    between atoms: N_6  and  C_10 
REMARK    4  A    between atoms: C_16  and  C_17 
ROOT
HETATM    1  C   UNL     1     -43.140 -52.606  13.582  1.00  0.00     0.118 A 
HETATM    2  N   UNL     1     -42.778 -51.848  12.516  1.00  0.00    -0.352 N 
ATOM      3  HN  UNL     1     -43.369 -51.072  12.217  1.00  0.00     0.166 HD
HETATM    4  C   UNL     1     -41.633 -52.122  11.851  1.00  0.00     0.089 A 
HETATM    5  C   UNL     1     -40.764 -53.118  12.224  1.00  0.00     0.018 A 
HETATM    6  C   UNL     1     -41.109 -53.880  13.328  1.00  0.00     0.021 A 
HETATM    7  C   UNL     1     -42.321 -53.650  14.015  1.00  0.00     0.091 A 
ENDROOT
BRANCH   1   8
HETATM    8  N   UNL     1     -44.397 -52.358  14.106  1.00  0.00    -0.362 N 
HETATM    9  C   UNL     1     -45.540 -52.893  13.341  1.00  0.00     0.167 C 
HETATM   10  C   UNL     1     -46.721 -53.093  14.302  1.00  0.00     0.236 C 
HETATM   11  O   UNL     1     -47.016 -51.924  15.111  1.00  0.00    -0.372 OA
HETATM   12  C   UNL     1     -45.855 -51.273  15.677  1.00  0.00     0.189 C 
HETATM   13  C   UNL     1     -44.724 -51.039  14.657  1.00  0.00     0.151 C 
BRANCH  10  14
HETATM   14  C   UNL     1     -46.533 -54.384  15.110  1.00  0.00     0.171 C 
HETATM   15  O   UNL     1     -46.134 -54.445  16.263  1.00  0.00    -0.648 OA
BRANCH  14  16
HETATM   16  O   UNL     1     -46.779 -55.495  14.366  1.00  0.00    -0.774 OA
HETATM   17  H   UNL     1     -47.089 -55.223  13.478  1.00  0.00     0.167 HD
ENDBRANCH  14  16
ENDBRANCH  10  14
ENDBRANCH   1   8
BRANCH   7  18
HETATM   18  C   UNL     1     -42.662 -54.626  15.104  1.00  0.00     0.421 C 
HETATM   19  F   UNL     1     -43.156 -54.125  16.269  1.00  0.00    -0.166 F 
HETATM   20  F   UNL     1     -43.587 -55.547  14.699  1.00  0.00    -0.166 F 
HETATM   21  F   UNL     1     -41.569 -55.362  15.470  1.00  0.00    -0.166 F 
ENDBRANCH   7  18
TORSDOF 4
ENDMDL
MODEL 2
REMARK VINA RESULT:      -5.5      3.267      5.119
REMARK  4 active torsions:
REMARK  status: ('A' for Active; 'I' for Inactive)
REMARK    1  A    between atoms: O_1  and  C_2 
REMARK    2  A    between atoms: C_2  and  C_4 
REMARK    3  A    between atoms: N_6  and  C_10 
REMARK    4  A    between atoms: C_16  and  C_17 
ROOT
HETATM    1  C   UNL     1     -44.384 -51.187  14.396  1.00  0.00     0.118 A 
HETATM    2  N   UNL     1     -44.509 -50.544  15.584  1.00  0.00    -0.352 N 
ATOM      3  HN  UNL     1     -43.750 -49.956  15.929  1.00  0.00     0.166 HD
HETATM    4  C   UNL     1     -45.640 -50.683  16.311  1.00  0.00     0.089 A 
HETATM    5  C   UNL     1     -46.721 -51.418  15.890  1.00  0.00     0.018 A 
HETATM    6  C   UNL     1     -46.616 -52.056  14.666  1.00  0.00     0.021 A 
HETATM    7  C   UNL     1     -45.430 -51.969  13.904  1.00  0.00     0.091 A 
ENDROOT
BRANCH   1   8
HETATM    8  N   UNL     1     -43.139 -51.116  13.793  1.00  0.00    -0.362 N 
HETATM    9  C   UNL     1     -42.015 -51.704  14.548  1.00  0.00     0.167 C 
HETATM   10  C   UNL     1     -40.916 -52.106  13.554  1.00  0.00     0.236 C 
HETATM   11  O   UNL     1     -40.550 -51.044  12.633  1.00  0.00    -0.372 OA
HETATM   12  C   UNL     1     -41.670 -50.323  12.067  1.00  0.00     0.189 C 
HETATM   13  C   UNL     1     -42.713 -49.889  13.114  1.00  0.00     0.151 C 
BRANCH  10  14
HETATM   14  C   UNL     1     -41.277 -53.431  12.872  1.00  0.00     0.171 C 
HETATM   15  O   UNL     1     -41.987 -54.302  13.351  1.00  0.00    -0.648 OA
BRANCH  14  16
HETATM   16  O   UNL     1     -40.641 -53.586  11.681  1.00  0.00    -0.774 OA
HETATM   17  H   UNL     1     -41.280 -53.916  11.017  1.00  0.00     0.167 HD
ENDBRANCH  14  16
ENDBRANCH  10  14
ENDBRANCH   1   8
BRANCH   7  18
HETATM   18  C   UNL     1     -45.373 -52.816  12.666  1.00  0.00     0.421 C 
HETATM   19  F   UNL     1     -44.242 -52.755  11.911  1.00  0.00    -0.166 F 
HETATM   20  F   UNL     1     -45.537 -54.144  12.942  1.00  0.00    -0.166 F 
HETATM   21  F   UNL     1     -46.390 -52.506  11.806  1.00  0.00    -0.166 F 
ENDBRANCH   7  18
TORSDOF 4
ENDMDL
MODEL 3
REMARK VINA RESULT:      -5.3      3.456      5.341
REMARK  4 active torsions:
REMARK  status: ('A' for Active; 'I' for Inactive)
REMARK    1  A    between atoms: O_1  and  C_2 
REMARK    2  A    between atoms: C_2  and  C_4 
REMARK    3  A    between atoms: N_6  and  C_10 
REMARK    4  A    between atoms: C_16  and  C_17 
ROOT
HETATM    1  C   UNL     1     -44.197 -52.877  14.775  1.00  0.00     0.118 A 
HETATM    2  N   UNL     1     -45.144 -53.809  15.048  1.00  0.00    -0.352 N 
ATOM      3  HN  UNL     1     -44.874 -54.780  15.206  1.00  0.00     0.166 HD
HETATM    4  C   UNL     1     -46.446 -53.450  15.111  1.00  0.00     0.089 A 
HETATM    5  C   UNL     1     -46.879 -52.155  14.957  1.00  0.00     0.018 A 
HETATM    6  C   UNL     1     -45.918 -51.191  14.706  1.00  0.00     0.021 A 
HETATM    7  C   UNL     1     -44.555 -51.541  14.587  1.00  0.00     0.091 A 
ENDROOT
BRANCH   1   8
HETATM    8  N   UNL     1     -42.912 -53.354  14.576  1.00  0.00    -0.362 N 
HETATM    9  C   UNL     1     -42.707 -54.191  13.377  1.00  0.00     0.167 C 
HETATM   10  C   UNL     1     -41.229 -54.106  12.970  1.00  0.00     0.236 C 
HETATM   11  O   UNL     1     -40.309 -54.362  14.064  1.00  0.00    -0.372 OA
HETATM   12  C   UNL     1     -40.652 -53.707  15.308  1.00  0.00     0.189 C 
HETATM   13  C   UNL     1     -42.132 -53.875  15.702  1.00  0.00     0.151 C 
BRANCH  10  14
HETATM   14  C   UNL     1     -40.960 -52.794  12.220  1.00  0.00     0.171 C 
HETATM   15  O   UNL     1     -39.957 -52.107  12.334  1.00  0.00    -0.648 OA
BRANCH  14  16
HETATM   16  O   UNL     1     -42.019 -52.414  11.456  1.00  0.00    -0.774 OA
HETATM   17  H   UNL     1     -42.671 -51.951  12.021  1.00  0.00     0.167 HD
ENDBRANCH  14  16
ENDBRANCH  10  14
ENDBRANCH   1   8
BRANCH   7  18
HETATM   18  C   UNL     1     -43.621 -50.442  14.171  1.00  0.00     0.421 C 
HETATM   19  F   UNL     1     -42.287 -50.649  14.343  1.00  0.00    -0.166 F 
HETATM   20  F   UNL     1     -43.758 -50.122  12.850  1.00  0.00    -0.166 F 
HETATM   21  F   UNL     1     -43.889 -49.282  14.845  1.00  0.00    -0.166 F 
ENDBRANCH   7  18
TORSDOF 4
ENDMDL
MODEL 4
REMARK VINA RESULT:      -5.2      4.447      5.482
REMARK  4 active torsions:
REMARK  status: ('A' for Active; 'I' for Inactive)
REMARK    1  A    between atoms: O_1  and  C_2 
REMARK    2  A    between atoms: C_2  and  C_4 
REMARK    3  A    between atoms: N_6  and  C_10 
REMARK    4  A    between atoms: C_16  and  C_17 
ROOT
HETATM    1  C   UNL     1     -41.691 -49.671  12.488  1.00  0.00     0.118 A 
HETATM    2  N   UNL     1     -42.825 -49.180  11.925  1.00  0.00    -0.352 N 
ATOM      3  HN  UNL     1     -43.730 -49.583  12.166  1.00  0.00     0.166 HD
HETATM    4  C   UNL     1     -42.751 -48.156  11.045  1.00  0.00     0.089 A 
HETATM    5  C   UNL     1     -41.575 -47.532  10.710  1.00  0.00     0.018 A 
HETATM    6  C   UNL     1     -40.415 -48.006  11.300  1.00  0.00     0.021 A 
HETATM    7  C   UNL     1     -40.451 -49.105  12.187  1.00  0.00     0.091 A 
ENDROOT
BRANCH   1   8
HETATM    8  N   UNL     1     -41.838 -50.815  13.254  1.00  0.00    -0.362 N 
HETATM    9  C   UNL     1     -42.554 -51.938  12.618  1.00  0.00     0.167 C 
HETATM   10  C   UNL     1     -42.101 -53.246  13.283  1.00  0.00     0.236 C 
HETATM   11  O   UNL     1     -42.171 -53.215  14.733  1.00  0.00    -0.372 OA
HETATM   12  C   UNL     1     -41.666 -52.000  15.336  1.00  0.00     0.189 C 
HETATM   13  C   UNL     1     -42.199 -50.717  14.672  1.00  0.00     0.151 C 
BRANCH  10  14
HETATM   14  C   UNL     1     -40.736 -53.676  12.730  1.00  0.00     0.171 C 
HETATM   15  O   UNL     1     -39.814 -54.125  13.393  1.00  0.00    -0.648 OA
BRANCH  14  16
HETATM   16  O   UNL     1     -40.617 -53.419  11.400  1.00  0.00    -0.774 OA
HETATM   17  H   UNL     1     -40.259 -54.213  10.952  1.00  0.00     0.167 HD
ENDBRANCH  14  16
ENDBRANCH  10  14
ENDBRANCH   1   8
BRANCH   7  18
HETATM   18  C   UNL     1     -39.123 -49.625  12.653  1.00  0.00     0.421 C 
HETATM   19  F   UNL     1     -38.915 -49.711  13.995  1.00  0.00    -0.166 F 
HETATM   20  F   UNL     1     -38.867 -50.881  12.179  1.00  0.00    -0.166 F 
HETATM   21  F   UNL     1     -38.096 -48.854  12.183  1.00  0.00    -0.166 F 
ENDBRANCH   7  18
TORSDOF 4
ENDMDL
MODEL 5
REMARK VINA RESULT:      -5.2      6.638      7.907
REMARK  4 active torsions:
REMARK  status: ('A' for Active; 'I' for Inactive)
REMARK    1  A    between atoms: O_1  and  C_2 
REMARK    2  A    between atoms: C_2  and  C_4 
REMARK    3  A    between atoms: N_6  and  C_10 
REMARK    4  A    between atoms: C_16  and  C_17 
ROOT
HETATM    1  C   UNL     1     -42.688 -47.568  11.193  1.00  0.00     0.118 A 
HETATM    2  N   UNL     1     -43.910 -48.023  10.814  1.00  0.00    -0.352 N 
ATOM      3  HN  UNL     1     -44.338 -48.807  11.305  1.00  0.00     0.166 HD
HETATM    4  C   UNL     1     -44.558 -47.434   9.783  1.00  0.00     0.089 A 
HETATM    5  C   UNL     1     -44.066 -46.345   9.106  1.00  0.00     0.018 A 
HETATM    6  C   UNL     1     -42.834 -45.855   9.503  1.00  0.00     0.021 A 
HETATM    7  C   UNL     1     -42.109 -46.476  10.544  1.00  0.00     0.091 A 
ENDROOT
BRANCH   1   8
HETATM    8  N   UNL     1     -42.029 -48.322  12.149  1.00  0.00    -0.362 N 
HETATM    9  C   UNL     1     -42.181 -49.787  12.043  1.00  0.00     0.167 C 
HETATM   10  C   UNL     1     -40.968 -50.453  12.709  1.00  0.00     0.236 C 
HETATM   11  O   UNL     1     -40.695 -49.958  14.047  1.00  0.00    -0.372 OA
HETATM   12  C   UNL     1     -40.771 -48.519  14.186  1.00  0.00     0.189 C 
HETATM   13  C   UNL     1     -42.036 -47.908  13.555  1.00  0.00     0.151 C 
BRANCH  10  14
HETATM   14  C   UNL     1     -39.758 -50.413  11.767  1.00  0.00     0.171 C 
HETATM   15  O   UNL     1     -38.590 -50.501  12.113  1.00  0.00    -0.648 OA
BRANCH  14  16
HETATM   16  O   UNL     1     -40.119 -50.176  10.478  1.00  0.00    -0.774 OA
HETATM   17  H   UNL     1     -40.217 -51.031  10.011  1.00  0.00     0.167 HD
ENDBRANCH  14  16
ENDBRANCH  10  14
ENDBRANCH   1   8
BRANCH   7  18
HETATM   18  C   UNL     1     -40.724 -45.953  10.793  1.00  0.00     0.421 C 
HETATM   19  F   UNL     1     -39.707 -46.856  10.835  1.00  0.00    -0.166 F 
HETATM   20  F   UNL     1     -40.342 -45.039   9.853  1.00  0.00    -0.166 F 
HETATM   21  F   UNL     1     -40.654 -45.285  11.984  1.00  0.00    -0.166 F 
ENDBRANCH   7  18
TORSDOF 4
ENDMDL
MODEL 6
REMARK VINA RESULT:      -5.1      5.246      6.521
REMARK  4 active torsions:
REMARK  status: ('A' for Active; 'I' for Inactive)
REMARK    1  A    between atoms: O_1  and  C_2 
REMARK    2  A    between atoms: C_2  and  C_4 
REMARK    3  A    between atoms: N_6  and  C_10 
REMARK    4  A    between atoms: C_16  and  C_17 
ROOT
HETATM    1  C   UNL     1     -38.777 -50.518  14.788  1.00  0.00     0.118 A 
HETATM    2  N   UNL     1     -39.090 -49.914  15.962  1.00  0.00    -0.352 N 
ATOM      3  HN  UNL     1     -39.623 -50.420  16.670  1.00  0.00     0.166 HD
HETATM    4  C   UNL     1     -38.695 -48.642  16.193  1.00  0.00     0.089 A 
HETATM    5  C   UNL     1     -37.935 -47.916  15.308  1.00  0.00     0.018 A 
HETATM    6  C   UNL     1     -37.586 -48.531  14.119  1.00  0.00     0.021 A 
HETATM    7  C   UNL     1     -38.022 -49.843  13.827  1.00  0.00     0.091 A 
ENDROOT
BRANCH   1   8
HETATM    8  N   UNL     1     -39.350 -51.759  14.569  1.00  0.00    -0.362 N 
HETATM    9  C   UNL     1     -40.825 -51.810  14.596  1.00  0.00     0.167 C 
HETATM   10  C   UNL     1     -41.288 -53.010  13.758  1.00  0.00     0.236 C 
HETATM   11  O   UNL     1     -40.623 -54.254  14.108  1.00  0.00    -0.372 OA
HETATM   12  C   UNL     1     -39.194 -54.141  14.299  1.00  0.00     0.189 C 
HETATM   13  C   UNL     1     -38.786 -52.958  15.198  1.00  0.00     0.151 C 
BRANCH  10  14
HETATM   14  C   UNL     1     -41.231 -52.667  12.264  1.00  0.00     0.171 C 
HETATM   15  O   UNL     1     -41.734 -51.683  11.745  1.00  0.00    -0.648 OA
BRANCH  14  16
HETATM   16  O   UNL     1     -40.620 -53.641  11.537  1.00  0.00    -0.774 OA
HETATM   17  H   UNL     1     -39.737 -53.324  11.257  1.00  0.00     0.167 HD
ENDBRANCH  14  16
ENDBRANCH  10  14
ENDBRANCH   1   8
BRANCH   7  18
HETATM   18  C   UNL     1     -37.708 -50.356  12.452  1.00  0.00     0.421 C 
HETATM   19  F   UNL     1     -38.750 -50.767  11.678  1.00  0.00    -0.166 F 
HETATM   20  F   UNL     1     -37.054 -49.427  11.692  1.00  0.00    -0.166 F 
HETATM   21  F   UNL     1     -36.861 -51.429  12.504  1.00  0.00    -0.166 F 
ENDBRANCH   7  18
TORSDOF 4
ENDMDL
MODEL 7
REMARK VINA RESULT:      -5.0      3.469      5.418
REMARK  4 active torsions:
REMARK  status: ('A' for Active; 'I' for Inactive)
REMARK    1  A    between atoms: O_1  and  C_2 
REMARK    2  A    between atoms: C_2  and  C_4 
REMARK    3  A    between atoms: N_6  and  C_10 
REMARK    4  A    between atoms: C_16  and  C_17 
ROOT
HETATM    1  C   UNL     1     -44.094 -52.243  13.475  1.00  0.00     0.118 A 
HETATM    2  N   UNL     1     -44.864 -52.712  12.460  1.00  0.00    -0.352 N 
ATOM      3  HN  UNL     1     -44.451 -53.300  11.736  1.00  0.00     0.166 HD
HETATM    4  C   UNL     1     -46.178 -52.399  12.410  1.00  0.00     0.089 A 
HETATM    5  C   UNL     1     -46.813 -51.654  13.374  1.00  0.00     0.018 A 
HETATM    6  C   UNL     1     -46.044 -51.194  14.429  1.00  0.00     0.021 A 
HETATM    7  C   UNL     1     -44.658 -51.463  14.486  1.00  0.00     0.091 A 
ENDROOT
BRANCH   1   8
HETATM    8  N   UNL     1     -42.734 -52.480  13.367  1.00  0.00    -0.362 N 
HETATM    9  C   UNL     1     -42.205 -52.628  11.996  1.00  0.00     0.167 C 
HETATM   10  C   UNL     1     -40.715 -52.259  12.006  1.00  0.00     0.236 C 
HETATM   11  O   UNL     1     -39.953 -52.942  13.036  1.00  0.00    -0.372 OA
HETATM   12  C   UNL     1     -40.594 -52.983  14.333  1.00  0.00     0.189 C 
HETATM   13  C   UNL     1     -42.070 -53.419  14.275  1.00  0.00     0.151 C 
BRANCH  10  14
HETATM   14  C   UNL     1     -40.547 -50.734  12.009  1.00  0.00     0.171 C 
HETATM   15  O   UNL     1     -40.509 -50.029  13.006  1.00  0.00    -0.648 OA
BRANCH  14  16
HETATM   16  O   UNL     1     -40.532 -50.216  10.753  1.00  0.00    -0.774 OA
HETATM   17  H   UNL     1     -40.643 -49.244  10.806  1.00  0.00     0.167 HD
ENDBRANCH  14  16
ENDBRANCH  10  14
ENDBRANCH   1   8
BRANCH   7  18
HETATM   18  C   UNL     1     -43.898 -50.796  15.594  1.00  0.00     0.421 C 
HETATM   19  F   UNL     1     -42.734 -50.168  15.272  1.00  0.00    -0.166 F 
HETATM   20  F   UNL     1     -44.643 -49.844  16.230  1.00  0.00    -0.166 F 
HETATM   21  F   UNL     1     -43.559 -51.690  16.572  1.00  0.00    -0.166 F 
ENDBRANCH   7  18
TORSDOF 4
ENDMDL
MODEL 8
REMARK VINA RESULT:      -4.9     12.505     14.039
REMARK  4 active torsions:
REMARK  status: ('A' for Active; 'I' for Inactive)
REMARK    1  A    between atoms: O_1  and  C_2 
REMARK    2  A    between atoms: C_2  and  C_4 
REMARK    3  A    between atoms: N_6  and  C_10 
REMARK    4  A    between atoms: C_16  and  C_17 
ROOT
HETATM    1  C   UNL     1     -31.165 -52.671  19.834  1.00  0.00     0.118 A 
HETATM    2  N   UNL     1     -31.797 -51.607  20.391  1.00  0.00    -0.352 N 
ATOM      3  HN  UNL     1     -32.761 -51.695  20.710  1.00  0.00     0.166 HD
HETATM    4  C   UNL     1     -31.145 -50.430  20.522  1.00  0.00     0.089 A 
HETATM    5  C   UNL     1     -29.833 -50.249  20.159  1.00  0.00     0.018 A 
HETATM    6  C   UNL     1     -29.170 -51.336  19.616  1.00  0.00     0.021 A 
HETATM    7  C   UNL     1     -29.836 -52.567  19.422  1.00  0.00     0.091 A 
ENDROOT
BRANCH   1   8
HETATM    8  N   UNL     1     -31.949 -53.787  19.595  1.00  0.00    -0.362 N 
HETATM    9  C   UNL     1     -33.184 -53.562  18.818  1.00  0.00     0.167 C 
HETATM   10  C   UNL     1     -33.574 -54.878  18.130  1.00  0.00     0.236 C 
HETATM   11  O   UNL     1     -33.613 -56.017  19.031  1.00  0.00    -0.372 OA
HETATM   12  C   UNL     1     -32.497 -56.099  19.948  1.00  0.00     0.189 C 
HETATM   13  C   UNL     1     -32.186 -54.768  20.659  1.00  0.00     0.151 C 
BRANCH  10  14
HETATM   14  C   UNL     1     -32.712 -55.098  16.880  1.00  0.00     0.171 C 
HETATM   15  O   UNL     1     -32.484 -56.180  16.359  1.00  0.00    -0.648 OA
BRANCH  14  16
HETATM   16  O   UNL     1     -32.136 -53.946  16.444  1.00  0.00    -0.774 OA
HETATM   17  H   UNL     1     -32.338 -53.828  15.493  1.00  0.00     0.167 HD
ENDBRANCH  14  16
ENDBRANCH  10  14
ENDBRANCH   1   8
BRANCH   7  18
HETATM   18  C   UNL     1     -29.066 -53.630  18.694  1.00  0.00     0.421 C 
HETATM   19  F   UNL     1     -29.257 -54.922  19.079  1.00  0.00    -0.166 F 
HETATM   20  F   UNL     1     -29.322 -53.624  17.352  1.00  0.00    -0.166 F 
HETATM   21  F   UNL     1     -27.718 -53.425  18.797  1.00  0.00    -0.166 F 
ENDBRANCH   7  18
TORSDOF 4
ENDMDL
MODEL 9
REMARK VINA RESULT:      -4.9      3.083      5.097
REMARK  4 active torsions:
REMARK  status: ('A' for Active; 'I' for Inactive)
REMARK    1  A    between atoms: O_1  and  C_2 
REMARK    2  A    between atoms: C_2  and  C_4 
REMARK    3  A    between atoms: N_6  and  C_10 
REMARK    4  A    between atoms: C_16  and  C_17 
ROOT
HETATM    1  C   UNL     1     -44.051 -52.344  14.316  1.00  0.00     0.118 A 
HETATM    2  N   UNL     1     -44.248 -51.138  14.906  1.00  0.00    -0.352 N 
ATOM      3  HN  UNL     1     -43.521 -50.424  14.861  1.00  0.00     0.166 HD
HETATM    4  C   UNL     1     -45.408 -50.885  15.552  1.00  0.00     0.089 A 
HETATM    5  C   UNL     1     -46.449 -51.778  15.613  1.00  0.00     0.018 A 
HETATM    6  C   UNL     1     -46.271 -53.002  14.990  1.00  0.00     0.021 A 
HETATM    7  C   UNL     1     -45.053 -53.316  14.347  1.00  0.00     0.091 A 
ENDROOT
BRANCH   1   8
HETATM    8  N   UNL     1     -42.783 -52.577  13.814  1.00  0.00    -0.362 N 
HETATM    9  C   UNL     1     -42.666 -52.644  12.344  1.00  0.00     0.167 C 
HETATM   10  C   UNL     1     -41.227 -52.279  11.951  1.00  0.00     0.236 C 
HETATM   11  O   UNL     1     -40.218 -53.025  12.683  1.00  0.00    -0.372 OA
HETATM   12  C   UNL     1     -40.466 -53.143  14.104  1.00  0.00     0.189 C 
HETATM   13  C   UNL     1     -41.907 -53.571  14.442  1.00  0.00     0.151 C 
BRANCH  10  14
HETATM   14  C   UNL     1     -41.035 -50.758  11.994  1.00  0.00     0.171 C 
HETATM   15  O   UNL     1     -40.021 -50.183  12.357  1.00  0.00    -0.648 OA
BRANCH  14  16
HETATM   16  O   UNL     1     -42.170 -50.088  11.660  1.00  0.00    -0.774 OA
HETATM   17  H   UNL     1     -42.947 -50.637  11.896  1.00  0.00     0.167 HD
ENDBRANCH  14  16
ENDBRANCH  10  14
ENDBRANCH   1   8
BRANCH   7  18
HETATM   18  C   UNL     1     -44.917 -54.720  13.834  1.00  0.00     0.421 C 
HETATM   19  F   UNL     1     -43.998 -55.525  14.434  1.00  0.00    -0.166 F 
HETATM   20  F   UNL     1     -46.092 -55.413  13.912  1.00  0.00    -0.166 F 
HETATM   21  F   UNL     1     -44.586 -54.733  12.507  1.00  0.00    -0.166 F 
ENDBRANCH   7  18
TORSDOF 4
ENDMDL
