MODEL 1
REMARK VINA RESULT:      -5.7      0.000      0.000
REMARK  6 active torsions:
REMARK  status: ('A' for Active; 'I' for Inactive)
REMARK    1  A    between atoms: C_2  and  C_3 
REMARK    2  A    between atoms: C_3  and  O_5 
REMARK    3  A    between atoms: O_5  and  C_6 
REMARK    4  A    between atoms: C_6  and  C_7 
REMARK       I    between atoms: C_7  and  N_9 
REMARK    5  A    between atoms: N_9  and  C_10 
REMARK    6  A    between atoms: C_17  and  N_18 
ROOT
HETATM    1  C   UNL     1     -42.035 -51.746  12.279  1.00  0.00     0.094 A 
HETATM    2  C   UNL     1     -40.923 -52.549  12.056  1.00  0.00     0.122 A 
HETATM    3  N   UNL     1     -40.822 -53.831  12.451  1.00  0.00    -0.360 N 
ATOM      4  HN  UNL     1     -39.996 -54.400  12.270  1.00  0.00     0.166 HD
HETATM    5  C   UNL     1     -41.889 -54.299  13.100  1.00  0.00     0.182 A 
HETATM    6  N   UNL     1     -43.014 -53.614  13.386  1.00  0.00    -0.337 N 
ATOM      7  HN  UNL     1     -43.788 -54.061  13.877  1.00  0.00     0.168 HD
HETATM    8  C   UNL     1     -43.088 -52.315  13.004  1.00  0.00     0.133 A 
ENDROOT
BRANCH   1   9
HETATM    9  N   UNL     1     -42.123 -50.449  11.723  1.00  0.00    -0.321 N 
HETATM   10  C   UNL     1     -41.630 -49.332  12.359  1.00  0.00     0.246 C 
HETATM   11  O   UNL     1     -41.041 -49.330  13.434  1.00  0.00    -0.271 OA
HETATM   12  H   UNL     1     -42.845 -50.299  11.029  1.00  0.00     0.169 HD
BRANCH  10  13
HETATM   13  C   UNL     1     -41.854 -48.037  11.573  1.00  0.00     0.271 C 
BRANCH  13  14
HETATM   14  O   UNL     1     -42.111 -48.240  10.185  1.00  0.00    -0.377 OA
BRANCH  14  15
HETATM   15  C   UNL     1     -42.955 -47.218   9.617  1.00  0.00     0.117 C 
HETATM   16  C   UNL     1     -42.543 -45.815  10.067  1.00  0.00     0.039 C 
BRANCH  15  17
HETATM   17  C   UNL     1     -44.404 -47.467  10.070  1.00  0.00     0.027 C 
HETATM   18  C   UNL     1     -45.378 -47.620   8.912  1.00  0.00     0.007 C 
ENDBRANCH  15  17
ENDBRANCH  14  15
ENDBRANCH  13  14
ENDBRANCH  10  13
ENDBRANCH   1   9
BRANCH   8  19
HETATM   19  N   UNL     1     -44.235 -51.600  13.357  1.00  0.00    -0.365 N 
HETATM   20  C   UNL     1     -45.530 -52.168  12.962  1.00  0.00     0.124 C 
HETATM   21  C   UNL     1     -46.543 -51.478  13.870  1.00  0.00     0.021 C 
HETATM   22  C   UNL     1     -45.764 -51.225  15.147  1.00  0.00     0.021 C 
HETATM   23  C   UNL     1     -44.354 -50.929  14.656  1.00  0.00     0.124 C 
ENDBRANCH   8  19
TORSDOF 6
ENDMDL
MODEL 2
REMARK VINA RESULT:      -5.6      3.171      7.000
REMARK  6 active torsions:
REMARK  status: ('A' for Active; 'I' for Inactive)
REMARK    1  A    between atoms: C_2  and  C_3 
REMARK    2  A    between atoms: C_3  and  O_5 
REMARK    3  A    between atoms: O_5  and  C_6 
REMARK    4  A    between atoms: C_6  and  C_7 
REMARK       I    between atoms: C_7  and  N_9 
REMARK    5  A    between atoms: N_9  and  C_10 
REMARK    6  A    between atoms: C_17  and  N_18 
ROOT
HETATM    1  C   UNL     1     -40.770 -48.985  11.020  1.00  0.00     0.094 A 
HETATM    2  C   UNL     1     -41.812 -48.286  10.420  1.00  0.00     0.122 A 
HETATM    3  N   UNL     1     -41.809 -46.958  10.206  1.00  0.00    -0.360 N 
ATOM      4  HN  UNL     1     -42.584 -46.471   9.757  1.00  0.00     0.166 HD
HETATM    5  C   UNL     1     -40.712 -46.329  10.627  1.00  0.00     0.182 A 
HETATM    6  N   UNL     1     -39.650 -46.894  11.234  1.00  0.00    -0.337 N 
ATOM      7  HN  UNL     1     -38.845 -46.332  11.511  1.00  0.00     0.168 HD
HETATM    8  C   UNL     1     -39.680 -48.230  11.466  1.00  0.00     0.133 A 
ENDROOT
BRANCH   1   9
HETATM    9  N   UNL     1     -40.786 -50.396  11.096  1.00  0.00    -0.321 N 
HETATM   10  C   UNL     1     -41.432 -51.081  12.100  1.00  0.00     0.246 C 
HETATM   11  O   UNL     1     -42.085 -50.568  13.002  1.00  0.00    -0.271 OA
HETATM   12  H   UNL     1     -40.042 -50.886  10.615  1.00  0.00     0.169 HD
BRANCH  10  13
HETATM   13  C   UNL     1     -41.299 -52.602  11.983  1.00  0.00     0.271 C 
BRANCH  13  14
HETATM   14  O   UNL     1     -40.105 -53.123  12.564  1.00  0.00    -0.377 OA
BRANCH  14  15
HETATM   15  C   UNL     1     -40.344 -54.282  13.389  1.00  0.00     0.117 C 
HETATM   16  C   UNL     1     -41.712 -54.229  14.074  1.00  0.00     0.039 C 
BRANCH  15  17
HETATM   17  C   UNL     1     -39.259 -54.345  14.477  1.00  0.00     0.027 C 
HETATM   18  C   UNL     1     -39.256 -53.133  15.395  1.00  0.00     0.007 C 
ENDBRANCH  15  17
ENDBRANCH  14  15
ENDBRANCH  13  14
ENDBRANCH  10  13
ENDBRANCH   1   9
BRANCH   8  19
HETATM   19  N   UNL     1     -38.599 -48.795  12.146  1.00  0.00    -0.365 N 
HETATM   20  C   UNL     1     -38.802 -49.147  13.557  1.00  0.00     0.124 C 
HETATM   21  C   UNL     1     -37.691 -50.145  13.866  1.00  0.00     0.021 C 
HETATM   22  C   UNL     1     -37.476 -50.860  12.546  1.00  0.00     0.021 C 
HETATM   23  C   UNL     1     -37.714 -49.774  11.506  1.00  0.00     0.124 C 
ENDBRANCH   8  19
TORSDOF 6
ENDMDL
MODEL 3
REMARK VINA RESULT:      -5.5      3.910      6.995
REMARK  6 active torsions:
REMARK  status: ('A' for Active; 'I' for Inactive)
REMARK    1  A    between atoms: C_2  and  C_3 
REMARK    2  A    between atoms: C_3  and  O_5 
REMARK    3  A    between atoms: O_5  and  C_6 
REMARK    4  A    between atoms: C_6  and  C_7 
REMARK       I    between atoms: C_7  and  N_9 
REMARK    5  A    between atoms: N_9  and  C_10 
REMARK    6  A    between atoms: C_17  and  N_18 
ROOT
HETATM    1  C   UNL     1     -42.662 -47.362   9.732  1.00  0.00     0.094 A 
HETATM    2  C   UNL     1     -43.748 -47.609   8.900  1.00  0.00     0.122 A 
HETATM    3  N   UNL     1     -44.640 -46.677   8.522  1.00  0.00    -0.360 N 
ATOM      4  HN  UNL     1     -45.425 -46.885   7.905  1.00  0.00     0.166 HD
HETATM    5  C   UNL     1     -44.418 -45.460   9.018  1.00  0.00     0.182 A 
HETATM    6  N   UNL     1     -43.414 -45.105   9.843  1.00  0.00    -0.337 N 
ATOM      7  HN  UNL     1     -43.315 -44.141  10.163  1.00  0.00     0.168 HD
HETATM    8  C   UNL     1     -42.538 -46.062  10.236  1.00  0.00     0.133 A 
ENDROOT
BRANCH   1   9
HETATM    9  N   UNL     1     -41.692 -48.359   9.983  1.00  0.00    -0.321 N 
HETATM   10  C   UNL     1     -41.643 -49.070  11.161  1.00  0.00     0.246 C 
HETATM   11  O   UNL     1     -42.433 -48.956  12.092  1.00  0.00    -0.271 OA
HETATM   12  H   UNL     1     -40.836 -48.307   9.445  1.00  0.00     0.169 HD
BRANCH  10  13
HETATM   13  C   UNL     1     -40.498 -50.085  11.212  1.00  0.00     0.271 C 
BRANCH  13  14
HETATM   14  O   UNL     1     -39.703 -50.001  12.394  1.00  0.00    -0.377 OA
BRANCH  14  15
HETATM   15  C   UNL     1     -38.421 -49.381  12.163  1.00  0.00     0.117 C 
HETATM   16  C   UNL     1     -37.343 -50.404  11.799  1.00  0.00     0.039 C 
BRANCH  15  17
HETATM   17  C   UNL     1     -37.988 -48.654  13.448  1.00  0.00     0.027 C 
HETATM   18  C   UNL     1     -38.809 -47.408  13.741  1.00  0.00     0.007 C 
ENDBRANCH  15  17
ENDBRANCH  14  15
ENDBRANCH  13  14
ENDBRANCH  10  13
ENDBRANCH   1   9
BRANCH   8  19
HETATM   19  N   UNL     1     -41.534 -45.694  11.135  1.00  0.00    -0.365 N 
HETATM   20  C   UNL     1     -40.353 -45.017  10.585  1.00  0.00     0.124 C 
HETATM   21  C   UNL     1     -39.714 -44.328  11.786  1.00  0.00     0.021 C 
HETATM   22  C   UNL     1     -40.896 -43.990  12.675  1.00  0.00     0.021 C 
HETATM   23  C   UNL     1     -41.851 -45.157  12.463  1.00  0.00     0.124 C 
ENDBRANCH   8  19
TORSDOF 6
ENDMDL
MODEL 4
REMARK VINA RESULT:      -5.3      2.714      6.372
REMARK  6 active torsions:
REMARK  status: ('A' for Active; 'I' for Inactive)
REMARK    1  A    between atoms: C_2  and  C_3 
REMARK    2  A    between atoms: C_3  and  O_5 
REMARK    3  A    between atoms: O_5  and  C_6 
REMARK    4  A    between atoms: C_6  and  C_7 
REMARK       I    between atoms: C_7  and  N_9 
REMARK    5  A    between atoms: N_9  and  C_10 
REMARK    6  A    between atoms: C_17  and  N_18 
ROOT
HETATM    1  C   UNL     1     -41.475 -49.051  11.439  1.00  0.00     0.094 A 
HETATM    2  C   UNL     1     -42.172 -48.122  10.675  1.00  0.00     0.122 A 
HETATM    3  N   UNL     1     -41.680 -46.927  10.302  1.00  0.00    -0.360 N 
ATOM      4  HN  UNL     1     -42.211 -46.265   9.735  1.00  0.00     0.166 HD
HETATM    5  C   UNL     1     -40.443 -46.675  10.731  1.00  0.00     0.182 A 
HETATM    6  N   UNL     1     -39.679 -47.488  11.486  1.00  0.00    -0.337 N 
ATOM      7  HN  UNL     1     -38.734 -47.216  11.757  1.00  0.00     0.168 HD
HETATM    8  C   UNL     1     -40.199 -48.677  11.877  1.00  0.00     0.133 A 
ENDROOT
BRANCH   1   9
HETATM    9  N   UNL     1     -42.005 -50.338  11.685  1.00  0.00    -0.321 N 
HETATM   10  C   UNL     1     -42.754 -50.634  12.801  1.00  0.00     0.246 C 
HETATM   11  O   UNL     1     -43.075 -49.833  13.673  1.00  0.00    -0.271 OA
HETATM   12  H   UNL     1     -41.548 -51.114  11.223  1.00  0.00     0.169 HD
BRANCH  10  13
HETATM   13  C   UNL     1     -43.206 -52.096  12.861  1.00  0.00     0.271 C 
BRANCH  13  14
HETATM   14  O   UNL     1     -44.158 -52.365  13.888  1.00  0.00    -0.377 OA
BRANCH  14  15
HETATM   15  C   UNL     1     -45.467 -52.677  13.370  1.00  0.00     0.117 C 
HETATM   16  C   UNL     1     -46.428 -51.490  13.480  1.00  0.00     0.039 C 
BRANCH  15  17
HETATM   17  C   UNL     1     -46.050 -53.850  14.175  1.00  0.00     0.027 C 
HETATM   18  C   UNL     1     -45.427 -55.191  13.821  1.00  0.00     0.007 C 
ENDBRANCH  15  17
ENDBRANCH  14  15
ENDBRANCH  13  14
ENDBRANCH  10  13
ENDBRANCH   1   9
BRANCH   8  19
HETATM   19  N   UNL     1     -39.419 -49.486  12.706  1.00  0.00    -0.365 N 
HETATM   20  C   UNL     1     -38.377 -50.299  12.066  1.00  0.00     0.124 C 
HETATM   21  C   UNL     1     -37.422 -50.657  13.200  1.00  0.00     0.021 C 
HETATM   22  C   UNL     1     -37.507 -49.462  14.129  1.00  0.00     0.021 C 
HETATM   23  C   UNL     1     -38.961 -49.025  14.021  1.00  0.00     0.124 C 
ENDBRANCH   8  19
TORSDOF 6
ENDMDL
MODEL 5
REMARK VINA RESULT:      -5.2      1.502      2.334
REMARK  6 active torsions:
REMARK  status: ('A' for Active; 'I' for Inactive)
REMARK    1  A    between atoms: C_2  and  C_3 
REMARK    2  A    between atoms: C_3  and  O_5 
REMARK    3  A    between atoms: O_5  and  C_6 
REMARK    4  A    between atoms: C_6  and  C_7 
REMARK       I    between atoms: C_7  and  N_9 
REMARK    5  A    between atoms: N_9  and  C_10 
REMARK    6  A    between atoms: C_17  and  N_18 
ROOT
HETATM    1  C   UNL     1     -42.010 -51.735  12.279  1.00  0.00     0.094 A 
HETATM    2  C   UNL     1     -40.899 -52.543  12.067  1.00  0.00     0.122 A 
HETATM    3  N   UNL     1     -40.801 -53.819  12.481  1.00  0.00    -0.360 N 
ATOM      4  HN  UNL     1     -39.975 -54.392  12.306  1.00  0.00     0.166 HD
HETATM    5  C   UNL     1     -41.867 -54.276  13.137  1.00  0.00     0.182 A 
HETATM    6  N   UNL     1     -42.990 -53.584  13.415  1.00  0.00    -0.337 N 
ATOM      7  HN  UNL     1     -43.765 -54.022  13.914  1.00  0.00     0.168 HD
HETATM    8  C   UNL     1     -43.063 -52.291  13.015  1.00  0.00     0.133 A 
ENDROOT
BRANCH   1   9
HETATM    9  N   UNL     1     -42.096 -50.446  11.704  1.00  0.00    -0.321 N 
HETATM   10  C   UNL     1     -41.557 -49.328  12.299  1.00  0.00     0.246 C 
HETATM   11  O   UNL     1     -40.923 -49.319  13.349  1.00  0.00    -0.271 OA
HETATM   12  H   UNL     1     -42.844 -50.293  11.039  1.00  0.00     0.169 HD
BRANCH  10  13
HETATM   13  C   UNL     1     -41.788 -48.042  11.501  1.00  0.00     0.271 C 
BRANCH  13  14
HETATM   14  O   UNL     1     -40.592 -47.326  11.199  1.00  0.00    -0.377 OA
BRANCH  14  15
HETATM   15  C   UNL     1     -40.776 -45.895  11.224  1.00  0.00     0.117 C 
HETATM   16  C   UNL     1     -39.747 -45.167  10.357  1.00  0.00     0.039 C 
BRANCH  15  17
HETATM   17  C   UNL     1     -40.623 -45.405  12.674  1.00  0.00     0.027 C 
HETATM   18  C   UNL     1     -39.205 -44.981  13.020  1.00  0.00     0.007 C 
ENDBRANCH  15  17
ENDBRANCH  14  15
ENDBRANCH  13  14
ENDBRANCH  10  13
ENDBRANCH   1   9
BRANCH   8  19
HETATM   19  N   UNL     1     -44.207 -51.568  13.358  1.00  0.00    -0.365 N 
HETATM   20  C   UNL     1     -45.504 -52.135  12.966  1.00  0.00     0.124 C 
HETATM   21  C   UNL     1     -46.516 -51.434  13.865  1.00  0.00     0.021 C 
HETATM   22  C   UNL     1     -45.739 -51.173  15.141  1.00  0.00     0.021 C 
HETATM   23  C   UNL     1     -44.327 -50.886  14.651  1.00  0.00     0.124 C 
ENDBRANCH   8  19
TORSDOF 6
ENDMDL
MODEL 6
REMARK VINA RESULT:      -5.1      1.872      3.609
REMARK  6 active torsions:
REMARK  status: ('A' for Active; 'I' for Inactive)
REMARK    1  A    between atoms: C_2  and  C_3 
REMARK    2  A    between atoms: C_3  and  O_5 
REMARK    3  A    between atoms: O_5  and  C_6 
REMARK    4  A    between atoms: C_6  and  C_7 
REMARK       I    between atoms: C_7  and  N_9 
REMARK    5  A    between atoms: N_9  and  C_10 
REMARK    6  A    between atoms: C_17  and  N_18 
ROOT
HETATM    1  C   UNL     1     -44.019 -52.606  12.957  1.00  0.00     0.094 A 
HETATM    2  C   UNL     1     -45.358 -52.971  12.883  1.00  0.00     0.122 A 
HETATM    3  N   UNL     1     -45.869 -54.090  13.428  1.00  0.00    -0.360 N 
ATOM      4  HN  UNL     1     -46.858 -54.331  13.364  1.00  0.00     0.166 HD
HETATM    5  C   UNL     1     -44.981 -54.859  14.058  1.00  0.00     0.182 A 
HETATM    6  N   UNL     1     -43.661 -54.617  14.181  1.00  0.00    -0.337 N 
ATOM      7  HN  UNL     1     -43.058 -55.259  14.695  1.00  0.00     0.168 HD
HETATM    8  C   UNL     1     -43.157 -53.499  13.604  1.00  0.00     0.133 A 
ENDROOT
BRANCH   1   9
HETATM    9  N   UNL     1     -43.576 -51.353  12.474  1.00  0.00    -0.321 N 
HETATM   10  C   UNL     1     -43.564 -50.217  13.251  1.00  0.00     0.246 C 
HETATM   11  O   UNL     1     -43.891 -50.162  14.432  1.00  0.00    -0.271 OA
HETATM   12  H   UNL     1     -43.595 -51.220  11.471  1.00  0.00     0.169 HD
BRANCH  10  13
HETATM   13  C   UNL     1     -43.059 -48.978  12.509  1.00  0.00     0.271 C 
BRANCH  13  14
HETATM   14  O   UNL     1     -42.069 -49.259  11.520  1.00  0.00    -0.377 OA
BRANCH  14  15
HETATM   15  C   UNL     1     -41.902 -48.183  10.574  1.00  0.00     0.117 C 
HETATM   16  C   UNL     1     -40.880 -47.150  11.052  1.00  0.00     0.039 C 
BRANCH  15  17
HETATM   17  C   UNL     1     -43.256 -47.477  10.387  1.00  0.00     0.027 C 
HETATM   18  C   UNL     1     -43.762 -47.519   8.953  1.00  0.00     0.007 C 
ENDBRANCH  15  17
ENDBRANCH  14  15
ENDBRANCH  13  14
ENDBRANCH  10  13
ENDBRANCH   1   9
BRANCH   8  19
HETATM   19  N   UNL     1     -41.779 -53.289  13.689  1.00  0.00    -0.365 N 
HETATM   20  C   UNL     1     -41.235 -52.921  15.003  1.00  0.00     0.124 C 
HETATM   21  C   UNL     1     -39.747 -53.241  14.904  1.00  0.00     0.021 C 
HETATM   22  C   UNL     1     -39.698 -54.422  13.954  1.00  0.00     0.021 C 
HETATM   23  C   UNL     1     -40.825 -54.140  12.970  1.00  0.00     0.124 C 
ENDBRANCH   8  19
TORSDOF 6
ENDMDL
MODEL 7
REMARK VINA RESULT:      -5.1      2.026      3.873
REMARK  6 active torsions:
REMARK  status: ('A' for Active; 'I' for Inactive)
REMARK    1  A    between atoms: C_2  and  C_3 
REMARK    2  A    between atoms: C_3  and  O_5 
REMARK    3  A    between atoms: O_5  and  C_6 
REMARK    4  A    between atoms: C_6  and  C_7 
REMARK       I    between atoms: C_7  and  N_9 
REMARK    5  A    between atoms: N_9  and  C_10 
REMARK    6  A    between atoms: C_17  and  N_18 
ROOT
HETATM    1  C   UNL     1     -41.913 -51.588  12.340  1.00  0.00     0.094 A 
HETATM    2  C   UNL     1     -42.856 -52.601  12.206  1.00  0.00     0.122 A 
HETATM    3  N   UNL     1     -42.707 -53.844  12.698  1.00  0.00    -0.360 N 
ATOM      4  HN  UNL     1     -43.418 -54.567  12.591  1.00  0.00     0.166 HD
HETATM    5  C   UNL     1     -41.556 -54.057  13.336  1.00  0.00     0.182 A 
HETATM    6  N   UNL     1     -40.565 -53.162  13.514  1.00  0.00    -0.337 N 
ATOM      7  HN  UNL     1     -39.721 -53.411  14.029  1.00  0.00     0.168 HD
HETATM    8  C   UNL     1     -40.719 -51.921  12.990  1.00  0.00     0.133 A 
ENDROOT
BRANCH   1   9
HETATM    9  N   UNL     1     -42.192 -50.270  11.912  1.00  0.00    -0.321 N 
HETATM   10  C   UNL     1     -42.785 -49.332  12.727  1.00  0.00     0.246 C 
HETATM   11  O   UNL     1     -43.100 -49.509  13.899  1.00  0.00    -0.271 OA
HETATM   12  H   UNL     1     -42.271 -50.123  10.914  1.00  0.00     0.169 HD
BRANCH  10  13
HETATM   13  C   UNL     1     -43.002 -47.981  12.041  1.00  0.00     0.271 C 
BRANCH  13  14
HETATM   14  O   UNL     1     -43.908 -48.030  10.940  1.00  0.00    -0.377 OA
BRANCH  14  15
HETATM   15  C   UNL     1     -43.365 -47.437   9.742  1.00  0.00     0.117 C 
HETATM   16  C   UNL     1     -42.425 -46.270  10.052  1.00  0.00     0.039 C 
BRANCH  15  17
HETATM   17  C   UNL     1     -44.527 -46.911   8.883  1.00  0.00     0.027 C 
HETATM   18  C   UNL     1     -45.872 -47.512   9.258  1.00  0.00     0.007 C 
ENDBRANCH  15  17
ENDBRANCH  14  15
ENDBRANCH  13  14
ENDBRANCH  10  13
ENDBRANCH   1   9
BRANCH   8  19
HETATM   19  N   UNL     1     -39.661 -51.020  13.132  1.00  0.00    -0.365 N 
HETATM   20  C   UNL     1     -38.831 -51.142  14.337  1.00  0.00     0.124 C 
HETATM   21  C   UNL     1     -37.539 -50.412  13.986  1.00  0.00     0.021 C 
HETATM   22  C   UNL     1     -37.398 -50.633  12.492  1.00  0.00     0.021 C 
HETATM   23  C   UNL     1     -38.835 -50.618  11.989  1.00  0.00     0.124 C 
ENDBRANCH   8  19
TORSDOF 6
ENDMDL
MODEL 8
REMARK VINA RESULT:      -5.0      2.578      5.506
REMARK  6 active torsions:
REMARK  status: ('A' for Active; 'I' for Inactive)
REMARK    1  A    between atoms: C_2  and  C_3 
REMARK    2  A    between atoms: C_3  and  O_5 
REMARK    3  A    between atoms: O_5  and  C_6 
REMARK    4  A    between atoms: C_6  and  C_7 
REMARK       I    between atoms: C_7  and  N_9 
REMARK    5  A    between atoms: N_9  and  C_10 
REMARK    6  A    between atoms: C_17  and  N_18 
ROOT
HETATM    1  C   UNL     1     -41.325 -50.593  12.051  1.00  0.00     0.094 A 
HETATM    2  C   UNL     1     -41.068 -49.404  11.379  1.00  0.00     0.122 A 
HETATM    3  N   UNL     1     -39.836 -48.952  11.082  1.00  0.00    -0.360 N 
ATOM      4  HN  UNL     1     -39.676 -48.078  10.582  1.00  0.00     0.166 HD
HETATM    5  C   UNL     1     -38.841 -49.739  11.492  1.00  0.00     0.182 A 
HETATM    6  N   UNL     1     -38.966 -50.901  12.163  1.00  0.00    -0.337 N 
ATOM      7  HN  UNL     1     -38.144 -51.445  12.425  1.00  0.00     0.168 HD
HETATM    8  C   UNL     1     -40.213 -51.329  12.478  1.00  0.00     0.133 A 
ENDROOT
BRANCH   1   9
HETATM    9  N   UNL     1     -42.646 -51.069  12.216  1.00  0.00    -0.321 N 
HETATM   10  C   UNL     1     -43.465 -50.652  13.241  1.00  0.00     0.246 C 
HETATM   11  O   UNL     1     -43.170 -49.816  14.089  1.00  0.00    -0.271 OA
HETATM   12  H   UNL     1     -42.865 -51.960  11.790  1.00  0.00     0.169 HD
BRANCH  10  13
HETATM   13  C   UNL     1     -44.844 -51.315  13.225  1.00  0.00     0.271 C 
BRANCH  13  14
HETATM   14  O   UNL     1     -45.421 -51.482  14.520  1.00  0.00    -0.377 OA
BRANCH  14  15
HETATM   15  C   UNL     1     -45.794 -52.848  14.794  1.00  0.00     0.117 C 
HETATM   16  C   UNL     1     -44.949 -53.463  15.912  1.00  0.00     0.039 C 
BRANCH  15  17
HETATM   17  C   UNL     1     -45.589 -53.681  13.517  1.00  0.00     0.027 C 
HETATM   18  C   UNL     1     -45.466 -55.172  13.784  1.00  0.00     0.007 C 
ENDBRANCH  15  17
ENDBRANCH  14  15
ENDBRANCH  13  14
ENDBRANCH  10  13
ENDBRANCH   1   9
BRANCH   8  19
HETATM   19  N   UNL     1     -40.327 -52.505  13.222  1.00  0.00    -0.365 N 
HETATM   20  C   UNL     1     -40.629 -52.369  14.653  1.00  0.00     0.124 C 
HETATM   21  C   UNL     1     -41.165 -53.737  15.062  1.00  0.00     0.021 C 
HETATM   22  C   UNL     1     -41.852 -54.241  13.808  1.00  0.00     0.021 C 
HETATM   23  C   UNL     1     -40.987 -53.697  12.680  1.00  0.00     0.124 C 
ENDBRANCH   8  19
TORSDOF 6
ENDMDL
MODEL 9
REMARK VINA RESULT:      -5.0      2.968      4.229
REMARK  6 active torsions:
REMARK  status: ('A' for Active; 'I' for Inactive)
REMARK    1  A    between atoms: C_2  and  C_3 
REMARK    2  A    between atoms: C_3  and  O_5 
REMARK    3  A    between atoms: O_5  and  C_6 
REMARK    4  A    between atoms: C_6  and  C_7 
REMARK       I    between atoms: C_7  and  N_9 
REMARK    5  A    between atoms: N_9  and  C_10 
REMARK    6  A    between atoms: C_17  and  N_18 
ROOT
HETATM    1  C   UNL     1     -42.056 -52.898  14.336  1.00  0.00     0.094 A 
HETATM    2  C   UNL     1     -41.248 -53.808  15.007  1.00  0.00     0.122 A 
HETATM    3  N   UNL     1     -41.690 -54.958  15.548  1.00  0.00    -0.360 N 
ATOM      4  HN  UNL     1     -41.074 -55.612  16.029  1.00  0.00     0.166 HD
HETATM    5  C   UNL     1     -42.998 -55.174  15.405  1.00  0.00     0.182 A 
HETATM    6  N   UNL     1     -43.880 -54.361  14.792  1.00  0.00    -0.337 N 
ATOM      7  HN  UNL     1     -44.864 -54.616  14.718  1.00  0.00     0.168 HD
HETATM    8  C   UNL     1     -43.423 -53.193  14.275  1.00  0.00     0.133 A 
ENDROOT
BRANCH   1   9
HETATM    9  N   UNL     1     -41.502 -51.774  13.681  1.00  0.00    -0.321 N 
HETATM   10  C   UNL     1     -40.761 -51.877  12.525  1.00  0.00     0.246 C 
HETATM   11  O   UNL     1     -40.530 -52.920  11.921  1.00  0.00    -0.271 OA
HETATM   12  H   UNL     1     -41.359 -50.944  14.242  1.00  0.00     0.169 HD
BRANCH  10  13
HETATM   13  C   UNL     1     -40.251 -50.530  12.007  1.00  0.00     0.271 C 
BRANCH  13  14
HETATM   14  O   UNL     1     -39.631 -49.724  13.007  1.00  0.00    -0.377 OA
BRANCH  14  15
HETATM   15  C   UNL     1     -38.206 -49.598  12.820  1.00  0.00     0.117 C 
HETATM   16  C   UNL     1     -37.791 -49.850  11.369  1.00  0.00     0.039 C 
BRANCH  15  17
HETATM   17  C   UNL     1     -37.499 -50.631  13.714  1.00  0.00     0.027 C 
HETATM   18  C   UNL     1     -37.620 -50.325  15.199  1.00  0.00     0.007 C 
ENDBRANCH  15  17
ENDBRANCH  14  15
ENDBRANCH  13  14
ENDBRANCH  10  13
ENDBRANCH   1   9
BRANCH   8  19
HETATM   19  N   UNL     1     -44.355 -52.332  13.692  1.00  0.00    -0.365 N 
HETATM   20  C   UNL     1     -45.222 -52.889  12.646  1.00  0.00     0.124 C 
HETATM   21  C   UNL     1     -46.399 -51.921  12.569  1.00  0.00     0.021 C 
HETATM   22  C   UNL     1     -46.533 -51.409  13.990  1.00  0.00     0.021 C 
HETATM   23  C   UNL     1     -45.095 -51.348  14.488  1.00  0.00     0.124 C 
ENDBRANCH   8  19
TORSDOF 6
ENDMDL
