MODEL 1
REMARK VINA RESULT:      -5.9      0.000      0.000
REMARK  6 active torsions:
REMARK  status: ('A' for Active; 'I' for Inactive)
REMARK       I    between atoms: N_2  and  C_4 
REMARK    1  A    between atoms: C_4  and  C_6 
REMARK    2  A    between atoms: C_9  and  N_13 
REMARK    3  A    between atoms: C_17  and  O_19 
REMARK    4  A    between atoms: O_19  and  C_20 
REMARK    5  A    between atoms: C_20  and  C_21 
REMARK    6  A    between atoms: C_21  and  O_22 
ROOT
HETATM    1  C   UNL     1     -43.512 -52.020  12.816  1.00  0.00     0.047 C 
HETATM    2  C   UNL     1     -43.816 -50.736  13.233  1.00  0.00     0.022 C 
HETATM    3  C   UNL     1     -43.036 -49.678  12.786  1.00  0.00     0.049 C 
HETATM    4  C   UNL     1     -41.911 -49.913  11.996  1.00  0.00     0.103 C 
HETATM    5  N   UNL     1     -41.523 -51.168  11.702  1.00  0.00    -0.351 N 
ATOM      6  HN  UNL     1     -40.656 -51.349  11.196  1.00  0.00     0.166 HD
HETATM    7  C   UNL     1     -42.330 -52.191  12.106  1.00  0.00     0.106 C 
ENDROOT
BRANCH   4   8
HETATM    8  N   UNL     1     -41.195 -48.838  11.528  1.00  0.00    -0.365 N 
HETATM    9  C   UNL     1     -39.816 -48.605  11.906  1.00  0.00     0.124 C 
HETATM   10  C   UNL     1     -39.719 -47.128  12.323  1.00  0.00     0.022 C 
HETATM   11  C   UNL     1     -40.292 -46.173  11.258  1.00  0.00     0.035 C 
HETATM   12  C   UNL     1     -41.712 -46.576  10.809  1.00  0.00     0.139 C 
HETATM   13  C   UNL     1     -41.694 -48.062  10.406  1.00  0.00     0.156 C 
BRANCH  12  14
HETATM   14  O   UNL     1     -42.129 -45.719   9.732  1.00  0.00    -0.382 OA
BRANCH  14  15
HETATM   15  C   UNL     1     -43.120 -46.333   8.889  1.00  0.00     0.194 C 
BRANCH  15  16
HETATM   16  C   UNL     1     -44.422 -45.548   8.970  1.00  0.00     0.190 C 
BRANCH  16  17
HETATM   17  O   UNL     1     -44.163 -44.229   9.444  1.00  0.00    -0.399 OA
HETATM   18  H   UNL     1     -43.430 -43.896   8.891  1.00  0.00     0.209 HD
ENDBRANCH  16  17
ENDBRANCH  15  16
ENDBRANCH  14  15
ENDBRANCH  12  14
ENDBRANCH   4   8
BRANCH   1  19
HETATM   19  C   UNL     1     -44.360 -53.188  13.137  1.00  0.00     0.254 C 
HETATM   20  N   UNL     1     -44.088 -53.966  14.274  1.00  0.00    -0.357 N 
HETATM   21  C   UNL     1     -44.944 -55.119  14.493  1.00  0.00     0.152 C 
HETATM   22  C   UNL     1     -43.150 -53.625  15.338  1.00  0.00     0.152 C 
HETATM   23  O   UNL     1     -45.301 -53.430  12.385  1.00  0.00    -0.267 OA
ENDBRANCH   1  19
TORSDOF 6
ENDMDL
MODEL 2
REMARK VINA RESULT:      -5.9      1.683      7.569
REMARK  6 active torsions:
REMARK  status: ('A' for Active; 'I' for Inactive)
REMARK       I    between atoms: N_2  and  C_4 
REMARK    1  A    between atoms: C_4  and  C_6 
REMARK    2  A    between atoms: C_9  and  N_13 
REMARK    3  A    between atoms: C_17  and  O_19 
REMARK    4  A    between atoms: O_19  and  C_20 
REMARK    5  A    between atoms: C_20  and  C_21 
REMARK    6  A    between atoms: C_21  and  O_22 
ROOT
HETATM    1  C   UNL     1     -41.939 -47.467  11.340  1.00  0.00     0.047 C 
HETATM    2  C   UNL     1     -42.859 -47.635  12.359  1.00  0.00     0.022 C 
HETATM    3  C   UNL     1     -43.043 -48.901  12.900  1.00  0.00     0.049 C 
HETATM    4  C   UNL     1     -42.372 -50.003  12.369  1.00  0.00     0.103 C 
HETATM    5  N   UNL     1     -41.585 -49.874  11.284  1.00  0.00    -0.351 N 
ATOM      6  HN  UNL     1     -41.159 -50.688  10.841  1.00  0.00     0.166 HD
HETATM    7  C   UNL     1     -41.376 -48.616  10.799  1.00  0.00     0.106 C 
ENDROOT
BRANCH   4   8
HETATM    8  N   UNL     1     -42.538 -51.229  12.965  1.00  0.00    -0.365 N 
HETATM    9  C   UNL     1     -41.512 -51.830  13.793  1.00  0.00     0.124 C 
HETATM   10  C   UNL     1     -41.350 -53.280  13.308  1.00  0.00     0.022 C 
HETATM   11  C   UNL     1     -42.691 -54.037  13.246  1.00  0.00     0.035 C 
HETATM   12  C   UNL     1     -43.770 -53.262  12.463  1.00  0.00     0.139 C 
HETATM   13  C   UNL     1     -43.857 -51.833  13.034  1.00  0.00     0.156 C 
BRANCH  12  14
HETATM   14  O   UNL     1     -45.020 -53.967  12.554  1.00  0.00    -0.382 OA
BRANCH  14  15
HETATM   15  C   UNL     1     -45.068 -54.862  13.680  1.00  0.00     0.194 C 
BRANCH  15  16
HETATM   16  C   UNL     1     -46.207 -54.460  14.608  1.00  0.00     0.190 C 
BRANCH  16  17
HETATM   17  O   UNL     1     -47.227 -55.456  14.582  1.00  0.00    -0.399 OA
HETATM   18  H   UNL     1     -47.100 -55.976  15.400  1.00  0.00     0.209 HD
ENDBRANCH  16  17
ENDBRANCH  15  16
ENDBRANCH  14  15
ENDBRANCH  12  14
ENDBRANCH   4   8
BRANCH   1  19
HETATM   19  C   UNL     1     -41.586 -46.139  10.791  1.00  0.00     0.254 C 
HETATM   20  N   UNL     1     -40.599 -45.358  11.414  1.00  0.00    -0.357 N 
HETATM   21  C   UNL     1     -40.344 -44.051  10.834  1.00  0.00     0.152 C 
HETATM   22  C   UNL     1     -39.695 -45.804  12.468  1.00  0.00     0.152 C 
HETATM   23  O   UNL     1     -42.174 -45.770   9.778  1.00  0.00    -0.267 OA
ENDBRANCH   1  19
TORSDOF 6
ENDMDL
MODEL 3
REMARK VINA RESULT:      -5.8      2.762      3.443
REMARK  6 active torsions:
REMARK  status: ('A' for Active; 'I' for Inactive)
REMARK       I    between atoms: N_2  and  C_4 
REMARK    1  A    between atoms: C_4  and  C_6 
REMARK    2  A    between atoms: C_9  and  N_13 
REMARK    3  A    between atoms: C_17  and  O_19 
REMARK    4  A    between atoms: O_19  and  C_20 
REMARK    5  A    between atoms: C_20  and  C_21 
REMARK    6  A    between atoms: C_21  and  O_22 
ROOT
HETATM    1  C   UNL     1     -40.201 -50.902  12.765  1.00  0.00     0.047 C 
HETATM    2  C   UNL     1     -40.519 -49.724  13.419  1.00  0.00     0.022 C 
HETATM    3  C   UNL     1     -40.973 -48.642  12.678  1.00  0.00     0.049 C 
HETATM    4  C   UNL     1     -41.028 -48.710  11.286  1.00  0.00     0.103 C 
HETATM    5  N   UNL     1     -40.585 -49.800  10.630  1.00  0.00    -0.351 N 
ATOM      6  HN  UNL     1     -40.545 -49.823   9.611  1.00  0.00     0.166 HD
HETATM    7  C   UNL     1     -40.192 -50.871  11.376  1.00  0.00     0.106 C 
ENDROOT
BRANCH   4   8
HETATM    8  N   UNL     1     -41.534 -47.639  10.590  1.00  0.00    -0.365 N 
HETATM    9  C   UNL     1     -40.944 -46.318  10.670  1.00  0.00     0.124 C 
HETATM   10  C   UNL     1     -42.100 -45.336  10.921  1.00  0.00     0.022 C 
HETATM   11  C   UNL     1     -43.246 -45.497   9.903  1.00  0.00     0.035 C 
HETATM   12  C   UNL     1     -43.720 -46.960   9.778  1.00  0.00     0.139 C 
HETATM   13  C   UNL     1     -42.491 -47.852   9.519  1.00  0.00     0.156 C 
BRANCH  12  14
HETATM   14  O   UNL     1     -44.697 -47.052   8.727  1.00  0.00    -0.382 OA
BRANCH  14  15
HETATM   15  C   UNL     1     -46.019 -47.327   9.224  1.00  0.00     0.194 C 
BRANCH  15  16
HETATM   16  C   UNL     1     -46.578 -48.568   8.539  1.00  0.00     0.190 C 
BRANCH  16  17
HETATM   17  O   UNL     1     -46.087 -48.645   7.202  1.00  0.00    -0.399 OA
HETATM   18  H   UNL     1     -46.769 -49.138   6.706  1.00  0.00     0.209 HD
ENDBRANCH  16  17
ENDBRANCH  15  16
ENDBRANCH  14  15
ENDBRANCH  12  14
ENDBRANCH   4   8
BRANCH   1  19
HETATM   19  C   UNL     1     -39.833 -52.142  13.483  1.00  0.00     0.254 C 
HETATM   20  N   UNL     1     -40.831 -52.961  14.035  1.00  0.00    -0.357 N 
HETATM   21  C   UNL     1     -40.380 -54.137  14.757  1.00  0.00     0.152 C 
HETATM   22  C   UNL     1     -42.265 -52.837  13.799  1.00  0.00     0.152 C 
HETATM   23  O   UNL     1     -38.638 -52.420  13.556  1.00  0.00    -0.267 OA
ENDBRANCH   1  19
TORSDOF 6
ENDMDL
MODEL 4
REMARK VINA RESULT:      -5.4      2.771      8.083
REMARK  6 active torsions:
REMARK  status: ('A' for Active; 'I' for Inactive)
REMARK       I    between atoms: N_2  and  C_4 
REMARK    1  A    between atoms: C_4  and  C_6 
REMARK    2  A    between atoms: C_9  and  N_13 
REMARK    3  A    between atoms: C_17  and  O_19 
REMARK    4  A    between atoms: O_19  and  C_20 
REMARK    5  A    between atoms: C_20  and  C_21 
REMARK    6  A    between atoms: C_21  and  O_22 
ROOT
HETATM    1  C   UNL     1     -41.846 -49.097  12.062  1.00  0.00     0.047 C 
HETATM    2  C   UNL     1     -42.981 -49.394  12.796  1.00  0.00     0.022 C 
HETATM    3  C   UNL     1     -43.237 -50.714  13.140  1.00  0.00     0.049 C 
HETATM    4  C   UNL     1     -42.408 -51.738  12.682  1.00  0.00     0.103 C 
HETATM    5  N   UNL     1     -41.384 -51.477  11.849  1.00  0.00    -0.351 N 
ATOM      6  HN  UNL     1     -40.826 -52.229  11.444  1.00  0.00     0.166 HD
HETATM    7  C   UNL     1     -41.117 -50.170  11.564  1.00  0.00     0.106 C 
ENDROOT
BRANCH   4   8
HETATM    8  N   UNL     1     -42.662 -53.026  13.088  1.00  0.00    -0.365 N 
HETATM    9  C   UNL     1     -43.841 -53.752  12.661  1.00  0.00     0.124 C 
HETATM   10  C   UNL     1     -44.459 -54.367  13.928  1.00  0.00     0.022 C 
HETATM   11  C   UNL     1     -43.438 -55.173  14.755  1.00  0.00     0.035 C 
HETATM   12  C   UNL     1     -42.153 -54.372  15.045  1.00  0.00     0.139 C 
HETATM   13  C   UNL     1     -41.614 -53.812  13.715  1.00  0.00     0.156 C 
BRANCH  12  14
HETATM   14  O   UNL     1     -41.203 -55.225  15.708  1.00  0.00    -0.382 OA
BRANCH  14  15
HETATM   15  C   UNL     1     -40.002 -54.527  16.085  1.00  0.00     0.194 C 
BRANCH  15  16
HETATM   16  C   UNL     1     -38.806 -55.463  15.969  1.00  0.00     0.190 C 
BRANCH  16  17
HETATM   17  O   UNL     1     -38.440 -55.612  14.600  1.00  0.00    -0.399 OA
HETATM   18  H   UNL     1     -37.934 -54.806  14.379  1.00  0.00     0.209 HD
ENDBRANCH  16  17
ENDBRANCH  15  16
ENDBRANCH  14  15
ENDBRANCH  12  14
ENDBRANCH   4   8
BRANCH   1  19
HETATM   19  C   UNL     1     -41.427 -47.711  11.759  1.00  0.00     0.254 C 
HETATM   20  N   UNL     1     -41.818 -47.103  10.555  1.00  0.00    -0.357 N 
HETATM   21  C   UNL     1     -41.329 -45.756  10.319  1.00  0.00     0.152 C 
HETATM   22  C   UNL     1     -42.803 -47.626   9.614  1.00  0.00     0.152 C 
HETATM   23  O   UNL     1     -40.749 -47.127  12.601  1.00  0.00    -0.267 OA
ENDBRANCH   1  19
TORSDOF 6
ENDMDL
MODEL 5
REMARK VINA RESULT:      -5.3      2.007      2.912
REMARK  6 active torsions:
REMARK  status: ('A' for Active; 'I' for Inactive)
REMARK       I    between atoms: N_2  and  C_4 
REMARK    1  A    between atoms: C_4  and  C_6 
REMARK    2  A    between atoms: C_9  and  N_13 
REMARK    3  A    between atoms: C_17  and  O_19 
REMARK    4  A    between atoms: O_19  and  C_20 
REMARK    5  A    between atoms: C_20  and  C_21 
REMARK    6  A    between atoms: C_21  and  O_22 
ROOT
HETATM    1  C   UNL     1     -43.236 -53.138  13.204  1.00  0.00     0.047 C 
HETATM    2  C   UNL     1     -41.997 -53.631  13.571  1.00  0.00     0.022 C 
HETATM    3  C   UNL     1     -40.879 -52.819  13.433  1.00  0.00     0.049 C 
HETATM    4  C   UNL     1     -40.989 -51.555  12.855  1.00  0.00     0.103 C 
HETATM    5  N   UNL     1     -42.165 -51.121  12.363  1.00  0.00    -0.351 N 
ATOM      6  HN  UNL     1     -42.235 -50.233  11.865  1.00  0.00     0.166 HD
HETATM    7  C   UNL     1     -43.261 -51.910  12.554  1.00  0.00     0.106 C 
ENDROOT
BRANCH   4   8
HETATM    8  N   UNL     1     -39.872 -50.759  12.785  1.00  0.00    -0.365 N 
HETATM    9  C   UNL     1     -38.553 -51.248  13.134  1.00  0.00     0.124 C 
HETATM   10  C   UNL     1     -37.932 -50.200  14.072  1.00  0.00     0.022 C 
HETATM   11  C   UNL     1     -37.986 -48.775  13.488  1.00  0.00     0.035 C 
HETATM   12  C   UNL     1     -39.401 -48.387  13.012  1.00  0.00     0.139 C 
HETATM   13  C   UNL     1     -39.922 -49.493  12.075  1.00  0.00     0.156 C 
BRANCH  12  14
HETATM   14  O   UNL     1     -39.348 -47.101  12.369  1.00  0.00    -0.382 OA
BRANCH  14  15
HETATM   15  C   UNL     1     -40.189 -47.032  11.203  1.00  0.00     0.194 C 
BRANCH  15  16
HETATM   16  C   UNL     1     -40.149 -45.623  10.624  1.00  0.00     0.190 C 
BRANCH  16  17
HETATM   17  O   UNL     1     -41.184 -45.469   9.656  1.00  0.00    -0.399 OA
HETATM   18  H   UNL     1     -41.985 -45.839  10.075  1.00  0.00     0.209 HD
ENDBRANCH  16  17
ENDBRANCH  15  16
ENDBRANCH  14  15
ENDBRANCH  12  14
ENDBRANCH   4   8
BRANCH   1  19
HETATM   19  C   UNL     1     -44.494 -53.881  13.433  1.00  0.00     0.254 C 
HETATM   20  N   UNL     1     -45.174 -53.758  14.656  1.00  0.00    -0.357 N 
HETATM   21  C   UNL     1     -46.379 -54.554  14.812  1.00  0.00     0.152 C 
HETATM   22  C   UNL     1     -44.884 -52.782  15.701  1.00  0.00     0.152 C 
HETATM   23  O   UNL     1     -44.912 -54.584  12.517  1.00  0.00    -0.267 OA
ENDBRANCH   1  19
TORSDOF 6
ENDMDL
MODEL 6
REMARK VINA RESULT:      -5.2      1.672      1.885
REMARK  6 active torsions:
REMARK  status: ('A' for Active; 'I' for Inactive)
REMARK       I    between atoms: N_2  and  C_4 
REMARK    1  A    between atoms: C_4  and  C_6 
REMARK    2  A    between atoms: C_9  and  N_13 
REMARK    3  A    between atoms: C_17  and  O_19 
REMARK    4  A    between atoms: O_19  and  C_20 
REMARK    5  A    between atoms: C_20  and  C_21 
REMARK    6  A    between atoms: C_21  and  O_22 
ROOT
HETATM    1  C   UNL     1     -43.671 -52.146  12.805  1.00  0.00     0.047 C 
HETATM    2  C   UNL     1     -43.819 -50.936  13.458  1.00  0.00     0.022 C 
HETATM    3  C   UNL     1     -42.897 -49.925  13.225  1.00  0.00     0.049 C 
HETATM    4  C   UNL     1     -41.788 -50.153  12.410  1.00  0.00     0.103 C 
HETATM    5  N   UNL     1     -41.556 -51.370  11.884  1.00  0.00    -0.351 N 
ATOM      6  HN  UNL     1     -40.704 -51.565  11.357  1.00  0.00     0.166 HD
HETATM    7  C   UNL     1     -42.499 -52.335  12.081  1.00  0.00     0.106 C 
ENDROOT
BRANCH   4   8
HETATM    8  N   UNL     1     -40.926 -49.113  12.160  1.00  0.00    -0.365 N 
HETATM    9  C   UNL     1     -39.504 -49.208  12.420  1.00  0.00     0.124 C 
HETATM   10  C   UNL     1     -39.113 -47.939  13.196  1.00  0.00     0.022 C 
HETATM   11  C   UNL     1     -39.581 -46.649  12.494  1.00  0.00     0.035 C 
HETATM   12  C   UNL     1     -41.078 -46.689  12.126  1.00  0.00     0.139 C 
HETATM   13  C   UNL     1     -41.357 -47.988  11.348  1.00  0.00     0.156 C 
BRANCH  12  14
HETATM   14  O   UNL     1     -41.411 -45.512  11.369  1.00  0.00    -0.382 OA
BRANCH  14  15
HETATM   15  C   UNL     1     -41.242 -44.300  12.127  1.00  0.00     0.194 C 
BRANCH  15  16
HETATM   16  C   UNL     1     -40.746 -43.187  11.213  1.00  0.00     0.190 C 
BRANCH  16  17
HETATM   17  O   UNL     1     -40.079 -43.748  10.085  1.00  0.00    -0.399 OA
HETATM   18  H   UNL     1     -39.133 -43.770  10.329  1.00  0.00     0.209 HD
ENDBRANCH  16  17
ENDBRANCH  15  16
ENDBRANCH  14  15
ENDBRANCH  12  14
ENDBRANCH   4   8
BRANCH   1  19
HETATM   19  C   UNL     1     -44.671 -53.232  12.893  1.00  0.00     0.254 C 
HETATM   20  N   UNL     1     -44.498 -54.278  13.815  1.00  0.00    -0.357 N 
HETATM   21  C   UNL     1     -45.506 -55.323  13.807  1.00  0.00     0.152 C 
HETATM   22  C   UNL     1     -43.511 -54.316  14.888  1.00  0.00     0.152 C 
HETATM   23  O   UNL     1     -45.645 -53.168  12.146  1.00  0.00    -0.267 OA
ENDBRANCH   1  19
TORSDOF 6
ENDMDL
MODEL 7
REMARK VINA RESULT:      -5.2      3.690      5.297
REMARK  6 active torsions:
REMARK  status: ('A' for Active; 'I' for Inactive)
REMARK       I    between atoms: N_2  and  C_4 
REMARK    1  A    between atoms: C_4  and  C_6 
REMARK    2  A    between atoms: C_9  and  N_13 
REMARK    3  A    between atoms: C_17  and  O_19 
REMARK    4  A    between atoms: O_19  and  C_20 
REMARK    5  A    between atoms: C_20  and  C_21 
REMARK    6  A    between atoms: C_21  and  O_22 
ROOT
HETATM    1  C   UNL     1     -43.475 -52.511  12.879  1.00  0.00     0.047 C 
HETATM    2  C   UNL     1     -42.371 -52.765  12.085  1.00  0.00     0.022 C 
HETATM    3  C   UNL     1     -41.277 -51.914  12.158  1.00  0.00     0.049 C 
HETATM    4  C   UNL     1     -41.321 -50.770  12.957  1.00  0.00     0.103 C 
HETATM    5  N   UNL     1     -42.443 -50.436  13.621  1.00  0.00    -0.351 N 
ATOM      6  HN  UNL     1     -42.509 -49.559  14.139  1.00  0.00     0.166 HD
HETATM    7  C   UNL     1     -43.488 -51.311  13.579  1.00  0.00     0.106 C 
ENDROOT
BRANCH   4   8
HETATM    8  N   UNL     1     -40.200 -49.981  13.046  1.00  0.00    -0.365 N 
HETATM    9  C   UNL     1     -39.827 -49.049  12.001  1.00  0.00     0.124 C 
HETATM   10  C   UNL     1     -38.334 -49.285  11.716  1.00  0.00     0.022 C 
HETATM   11  C   UNL     1     -37.473 -49.240  12.993  1.00  0.00     0.035 C 
HETATM   12  C   UNL     1     -38.021 -50.158  14.105  1.00  0.00     0.139 C 
HETATM   13  C   UNL     1     -39.512 -49.833  14.316  1.00  0.00     0.156 C 
BRANCH  12  14
HETATM   14  O   UNL     1     -37.243 -49.970  15.300  1.00  0.00    -0.382 OA
BRANCH  14  15
HETATM   15  C   UNL     1     -36.875 -48.594  15.509  1.00  0.00     0.194 C 
BRANCH  15  16
HETATM   16  C   UNL     1     -35.739 -48.514  16.522  1.00  0.00     0.190 C 
BRANCH  16  17
HETATM   17  O   UNL     1     -34.801 -49.560  16.279  1.00  0.00    -0.399 OA
HETATM   18  H   UNL     1     -35.222 -50.134  15.610  1.00  0.00     0.209 HD
ENDBRANCH  16  17
ENDBRANCH  15  16
ENDBRANCH  14  15
ENDBRANCH  12  14
ENDBRANCH   4   8
BRANCH   1  19
HETATM   19  C   UNL     1     -44.631 -53.430  12.961  1.00  0.00     0.254 C 
HETATM   20  N   UNL     1     -44.598 -54.528  13.836  1.00  0.00    -0.357 N 
HETATM   21  C   UNL     1     -45.757 -55.403  13.824  1.00  0.00     0.152 C 
HETATM   22  C   UNL     1     -43.598 -54.767  14.871  1.00  0.00     0.152 C 
HETATM   23  O   UNL     1     -45.604 -53.183  12.253  1.00  0.00    -0.267 OA
ENDBRANCH   1  19
TORSDOF 6
ENDMDL
MODEL 8
REMARK VINA RESULT:      -5.1      5.320      7.818
REMARK  6 active torsions:
REMARK  status: ('A' for Active; 'I' for Inactive)
REMARK       I    between atoms: N_2  and  C_4 
REMARK    1  A    between atoms: C_4  and  C_6 
REMARK    2  A    between atoms: C_9  and  N_13 
REMARK    3  A    between atoms: C_17  and  O_19 
REMARK    4  A    between atoms: O_19  and  C_20 
REMARK    5  A    between atoms: C_20  and  C_21 
REMARK    6  A    between atoms: C_21  and  O_22 
ROOT
HETATM    1  C   UNL     1     -47.331 -50.584  17.556  1.00  0.00     0.047 C 
HETATM    2  C   UNL     1     -47.983 -51.171  16.486  1.00  0.00     0.022 C 
HETATM    3  C   UNL     1     -47.231 -51.745  15.470  1.00  0.00     0.049 C 
HETATM    4  C   UNL     1     -45.838 -51.657  15.483  1.00  0.00     0.103 C 
HETATM    5  N   UNL     1     -45.200 -50.963  16.444  1.00  0.00    -0.351 N 
ATOM      6  HN  UNL     1     -44.190 -50.825  16.413  1.00  0.00     0.166 HD
HETATM    7  C   UNL     1     -45.951 -50.451  17.461  1.00  0.00     0.106 C 
ENDROOT
BRANCH   4   8
HETATM    8  N   UNL     1     -45.126 -52.283  14.489  1.00  0.00    -0.365 N 
HETATM    9  C   UNL     1     -45.741 -53.222  13.573  1.00  0.00     0.124 C 
HETATM   10  C   UNL     1     -44.828 -54.460  13.535  1.00  0.00     0.022 C 
HETATM   11  C   UNL     1     -43.358 -54.103  13.243  1.00  0.00     0.035 C 
HETATM   12  C   UNL     1     -42.825 -52.995  14.174  1.00  0.00     0.139 C 
HETATM   13  C   UNL     1     -43.803 -51.805  14.129  1.00  0.00     0.156 C 
BRANCH  12  14
HETATM   14  O   UNL     1     -41.496 -52.630  13.763  1.00  0.00    -0.382 OA
BRANCH  14  15
HETATM   15  C   UNL     1     -40.796 -53.715  13.128  1.00  0.00     0.194 C 
BRANCH  15  16
HETATM   16  C   UNL     1     -39.750 -54.279  14.081  1.00  0.00     0.190 C 
BRANCH  16  17
HETATM   17  O   UNL     1     -38.664 -54.827  13.336  1.00  0.00    -0.399 OA
HETATM   18  H   UNL     1     -38.029 -54.092  13.229  1.00  0.00     0.209 HD
ENDBRANCH  16  17
ENDBRANCH  15  16
ENDBRANCH  14  15
ENDBRANCH  12  14
ENDBRANCH   4   8
BRANCH   1  19
HETATM   19  C   UNL     1     -48.046 -50.062  18.741  1.00  0.00     0.254 C 
HETATM   20  N   UNL     1     -48.505 -50.944  19.733  1.00  0.00    -0.357 N 
HETATM   21  C   UNL     1     -49.232 -50.352  20.842  1.00  0.00     0.152 C 
HETATM   22  C   UNL     1     -48.166 -52.359  19.842  1.00  0.00     0.152 C 
HETATM   23  O   UNL     1     -48.203 -48.846  18.819  1.00  0.00    -0.267 OA
ENDBRANCH   1  19
TORSDOF 6
ENDMDL
MODEL 9
REMARK VINA RESULT:      -5.0      5.694      8.211
REMARK  6 active torsions:
REMARK  status: ('A' for Active; 'I' for Inactive)
REMARK       I    between atoms: N_2  and  C_4 
REMARK    1  A    between atoms: C_4  and  C_6 
REMARK    2  A    between atoms: C_9  and  N_13 
REMARK    3  A    between atoms: C_17  and  O_19 
REMARK    4  A    between atoms: O_19  and  C_20 
REMARK    5  A    between atoms: C_20  and  C_21 
REMARK    6  A    between atoms: C_21  and  O_22 
ROOT
HETATM    1  C   UNL     1     -38.540 -56.872  17.836  1.00  0.00     0.047 C 
HETATM    2  C   UNL     1     -37.975 -56.169  16.787  1.00  0.00     0.022 C 
HETATM    3  C   UNL     1     -38.794 -55.397  15.974  1.00  0.00     0.049 C 
HETATM    4  C   UNL     1     -40.176 -55.396  16.158  1.00  0.00     0.103 C 
HETATM    5  N   UNL     1     -40.750 -56.188  17.083  1.00  0.00    -0.351 N 
ATOM      6  HN  UNL     1     -41.765 -56.254  17.165  1.00  0.00     0.166 HD
HETATM    7  C   UNL     1     -39.927 -56.899  17.906  1.00  0.00     0.106 C 
ENDROOT
BRANCH   4   8
HETATM    8  N   UNL     1     -40.948 -54.578  15.369  1.00  0.00    -0.365 N 
HETATM    9  C   UNL     1     -42.364 -54.386  15.608  1.00  0.00     0.124 C 
HETATM   10  C   UNL     1     -43.067 -54.569  14.253  1.00  0.00     0.022 C 
HETATM   11  C   UNL     1     -42.451 -53.696  13.143  1.00  0.00     0.035 C 
HETATM   12  C   UNL     1     -40.920 -53.857  13.049  1.00  0.00     0.139 C 
HETATM   13  C   UNL     1     -40.319 -53.645  14.451  1.00  0.00     0.156 C 
BRANCH  12  14
HETATM   14  O   UNL     1     -40.404 -52.925  12.082  1.00  0.00    -0.382 OA
BRANCH  14  15
HETATM   15  C   UNL     1     -41.259 -51.781  11.908  1.00  0.00     0.194 C 
BRANCH  15  16
HETATM   16  C   UNL     1     -40.410 -50.526  11.744  1.00  0.00     0.190 C 
BRANCH  16  17
HETATM   17  O   UNL     1     -40.403 -50.122  10.377  1.00  0.00    -0.399 OA
HETATM   18  H   UNL     1     -39.590 -49.590  10.270  1.00  0.00     0.209 HD
ENDBRANCH  16  17
ENDBRANCH  15  16
ENDBRANCH  14  15
ENDBRANCH  12  14
ENDBRANCH   4   8
BRANCH   1  19
HETATM   19  C   UNL     1     -37.733 -57.617  18.828  1.00  0.00     0.254 C 
HETATM   20  N   UNL     1     -37.956 -58.988  19.032  1.00  0.00    -0.357 N 
HETATM   21  C   UNL     1     -37.148 -59.632  20.053  1.00  0.00     0.152 C 
HETATM   22  C   UNL     1     -38.786 -59.852  18.199  1.00  0.00     0.152 C 
HETATM   23  O   UNL     1     -36.870 -56.993  19.439  1.00  0.00    -0.267 OA
ENDBRANCH   1  19
TORSDOF 6
ENDMDL
