MODEL 1
REMARK VINA RESULT:      -6.3      0.000      0.000
REMARK  4 active torsions:
REMARK  status: ('A' for Active; 'I' for Inactive)
REMARK    1  A    between atoms: O_2  and  C_3 
REMARK    2  A    between atoms: C_6  and  N_7 
REMARK       I    between atoms: N_7  and  C_8 
REMARK       I    between atoms: C_8  and  N_10 
REMARK    3  A    between atoms: N_10  and  C_11 
REMARK    4  A    between atoms: C_11  and  C_12 
ROOT
HETATM    1  N   UNL     1     -41.838 -49.369  10.979  1.00  0.00    -0.308 N 
HETATM    2  C   UNL     1     -42.031 -49.986  12.194  1.00  0.00     0.320 C 
HETATM    3  O   UNL     1     -41.997 -49.437  13.286  1.00  0.00    -0.247 OA
HETATM    4  N   UNL     1     -42.233 -51.351  12.084  1.00  0.00    -0.342 N 
HETATM    5  H   UNL     1     -42.087 -49.882  10.148  1.00  0.00     0.170 HD
HETATM    6  H   UNL     1     -42.695 -51.670  11.247  1.00  0.00     0.164 HD
ENDROOT
BRANCH   1   7
HETATM    7  C   UNL     1     -41.441 -48.017  10.820  1.00  0.00     0.051 A 
HETATM    8  C   UNL     1     -40.277 -47.493  11.383  1.00  0.00     0.035 A 
HETATM    9  C   UNL     1     -39.941 -46.156  11.178  1.00  0.00     0.058 A 
HETATM   10  C   UNL     1     -40.777 -45.377  10.404  1.00  0.00     0.141 A 
HETATM   11  N   UNL     1     -41.909 -45.838   9.830  1.00  0.00    -0.345 N 
HETATM   12  C   UNL     1     -42.210 -47.145  10.049  1.00  0.00     0.119 A 
ATOM     13  HN  UNL     1     -42.507 -45.238   9.262  1.00  0.00     0.167 HD
BRANCH  10  14
HETATM   14  O   UNL     1     -40.380 -44.068  10.229  1.00  0.00    -0.341 OA
HETATM   15  C   UNL     1     -40.440 -43.298  11.421  1.00  0.00     0.211 C 
ENDBRANCH  10  14
ENDBRANCH   1   7
BRANCH   4  16
HETATM   16  C   UNL     1     -42.489 -52.080  13.313  1.00  0.00     0.130 C 
BRANCH  16  17
HETATM   17  C   UNL     1     -43.707 -52.995  13.249  1.00  0.00     0.018 C 
HETATM   18  C   UNL     1     -45.000 -52.155  13.140  1.00  0.00     0.022 C 
HETATM   19  C   UNL     1     -46.182 -52.914  13.740  1.00  0.00     0.141 C 
HETATM   20  S   UNL     1     -45.538 -54.406  14.457  1.00  0.00     0.144 S 
HETATM   21  O   UNL     1     -46.029 -54.544  15.811  1.00  0.00    -0.228 OA
HETATM   22  O   UNL     1     -45.649 -55.468  13.477  1.00  0.00    -0.228 OA
HETATM   23  C   UNL     1     -43.849 -53.862  14.498  1.00  0.00     0.146 C 
ENDBRANCH  16  17
ENDBRANCH   4  16
TORSDOF 4
ENDMDL
MODEL 2
REMARK VINA RESULT:      -6.3      2.954      8.363
REMARK  4 active torsions:
REMARK  status: ('A' for Active; 'I' for Inactive)
REMARK    1  A    between atoms: O_2  and  C_3 
REMARK    2  A    between atoms: C_6  and  N_7 
REMARK       I    between atoms: N_7  and  C_8 
REMARK       I    between atoms: C_8  and  N_10 
REMARK    3  A    between atoms: N_10  and  C_11 
REMARK    4  A    between atoms: C_11  and  C_12 
ROOT
HETATM    1  N   UNL     1     -42.196 -52.335  11.752  1.00  0.00    -0.308 N 
HETATM    2  C   UNL     1     -41.462 -51.221  12.087  1.00  0.00     0.320 C 
HETATM    3  O   UNL     1     -41.363 -50.742  13.208  1.00  0.00    -0.247 OA
HETATM    4  N   UNL     1     -40.847 -50.627  10.997  1.00  0.00    -0.342 N 
HETATM    5  H   UNL     1     -42.039 -52.745  10.844  1.00  0.00     0.170 HD
HETATM    6  H   UNL     1     -40.568 -51.243  10.250  1.00  0.00     0.164 HD
ENDROOT
BRANCH   1   7
HETATM    7  C   UNL     1     -43.059 -53.025  12.641  1.00  0.00     0.051 A 
HETATM    8  C   UNL     1     -42.615 -54.014  13.519  1.00  0.00     0.035 A 
HETATM    9  C   UNL     1     -43.517 -54.645  14.375  1.00  0.00     0.058 A 
HETATM   10  C   UNL     1     -44.842 -54.261  14.336  1.00  0.00     0.141 A 
HETATM   11  N   UNL     1     -45.319 -53.303  13.512  1.00  0.00    -0.345 N 
HETATM   12  C   UNL     1     -44.416 -52.708  12.690  1.00  0.00     0.119 A 
ATOM     13  HN  UNL     1     -46.305 -53.041  13.507  1.00  0.00     0.167 HD
BRANCH  10  14
HETATM   14  O   UNL     1     -45.679 -54.914  15.217  1.00  0.00    -0.341 OA
HETATM   15  C   UNL     1     -46.007 -54.139  16.361  1.00  0.00     0.211 C 
ENDBRANCH  10  14
ENDBRANCH   1   7
BRANCH   4  16
HETATM   16  C   UNL     1     -40.013 -49.469  11.262  1.00  0.00     0.130 C 
BRANCH  16  17
HETATM   17  C   UNL     1     -40.791 -48.166  11.409  1.00  0.00     0.018 C 
HETATM   18  C   UNL     1     -41.899 -48.083  10.335  1.00  0.00     0.022 C 
HETATM   19  C   UNL     1     -42.214 -46.624  10.004  1.00  0.00     0.141 C 
HETATM   20  S   UNL     1     -41.053 -45.622  10.899  1.00  0.00     0.144 S 
HETATM   21  O   UNL     1     -40.443 -44.667   9.999  1.00  0.00    -0.228 OA
HETATM   22  O   UNL     1     -41.661 -45.229  12.154  1.00  0.00    -0.228 OA
HETATM   23  C   UNL     1     -39.905 -46.935  11.225  1.00  0.00     0.146 C 
ENDBRANCH  16  17
ENDBRANCH   4  16
TORSDOF 4
ENDMDL
MODEL 3
REMARK VINA RESULT:      -6.1      1.667      2.223
REMARK  4 active torsions:
REMARK  status: ('A' for Active; 'I' for Inactive)
REMARK    1  A    between atoms: O_2  and  C_3 
REMARK    2  A    between atoms: C_6  and  N_7 
REMARK       I    between atoms: N_7  and  C_8 
REMARK       I    between atoms: C_8  and  N_10 
REMARK    3  A    between atoms: N_10  and  C_11 
REMARK    4  A    between atoms: C_11  and  C_12 
ROOT
HETATM    1  N   UNL     1     -41.367 -48.794  10.608  1.00  0.00    -0.308 N 
HETATM    2  C   UNL     1     -41.005 -49.615  11.652  1.00  0.00     0.320 C 
HETATM    3  O   UNL     1     -40.810 -49.258  12.805  1.00  0.00    -0.247 OA
HETATM    4  N   UNL     1     -40.831 -50.934  11.270  1.00  0.00    -0.342 N 
HETATM    5  H   UNL     1     -41.693 -49.231   9.760  1.00  0.00     0.170 HD
HETATM    6  H   UNL     1     -41.408 -51.262  10.512  1.00  0.00     0.164 HD
ENDROOT
BRANCH   1   7
HETATM    7  C   UNL     1     -41.440 -47.380  10.687  1.00  0.00     0.051 A 
HETATM    8  C   UNL     1     -40.314 -46.564  10.798  1.00  0.00     0.035 A 
HETATM    9  C   UNL     1     -40.458 -45.179  10.861  1.00  0.00     0.058 A 
HETATM   10  C   UNL     1     -41.730 -44.645  10.802  1.00  0.00     0.141 A 
HETATM   11  N   UNL     1     -42.850 -45.391  10.686  1.00  0.00    -0.345 N 
HETATM   12  C   UNL     1     -42.676 -46.737  10.628  1.00  0.00     0.119 A 
ATOM     13  HN  UNL     1     -43.776 -44.966  10.645  1.00  0.00     0.167 HD
BRANCH  10  14
HETATM   14  O   UNL     1     -41.802 -43.268  10.856  1.00  0.00    -0.341 OA
HETATM   15  C   UNL     1     -43.127 -42.779  10.998  1.00  0.00     0.211 C 
ENDBRANCH  10  14
ENDBRANCH   1   7
BRANCH   4  16
HETATM   16  C   UNL     1     -40.491 -51.882  12.316  1.00  0.00     0.130 C 
BRANCH  16  17
HETATM   17  C   UNL     1     -41.682 -52.335  13.153  1.00  0.00     0.018 C 
HETATM   18  C   UNL     1     -41.362 -53.672  13.857  1.00  0.00     0.022 C 
HETATM   19  C   UNL     1     -42.644 -54.465  14.108  1.00  0.00     0.141 C 
HETATM   20  S   UNL     1     -43.972 -53.569  13.340  1.00  0.00     0.144 S 
HETATM   21  O   UNL     1     -44.747 -54.468  12.513  1.00  0.00    -0.228 OA
HETATM   22  O   UNL     1     -44.580 -52.710  14.337  1.00  0.00    -0.228 OA
HETATM   23  C   UNL     1     -42.932 -52.571  12.307  1.00  0.00     0.146 C 
ENDBRANCH  16  17
ENDBRANCH   4  16
TORSDOF 4
ENDMDL
MODEL 4
REMARK VINA RESULT:      -6.1      1.486      1.617
REMARK  4 active torsions:
REMARK  status: ('A' for Active; 'I' for Inactive)
REMARK    1  A    between atoms: O_2  and  C_3 
REMARK    2  A    between atoms: C_6  and  N_7 
REMARK       I    between atoms: N_7  and  C_8 
REMARK       I    between atoms: C_8  and  N_10 
REMARK    3  A    between atoms: N_10  and  C_11 
REMARK    4  A    between atoms: C_11  and  C_12 
ROOT
HETATM    1  N   UNL     1     -42.912 -49.363  11.639  1.00  0.00    -0.308 N 
HETATM    2  C   UNL     1     -42.031 -50.285  12.156  1.00  0.00     0.320 C 
HETATM    3  O   UNL     1     -40.913 -50.040  12.587  1.00  0.00    -0.247 OA
HETATM    4  N   UNL     1     -42.513 -51.582  12.111  1.00  0.00    -0.342 N 
HETATM    5  H   UNL     1     -43.868 -49.652  11.505  1.00  0.00     0.170 HD
HETATM    6  H   UNL     1     -43.511 -51.693  12.199  1.00  0.00     0.164 HD
ENDROOT
BRANCH   1   7
HETATM    7  C   UNL     1     -42.602 -47.999  11.408  1.00  0.00     0.051 A 
HETATM    8  C   UNL     1     -42.838 -46.994  12.346  1.00  0.00     0.035 A 
HETATM    9  C   UNL     1     -42.499 -45.673  12.056  1.00  0.00     0.058 A 
HETATM   10  C   UNL     1     -41.919 -45.394  10.834  1.00  0.00     0.141 A 
HETATM   11  N   UNL     1     -41.662 -46.331   9.897  1.00  0.00    -0.345 N 
HETATM   12  C   UNL     1     -42.005 -47.608  10.209  1.00  0.00     0.119 A 
ATOM     13  HN  UNL     1     -41.233 -46.093   9.003  1.00  0.00     0.167 HD
BRANCH  10  14
HETATM   14  O   UNL     1     -41.596 -44.071  10.616  1.00  0.00    -0.341 OA
HETATM   15  C   UNL     1     -40.267 -43.746  11.001  1.00  0.00     0.211 C 
ENDBRANCH  10  14
ENDBRANCH   1   7
BRANCH   4  16
HETATM   16  C   UNL     1     -41.668 -52.619  12.676  1.00  0.00     0.130 C 
BRANCH  16  17
HETATM   17  C   UNL     1     -42.440 -53.781  13.291  1.00  0.00     0.018 C 
HETATM   18  C   UNL     1     -43.836 -53.898  12.639  1.00  0.00     0.022 C 
HETATM   19  C   UNL     1     -44.830 -54.525  13.615  1.00  0.00     0.141 C 
HETATM   20  S   UNL     1     -43.987 -54.725  15.166  1.00  0.00     0.144 S 
HETATM   21  O   UNL     1     -44.796 -54.173  16.232  1.00  0.00    -0.228 OA
HETATM   22  O   UNL     1     -43.440 -56.066  15.219  1.00  0.00    -0.228 OA
HETATM   23  C   UNL     1     -42.666 -53.601  14.790  1.00  0.00     0.146 C 
ENDBRANCH  16  17
ENDBRANCH   4  16
TORSDOF 4
ENDMDL
MODEL 5
REMARK VINA RESULT:      -6.1      2.460      2.989
REMARK  4 active torsions:
REMARK  status: ('A' for Active; 'I' for Inactive)
REMARK    1  A    between atoms: O_2  and  C_3 
REMARK    2  A    between atoms: C_6  and  N_7 
REMARK       I    between atoms: N_7  and  C_8 
REMARK       I    between atoms: C_8  and  N_10 
REMARK    3  A    between atoms: N_10  and  C_11 
REMARK    4  A    between atoms: C_11  and  C_12 
ROOT
HETATM    1  N   UNL     1     -41.727 -50.829  13.130  1.00  0.00    -0.308 N 
HETATM    2  C   UNL     1     -42.193 -52.119  13.016  1.00  0.00     0.320 C 
HETATM    3  O   UNL     1     -42.802 -52.575  12.059  1.00  0.00    -0.247 OA
HETATM    4  N   UNL     1     -41.944 -52.888  14.141  1.00  0.00    -0.342 N 
HETATM    5  H   UNL     1     -41.072 -50.631  13.870  1.00  0.00     0.170 HD
HETATM    6  H   UNL     1     -41.108 -52.668  14.658  1.00  0.00     0.164 HD
ENDROOT
BRANCH   1   7
HETATM    7  C   UNL     1     -42.000 -49.793  12.202  1.00  0.00     0.051 A 
HETATM    8  C   UNL     1     -43.086 -48.926  12.324  1.00  0.00     0.035 A 
HETATM    9  C   UNL     1     -43.289 -47.922  11.379  1.00  0.00     0.058 A 
HETATM   10  C   UNL     1     -42.391 -47.804  10.338  1.00  0.00     0.141 A 
HETATM   11  N   UNL     1     -41.319 -48.611  10.180  1.00  0.00    -0.345 N 
HETATM   12  C   UNL     1     -41.149 -49.580  11.117  1.00  0.00     0.119 A 
ATOM     13  HN  UNL     1     -40.673 -48.498   9.400  1.00  0.00     0.167 HD
BRANCH  10  14
HETATM   14  O   UNL     1     -42.641 -46.782   9.446  1.00  0.00    -0.341 OA
HETATM   15  C   UNL     1     -43.522 -47.155   8.396  1.00  0.00     0.211 C 
ENDBRANCH  10  14
ENDBRANCH   1   7
BRANCH   4  16
HETATM   16  C   UNL     1     -42.362 -54.278  14.093  1.00  0.00     0.130 C 
BRANCH  16  17
HETATM   17  C   UNL     1     -43.628 -54.572  14.889  1.00  0.00     0.018 C 
HETATM   18  C   UNL     1     -44.797 -54.894  13.930  1.00  0.00     0.022 C 
HETATM   19  C   UNL     1     -46.133 -54.526  14.574  1.00  0.00     0.141 C 
HETATM   20  S   UNL     1     -45.768 -53.732  16.120  1.00  0.00     0.144 S 
HETATM   21  O   UNL     1     -46.503 -52.489  16.212  1.00  0.00    -0.228 OA
HETATM   22  O   UNL     1     -45.801 -54.734  17.167  1.00  0.00    -0.228 OA
HETATM   23  C   UNL     1     -44.071 -53.383  15.739  1.00  0.00     0.146 C 
ENDBRANCH  16  17
ENDBRANCH   4  16
TORSDOF 4
ENDMDL
MODEL 6
REMARK VINA RESULT:      -5.8      3.271      8.464
REMARK  4 active torsions:
REMARK  status: ('A' for Active; 'I' for Inactive)
REMARK    1  A    between atoms: O_2  and  C_3 
REMARK    2  A    between atoms: C_6  and  N_7 
REMARK       I    between atoms: N_7  and  C_8 
REMARK       I    between atoms: C_8  and  N_10 
REMARK    3  A    between atoms: N_10  and  C_11 
REMARK    4  A    between atoms: C_11  and  C_12 
ROOT
HETATM    1  N   UNL     1     -41.454 -50.376  11.280  1.00  0.00    -0.308 N 
HETATM    2  C   UNL     1     -40.819 -49.237  11.722  1.00  0.00     0.320 C 
HETATM    3  O   UNL     1     -40.276 -49.100  12.808  1.00  0.00    -0.247 OA
HETATM    4  N   UNL     1     -40.882 -48.193  10.814  1.00  0.00    -0.342 N 
HETATM    5  H   UNL     1     -41.684 -50.434  10.300  1.00  0.00     0.170 HD
HETATM    6  H   UNL     1     -40.900 -48.447   9.839  1.00  0.00     0.164 HD
ENDROOT
BRANCH   1   7
HETATM    7  C   UNL     1     -41.687 -51.525  12.077  1.00  0.00     0.051 A 
HETATM    8  C   UNL     1     -40.862 -52.650  12.052  1.00  0.00     0.035 A 
HETATM    9  C   UNL     1     -41.144 -53.742  12.870  1.00  0.00     0.058 A 
HETATM   10  C   UNL     1     -42.243 -53.676  13.703  1.00  0.00     0.141 A 
HETATM   11  N   UNL     1     -43.066 -52.608  13.771  1.00  0.00    -0.345 N 
HETATM   12  C   UNL     1     -42.765 -51.560  12.960  1.00  0.00     0.119 A 
ATOM     13  HN  UNL     1     -43.871 -52.589  14.397  1.00  0.00     0.167 HD
BRANCH  10  14
HETATM   14  O   UNL     1     -42.458 -54.784  14.496  1.00  0.00    -0.341 OA
HETATM   15  C   UNL     1     -43.662 -54.713  15.246  1.00  0.00     0.211 C 
ENDBRANCH  10  14
ENDBRANCH   1   7
BRANCH   4  16
HETATM   16  C   UNL     1     -40.200 -46.964  11.177  1.00  0.00     0.130 C 
BRANCH  16  17
HETATM   17  C   UNL     1     -40.943 -45.698  10.764  1.00  0.00     0.018 C 
HETATM   18  C   UNL     1     -40.019 -44.467  10.908  1.00  0.00     0.022 C 
HETATM   19  C   UNL     1     -40.844 -43.209  11.174  1.00  0.00     0.141 C 
HETATM   20  S   UNL     1     -42.536 -43.720  11.355  1.00  0.00     0.144 S 
HETATM   21  O   UNL     1     -43.088 -43.146  12.563  1.00  0.00    -0.228 OA
HETATM   22  O   UNL     1     -43.189 -43.600  10.067  1.00  0.00    -0.228 OA
HETATM   23  C   UNL     1     -42.170 -45.433  11.634  1.00  0.00     0.146 C 
ENDBRANCH  16  17
ENDBRANCH   4  16
TORSDOF 4
ENDMDL
MODEL 7
REMARK VINA RESULT:      -5.6      3.947      8.419
REMARK  4 active torsions:
REMARK  status: ('A' for Active; 'I' for Inactive)
REMARK    1  A    between atoms: O_2  and  C_3 
REMARK    2  A    between atoms: C_6  and  N_7 
REMARK       I    between atoms: N_7  and  C_8 
REMARK       I    between atoms: C_8  and  N_10 
REMARK    3  A    between atoms: N_10  and  C_11 
REMARK    4  A    between atoms: C_11  and  C_12 
ROOT
HETATM    1  N   UNL     1     -40.060 -50.901  11.659  1.00  0.00    -0.308 N 
HETATM    2  C   UNL     1     -41.042 -49.938  11.636  1.00  0.00     0.320 C 
HETATM    3  O   UNL     1     -41.921 -49.795  12.474  1.00  0.00    -0.247 OA
HETATM    4  N   UNL     1     -40.982 -49.128  10.514  1.00  0.00    -0.342 N 
HETATM    5  H   UNL     1     -39.282 -50.793  11.027  1.00  0.00     0.170 HD
HETATM    6  H   UNL     1     -40.066 -48.963  10.129  1.00  0.00     0.164 HD
ENDROOT
BRANCH   1   7
HETATM    7  C   UNL     1     -39.998 -51.962  12.599  1.00  0.00     0.051 A 
HETATM    8  C   UNL     1     -39.147 -51.952  13.703  1.00  0.00     0.035 A 
HETATM    9  C   UNL     1     -39.145 -53.024  14.594  1.00  0.00     0.058 A 
HETATM   10  C   UNL     1     -40.007 -54.077  14.360  1.00  0.00     0.141 A 
HETATM   11  N   UNL     1     -40.856 -54.130  13.312  1.00  0.00    -0.345 N 
HETATM   12  C   UNL     1     -40.833 -53.070  12.461  1.00  0.00     0.119 A 
ATOM     13  HN  UNL     1     -41.481 -54.922  13.166  1.00  0.00     0.167 HD
BRANCH  10  14
HETATM   14  O   UNL     1     -39.965 -55.099  15.286  1.00  0.00    -0.341 OA
HETATM   15  C   UNL     1     -38.667 -55.324  15.818  1.00  0.00     0.211 C 
ENDBRANCH  10  14
ENDBRANCH   1   7
BRANCH   4  16
HETATM   16  C   UNL     1     -41.954 -48.053  10.425  1.00  0.00     0.130 C 
BRANCH  16  17
HETATM   17  C   UNL     1     -41.365 -46.665  10.650  1.00  0.00     0.018 C 
HETATM   18  C   UNL     1     -40.823 -46.543  12.092  1.00  0.00     0.022 C 
HETATM   19  C   UNL     1     -40.870 -45.089  12.559  1.00  0.00     0.141 C 
HETATM   20  S   UNL     1     -41.678 -44.154  11.282  1.00  0.00     0.144 S 
HETATM   21  O   UNL     1     -42.726 -43.344  11.864  1.00  0.00    -0.228 OA
HETATM   22  O   UNL     1     -40.662 -43.601  10.409  1.00  0.00    -0.228 OA
HETATM   23  C   UNL     1     -42.402 -45.557  10.473  1.00  0.00     0.146 C 
ENDBRANCH  16  17
ENDBRANCH   4  16
TORSDOF 4
ENDMDL
MODEL 8
REMARK VINA RESULT:      -5.6      2.248      3.074
REMARK  4 active torsions:
REMARK  status: ('A' for Active; 'I' for Inactive)
REMARK    1  A    between atoms: O_2  and  C_3 
REMARK    2  A    between atoms: C_6  and  N_7 
REMARK       I    between atoms: N_7  and  C_8 
REMARK       I    between atoms: C_8  and  N_10 
REMARK    3  A    between atoms: N_10  and  C_11 
REMARK    4  A    between atoms: C_11  and  C_12 
ROOT
HETATM    1  N   UNL     1     -41.150 -47.127  10.363  1.00  0.00    -0.308 N 
HETATM    2  C   UNL     1     -40.788 -48.101  11.265  1.00  0.00     0.320 C 
HETATM    3  O   UNL     1     -40.523 -47.918  12.444  1.00  0.00    -0.247 OA
HETATM    4  N   UNL     1     -40.701 -49.361  10.697  1.00  0.00    -0.342 N 
HETATM    5  H   UNL     1     -41.535 -47.425   9.481  1.00  0.00     0.170 HD
HETATM    6  H   UNL     1     -41.328 -49.552   9.931  1.00  0.00     0.164 HD
ENDROOT
BRANCH   1   7
HETATM    7  C   UNL     1     -41.143 -45.736  10.640  1.00  0.00     0.051 A 
HETATM    8  C   UNL     1     -42.232 -45.064  11.197  1.00  0.00     0.035 A 
HETATM    9  C   UNL     1     -42.153 -43.696  11.452  1.00  0.00     0.058 A 
HETATM   10  C   UNL     1     -40.979 -43.036  11.151  1.00  0.00     0.141 A 
HETATM   11  N   UNL     1     -39.895 -43.641  10.620  1.00  0.00    -0.345 N 
HETATM   12  C   UNL     1     -40.003 -44.975  10.382  1.00  0.00     0.119 A 
ATOM     13  HN  UNL     1     -39.041 -43.125  10.408  1.00  0.00     0.167 HD
BRANCH  10  14
HETATM   14  O   UNL     1     -40.962 -41.687  11.441  1.00  0.00    -0.341 OA
HETATM   15  C   UNL     1     -42.148 -41.012  11.044  1.00  0.00     0.211 C 
ENDBRANCH  10  14
ENDBRANCH   1   7
BRANCH   4  16
HETATM   16  C   UNL     1     -40.368 -50.461  11.584  1.00  0.00     0.130 C 
BRANCH  16  17
HETATM   17  C   UNL     1     -41.575 -51.265  12.056  1.00  0.00     0.018 C 
HETATM   18  C   UNL     1     -41.977 -50.834  13.484  1.00  0.00     0.022 C 
HETATM   19  C   UNL     1     -42.659 -51.988  14.218  1.00  0.00     0.141 C 
HETATM   20  S   UNL     1     -42.569 -53.409  13.157  1.00  0.00     0.144 S 
HETATM   21  O   UNL     1     -42.055 -54.538  13.902  1.00  0.00    -0.228 OA
HETATM   22  O   UNL     1     -43.794 -53.480  12.384  1.00  0.00    -0.228 OA
HETATM   23  C   UNL     1     -41.289 -52.764  12.111  1.00  0.00     0.146 C 
ENDBRANCH  16  17
ENDBRANCH   4  16
TORSDOF 4
ENDMDL
MODEL 9
REMARK VINA RESULT:      -5.4      3.740      8.499
REMARK  4 active torsions:
REMARK  status: ('A' for Active; 'I' for Inactive)
REMARK    1  A    between atoms: O_2  and  C_3 
REMARK    2  A    between atoms: C_6  and  N_7 
REMARK       I    between atoms: N_7  and  C_8 
REMARK       I    between atoms: C_8  and  N_10 
REMARK    3  A    between atoms: N_10  and  C_11 
REMARK    4  A    between atoms: C_11  and  C_12 
ROOT
HETATM    1  N   UNL     1     -41.018 -47.752  10.487  1.00  0.00    -0.308 N 
HETATM    2  C   UNL     1     -40.429 -46.620  11.003  1.00  0.00     0.320 C 
HETATM    3  O   UNL     1     -39.827 -46.550  12.065  1.00  0.00    -0.247 OA
HETATM    4  N   UNL     1     -40.615 -45.501  10.208  1.00  0.00    -0.342 N 
HETATM    5  H   UNL     1     -41.305 -47.732   9.522  1.00  0.00     0.170 HD
HETATM    6  H   UNL     1     -40.679 -45.662   9.216  1.00  0.00     0.164 HD
ENDROOT
BRANCH   1   7
HETATM    7  C   UNL     1     -41.127 -48.985  11.179  1.00  0.00     0.051 A 
HETATM    8  C   UNL     1     -42.233 -49.328  11.957  1.00  0.00     0.035 A 
HETATM    9  C   UNL     1     -42.279 -50.562  12.602  1.00  0.00     0.058 A 
HETATM   10  C   UNL     1     -41.217 -51.430  12.442  1.00  0.00     0.141 A 
HETATM   11  N   UNL     1     -40.128 -51.149  11.694  1.00  0.00    -0.345 N 
HETATM   12  C   UNL     1     -40.113 -49.938  11.079  1.00  0.00     0.119 A 
ATOM     13  HN  UNL     1     -39.359 -51.812  11.596  1.00  0.00     0.167 HD
BRANCH  10  14
HETATM   14  O   UNL     1     -41.331 -52.640  13.096  1.00  0.00    -0.341 OA
HETATM   15  C   UNL     1     -42.537 -52.767  13.835  1.00  0.00     0.211 C 
ENDBRANCH  10  14
ENDBRANCH   1   7
BRANCH   4  16
HETATM   16  C   UNL     1     -39.990 -44.268  10.652  1.00  0.00     0.130 C 
BRANCH  16  17
HETATM   17  C   UNL     1     -40.978 -43.203  11.114  1.00  0.00     0.018 C 
HETATM   18  C   UNL     1     -40.294 -42.237  12.107  1.00  0.00     0.022 C 
HETATM   19  C   UNL     1     -41.324 -41.640  13.066  1.00  0.00     0.141 C 
HETATM   20  S   UNL     1     -42.877 -42.433  12.727  1.00  0.00     0.144 S 
HETATM   21  O   UNL     1     -43.457 -42.910  13.963  1.00  0.00    -0.228 OA
HETATM   22  O   UNL     1     -43.614 -41.611  11.788  1.00  0.00    -0.228 OA
HETATM   23  C   UNL     1     -42.181 -43.802  11.839  1.00  0.00     0.146 C 
ENDBRANCH  16  17
ENDBRANCH   4  16
TORSDOF 4
ENDMDL
