MODEL 1
REMARK VINA RESULT:      -5.8      0.000      0.000
REMARK  5 active torsions:
REMARK  status: ('A' for Active; 'I' for Inactive)
REMARK    1  A    between atoms: C_2  and  C_5 
REMARK    2  A    between atoms: C_5  and  C_6 
REMARK       I    between atoms: C_6  and  N_8 
REMARK    3  A    between atoms: N_8  and  C_9 
REMARK    4  A    between atoms: C_12  and  C_13 
REMARK    5  A    between atoms: C_13  and  C_14 
REMARK       I    between atoms: C_14  and  N_16 
ROOT
HETATM    1  C   UNL     1     -41.527 -48.236  10.462  1.00  0.00     0.151 A 
HETATM    2  N   UNL     1     -42.698 -48.289   9.888  1.00  0.00    -0.339 N 
ATOM      3  HN  UNL     1     -43.144 -49.142   9.549  1.00  0.00     0.168 HD
HETATM    4  C   UNL     1     -43.251 -47.017   9.804  1.00  0.00     0.026 A 
HETATM    5  C   UNL     1     -42.439 -46.018  10.314  1.00  0.00     0.078 A 
HETATM    6  S   UNL     1     -41.010 -46.699  10.984  1.00  0.00    -0.064 SA
ENDROOT
BRANCH   1   7
HETATM    7  N   UNL     1     -40.662 -49.260  10.738  1.00  0.00    -0.307 N 
HETATM    8  C   UNL     1     -40.656 -49.875  11.970  1.00  0.00     0.224 C 
HETATM    9  O   UNL     1     -41.476 -49.716  12.868  1.00  0.00    -0.273 OA
HETATM   10  H   UNL     1     -40.102 -49.606   9.975  1.00  0.00     0.171 HD
BRANCH   8  11
HETATM   11  C   UNL     1     -39.488 -50.831  12.164  1.00  0.00     0.111 C 
BRANCH  11  12
HETATM   12  C   UNL     1     -38.137 -50.124  12.432  1.00  0.00    -0.043 C 
HETATM   13  C   UNL     1     -38.338 -48.748  13.093  1.00  0.00     0.015 C 
HETATM   14  C   UNL     1     -37.340 -49.949  11.129  1.00  0.00     0.015 C 
HETATM   15  C   UNL     1     -37.314 -51.000  13.398  1.00  0.00     0.015 C 
ENDBRANCH  11  12
ENDBRANCH   8  11
ENDBRANCH   1   7
BRANCH   4  16
HETATM   16  C   UNL     1     -44.590 -46.897   9.152  1.00  0.00     0.160 C 
BRANCH  16  17
HETATM   17  C   UNL     1     -44.839 -47.949   8.090  1.00  0.00     0.221 C 
HETATM   18  O   UNL     1     -44.000 -48.303   7.269  1.00  0.00    -0.273 OA
HETATM   19  N   UNL     1     -46.078 -48.524   8.096  1.00  0.00    -0.370 N 
HETATM   20  H   UNL     1     -46.842 -48.186   8.664  1.00  0.00     0.159 HD
HETATM   21  H   UNL     1     -46.276 -49.207   7.375  1.00  0.00     0.159 HD
ENDBRANCH  16  17
ENDBRANCH   4  16
TORSDOF 5
ENDMDL
MODEL 2
REMARK VINA RESULT:      -5.5      2.555      3.283
REMARK  5 active torsions:
REMARK  status: ('A' for Active; 'I' for Inactive)
REMARK    1  A    between atoms: C_2  and  C_5 
REMARK    2  A    between atoms: C_5  and  C_6 
REMARK       I    between atoms: C_6  and  N_8 
REMARK    3  A    between atoms: N_8  and  C_9 
REMARK    4  A    between atoms: C_12  and  C_13 
REMARK    5  A    between atoms: C_13  and  C_14 
REMARK       I    between atoms: C_14  and  N_16 
ROOT
HETATM    1  C   UNL     1     -40.921 -49.857  11.362  1.00  0.00     0.151 A 
HETATM    2  N   UNL     1     -42.058 -49.352  10.966  1.00  0.00    -0.339 N 
ATOM      3  HN  UNL     1     -42.884 -49.898  10.719  1.00  0.00     0.168 HD
HETATM    4  C   UNL     1     -41.983 -47.966  10.929  1.00  0.00     0.026 A 
HETATM    5  C   UNL     1     -40.745 -47.461  11.288  1.00  0.00     0.078 A 
HETATM    6  S   UNL     1     -39.698 -48.740  11.761  1.00  0.00    -0.064 SA
ENDROOT
BRANCH   1   7
HETATM    7  N   UNL     1     -40.582 -51.171  11.536  1.00  0.00    -0.307 N 
HETATM    8  C   UNL     1     -41.446 -52.055  12.143  1.00  0.00     0.224 C 
HETATM    9  O   UNL     1     -42.618 -51.843  12.438  1.00  0.00    -0.273 OA
HETATM   10  H   UNL     1     -39.720 -51.482  11.117  1.00  0.00     0.171 HD
BRANCH   8  11
HETATM   11  C   UNL     1     -40.816 -53.407  12.446  1.00  0.00     0.111 C 
BRANCH  11  12
HETATM   12  C   UNL     1     -40.534 -53.644  13.950  1.00  0.00    -0.043 C 
HETATM   13  C   UNL     1     -41.720 -54.335  14.647  1.00  0.00     0.015 C 
HETATM   14  C   UNL     1     -40.227 -52.319  14.668  1.00  0.00     0.015 C 
HETATM   15  C   UNL     1     -39.306 -54.567  14.075  1.00  0.00     0.015 C 
ENDBRANCH  11  12
ENDBRANCH   8  11
ENDBRANCH   1   7
BRANCH   4  16
HETATM   16  C   UNL     1     -43.202 -47.229  10.477  1.00  0.00     0.160 C 
BRANCH  16  17
HETATM   17  C   UNL     1     -43.169 -46.855   9.008  1.00  0.00     0.221 C 
HETATM   18  O   UNL     1     -43.219 -45.701   8.596  1.00  0.00    -0.273 OA
HETATM   19  N   UNL     1     -43.058 -47.894   8.129  1.00  0.00    -0.370 N 
HETATM   20  H   UNL     1     -43.139 -48.862   8.404  1.00  0.00     0.159 HD
HETATM   21  H   UNL     1     -43.067 -47.670   7.142  1.00  0.00     0.159 HD
ENDBRANCH  16  17
ENDBRANCH   4  16
TORSDOF 5
ENDMDL
MODEL 3
REMARK VINA RESULT:      -5.5      3.873      6.247
REMARK  5 active torsions:
REMARK  status: ('A' for Active; 'I' for Inactive)
REMARK    1  A    between atoms: C_2  and  C_5 
REMARK    2  A    between atoms: C_5  and  C_6 
REMARK       I    between atoms: C_6  and  N_8 
REMARK    3  A    between atoms: N_8  and  C_9 
REMARK    4  A    between atoms: C_12  and  C_13 
REMARK    5  A    between atoms: C_13  and  C_14 
REMARK       I    between atoms: C_14  and  N_16 
ROOT
HETATM    1  C   UNL     1     -41.455 -50.518  12.046  1.00  0.00     0.151 A 
HETATM    2  N   UNL     1     -40.150 -50.553  12.052  1.00  0.00    -0.339 N 
ATOM      3  HN  UNL     1     -39.590 -51.400  12.146  1.00  0.00     0.168 HD
HETATM    4  C   UNL     1     -39.634 -49.272  11.911  1.00  0.00     0.026 A 
HETATM    5  C   UNL     1     -40.600 -48.283  11.825  1.00  0.00     0.078 A 
HETATM    6  S   UNL     1     -42.169 -48.986  11.831  1.00  0.00    -0.064 SA
ENDROOT
BRANCH   1   7
HETATM    7  N   UNL     1     -42.340 -51.556  12.156  1.00  0.00    -0.307 N 
HETATM    8  C   UNL     1     -42.064 -52.647  12.951  1.00  0.00     0.224 C 
HETATM    9  O   UNL     1     -41.133 -52.754  13.742  1.00  0.00    -0.273 OA
HETATM   10  H   UNL     1     -43.237 -51.445  11.710  1.00  0.00     0.171 HD
BRANCH   8  11
HETATM   11  C   UNL     1     -43.052 -53.790  12.776  1.00  0.00     0.111 C 
BRANCH  11  12
HETATM   12  C   UNL     1     -43.858 -54.124  14.055  1.00  0.00    -0.043 C 
HETATM   13  C   UNL     1     -44.231 -52.853  14.839  1.00  0.00     0.015 C 
HETATM   14  C   UNL     1     -43.066 -55.070  14.973  1.00  0.00     0.015 C 
HETATM   15  C   UNL     1     -45.165 -54.826  13.637  1.00  0.00     0.015 C 
ENDBRANCH  11  12
ENDBRANCH   8  11
ENDBRANCH   1   7
BRANCH   4  16
HETATM   16  C   UNL     1     -38.146 -49.131  11.916  1.00  0.00     0.160 C 
BRANCH  16  17
HETATM   17  C   UNL     1     -37.428 -50.318  11.305  1.00  0.00     0.221 C 
HETATM   18  O   UNL     1     -37.172 -51.350  11.917  1.00  0.00    -0.273 OA
HETATM   19  N   UNL     1     -37.080 -50.196   9.991  1.00  0.00    -0.370 N 
HETATM   20  H   UNL     1     -37.153 -49.329   9.478  1.00  0.00     0.159 HD
HETATM   21  H   UNL     1     -36.572 -50.965   9.571  1.00  0.00     0.159 HD
ENDBRANCH  16  17
ENDBRANCH   4  16
TORSDOF 5
ENDMDL
MODEL 4
REMARK VINA RESULT:      -5.2      5.139      7.396
REMARK  5 active torsions:
REMARK  status: ('A' for Active; 'I' for Inactive)
REMARK    1  A    between atoms: C_2  and  C_5 
REMARK    2  A    between atoms: C_5  and  C_6 
REMARK       I    between atoms: C_6  and  N_8 
REMARK    3  A    between atoms: N_8  and  C_9 
REMARK    4  A    between atoms: C_12  and  C_13 
REMARK    5  A    between atoms: C_13  and  C_14 
REMARK       I    between atoms: C_14  and  N_16 
ROOT
HETATM    1  C   UNL     1     -40.521 -52.605  13.718  1.00  0.00     0.151 A 
HETATM    2  N   UNL     1     -39.781 -51.804  13.001  1.00  0.00    -0.339 N 
ATOM      3  HN  UNL     1     -39.877 -51.666  11.995  1.00  0.00     0.168 HD
HETATM    4  C   UNL     1     -38.844 -51.166  13.804  1.00  0.00     0.026 A 
HETATM    5  C   UNL     1     -38.900 -51.540  15.137  1.00  0.00     0.078 A 
HETATM    6  S   UNL     1     -40.201 -52.635  15.391  1.00  0.00    -0.064 SA
ENDROOT
BRANCH   1   7
HETATM    7  N   UNL     1     -41.553 -53.408  13.313  1.00  0.00    -0.307 N 
HETATM    8  C   UNL     1     -42.719 -52.872  12.812  1.00  0.00     0.224 C 
HETATM    9  O   UNL     1     -42.915 -51.697  12.523  1.00  0.00    -0.273 OA
HETATM   10  H   UNL     1     -41.386 -54.402  13.308  1.00  0.00     0.171 HD
BRANCH   8  11
HETATM   11  C   UNL     1     -43.826 -53.899  12.625  1.00  0.00     0.111 C 
BRANCH  11  12
HETATM   12  C   UNL     1     -44.958 -53.799  13.677  1.00  0.00    -0.043 C 
HETATM   13  C   UNL     1     -45.644 -55.159  13.903  1.00  0.00     0.015 C 
HETATM   14  C   UNL     1     -46.013 -52.764  13.253  1.00  0.00     0.015 C 
HETATM   15  C   UNL     1     -44.339 -53.351  15.015  1.00  0.00     0.015 C 
ENDBRANCH  11  12
ENDBRANCH   8  11
ENDBRANCH   1   7
BRANCH   4  16
HETATM   16  C   UNL     1     -37.900 -50.222  13.134  1.00  0.00     0.160 C 
BRANCH  16  17
HETATM   17  C   UNL     1     -37.311 -50.771  11.849  1.00  0.00     0.221 C 
HETATM   18  O   UNL     1     -36.752 -51.859  11.765  1.00  0.00    -0.273 OA
HETATM   19  N   UNL     1     -37.449 -49.983  10.743  1.00  0.00    -0.370 N 
HETATM   20  H   UNL     1     -37.786 -49.031  10.780  1.00  0.00     0.159 HD
HETATM   21  H   UNL     1     -37.035 -50.316   9.881  1.00  0.00     0.159 HD
ENDBRANCH  16  17
ENDBRANCH   4  16
TORSDOF 5
ENDMDL
MODEL 5
REMARK VINA RESULT:      -5.1      4.304      5.481
REMARK  5 active torsions:
REMARK  status: ('A' for Active; 'I' for Inactive)
REMARK    1  A    between atoms: C_2  and  C_5 
REMARK    2  A    between atoms: C_5  and  C_6 
REMARK       I    between atoms: C_6  and  N_8 
REMARK    3  A    between atoms: N_8  and  C_9 
REMARK    4  A    between atoms: C_12  and  C_13 
REMARK    5  A    between atoms: C_13  and  C_14 
REMARK       I    between atoms: C_14  and  N_16 
ROOT
HETATM    1  C   UNL     1     -43.192 -49.229  13.259  1.00  0.00     0.151 A 
HETATM    2  N   UNL     1     -43.075 -49.252  11.960  1.00  0.00    -0.339 N 
ATOM      3  HN  UNL     1     -43.410 -50.003  11.357  1.00  0.00     0.168 HD
HETATM    4  C   UNL     1     -42.428 -48.106  11.515  1.00  0.00     0.026 A 
HETATM    5  C   UNL     1     -42.049 -47.245  12.531  1.00  0.00     0.078 A 
HETATM    6  S   UNL     1     -42.592 -47.843  14.048  1.00  0.00    -0.064 SA
ENDROOT
BRANCH   1   7
HETATM    7  N   UNL     1     -43.767 -50.158  14.083  1.00  0.00    -0.307 N 
HETATM    8  C   UNL     1     -43.830 -51.487  13.725  1.00  0.00     0.224 C 
HETATM    9  O   UNL     1     -43.272 -52.010  12.766  1.00  0.00    -0.273 OA
HETATM   10  H   UNL     1     -44.054 -49.846  14.998  1.00  0.00     0.171 HD
BRANCH   8  11
HETATM   11  C   UNL     1     -44.694 -52.325  14.656  1.00  0.00     0.111 C 
BRANCH  11  12
HETATM   12  C   UNL     1     -46.214 -52.187  14.395  1.00  0.00    -0.043 C 
HETATM   13  C   UNL     1     -46.500 -51.652  12.980  1.00  0.00     0.015 C 
HETATM   14  C   UNL     1     -46.866 -51.256  15.430  1.00  0.00     0.015 C 
HETATM   15  C   UNL     1     -46.856 -53.582  14.515  1.00  0.00     0.015 C 
ENDBRANCH  11  12
ENDBRANCH   8  11
ENDBRANCH   1   7
BRANCH   4  16
HETATM   16  C   UNL     1     -42.195 -47.981  10.044  1.00  0.00     0.160 C 
BRANCH  16  17
HETATM   17  C   UNL     1     -43.407 -47.481   9.284  1.00  0.00     0.221 C 
HETATM   18  O   UNL     1     -44.557 -47.555   9.706  1.00  0.00    -0.273 OA
HETATM   19  N   UNL     1     -43.158 -46.906   8.071  1.00  0.00    -0.370 N 
HETATM   20  H   UNL     1     -42.253 -46.932   7.622  1.00  0.00     0.159 HD
HETATM   21  H   UNL     1     -43.956 -46.594   7.532  1.00  0.00     0.159 HD
ENDBRANCH  16  17
ENDBRANCH   4  16
TORSDOF 5
ENDMDL
MODEL 6
REMARK VINA RESULT:      -5.0      4.725      7.104
REMARK  5 active torsions:
REMARK  status: ('A' for Active; 'I' for Inactive)
REMARK    1  A    between atoms: C_2  and  C_5 
REMARK    2  A    between atoms: C_5  and  C_6 
REMARK       I    between atoms: C_6  and  N_8 
REMARK    3  A    between atoms: N_8  and  C_9 
REMARK    4  A    between atoms: C_12  and  C_13 
REMARK    5  A    between atoms: C_13  and  C_14 
REMARK       I    between atoms: C_14  and  N_16 
ROOT
HETATM    1  C   UNL     1     -41.533 -52.810  14.117  1.00  0.00     0.151 A 
HETATM    2  N   UNL     1     -41.121 -51.828  13.362  1.00  0.00    -0.339 N 
ATOM      3  HN  UNL     1     -41.729 -51.151  12.902  1.00  0.00     0.168 HD
HETATM    4  C   UNL     1     -39.734 -51.838  13.275  1.00  0.00     0.026 A 
HETATM    5  C   UNL     1     -39.135 -52.874  13.972  1.00  0.00     0.078 A 
HETATM    6  S   UNL     1     -40.324 -53.786  14.814  1.00  0.00    -0.064 SA
ENDROOT
BRANCH   1   7
HETATM    7  N   UNL     1     -42.815 -53.147  14.459  1.00  0.00    -0.307 N 
HETATM    8  C   UNL     1     -43.814 -53.198  13.512  1.00  0.00     0.224 C 
HETATM    9  O   UNL     1     -43.671 -53.119  12.296  1.00  0.00    -0.273 OA
HETATM   10  H   UNL     1     -42.974 -53.447  15.407  1.00  0.00     0.171 HD
BRANCH   8  11
HETATM   11  C   UNL     1     -45.204 -53.371  14.107  1.00  0.00     0.111 C 
BRANCH  11  12
HETATM   12  C   UNL     1     -45.995 -52.047  14.247  1.00  0.00    -0.043 C 
HETATM   13  C   UNL     1     -46.632 -51.622  12.912  1.00  0.00     0.015 C 
HETATM   14  C   UNL     1     -45.088 -50.916  14.758  1.00  0.00     0.015 C 
HETATM   15  C   UNL     1     -47.130 -52.266  15.267  1.00  0.00     0.015 C 
ENDBRANCH  11  12
ENDBRANCH   8  11
ENDBRANCH   1   7
BRANCH   4  16
HETATM   16  C   UNL     1     -39.097 -50.784  12.429  1.00  0.00     0.160 C 
BRANCH  16  17
HETATM   17  C   UNL     1     -40.097 -49.866  11.757  1.00  0.00     0.221 C 
HETATM   18  O   UNL     1     -40.733 -48.999  12.348  1.00  0.00    -0.273 OA
HETATM   19  N   UNL     1     -40.254 -50.034  10.411  1.00  0.00    -0.370 N 
HETATM   20  H   UNL     1     -39.854 -50.808   9.900  1.00  0.00     0.159 HD
HETATM   21  H   UNL     1     -40.941 -49.452   9.947  1.00  0.00     0.159 HD
ENDBRANCH  16  17
ENDBRANCH   4  16
TORSDOF 5
ENDMDL
MODEL 7
REMARK VINA RESULT:      -4.9      1.525      1.876
REMARK  5 active torsions:
REMARK  status: ('A' for Active; 'I' for Inactive)
REMARK    1  A    between atoms: C_2  and  C_5 
REMARK    2  A    between atoms: C_5  and  C_6 
REMARK       I    between atoms: C_6  and  N_8 
REMARK    3  A    between atoms: N_8  and  C_9 
REMARK    4  A    between atoms: C_12  and  C_13 
REMARK    5  A    between atoms: C_13  and  C_14 
REMARK       I    between atoms: C_14  and  N_16 
ROOT
HETATM    1  C   UNL     1     -40.851 -47.455  10.922  1.00  0.00     0.151 A 
HETATM    2  N   UNL     1     -41.581 -47.911   9.940  1.00  0.00    -0.339 N 
ATOM      3  HN  UNL     1     -41.361 -48.737   9.384  1.00  0.00     0.168 HD
HETATM    4  C   UNL     1     -42.701 -47.109   9.761  1.00  0.00     0.026 A 
HETATM    5  C   UNL     1     -42.764 -46.031  10.627  1.00  0.00     0.078 A 
HETATM    6  S   UNL     1     -41.449 -46.081  11.732  1.00  0.00    -0.064 SA
ENDROOT
BRANCH   1   7
HETATM    7  N   UNL     1     -39.677 -47.953  11.418  1.00  0.00    -0.307 N 
HETATM    8  C   UNL     1     -39.503 -49.305  11.615  1.00  0.00     0.224 C 
HETATM    9  O   UNL     1     -40.258 -50.198  11.244  1.00  0.00    -0.273 OA
HETATM   10  H   UNL     1     -38.918 -47.302  11.541  1.00  0.00     0.171 HD
BRANCH   8  11
HETATM   11  C   UNL     1     -38.230 -49.648  12.375  1.00  0.00     0.111 C 
BRANCH  11  12
HETATM   12  C   UNL     1     -38.477 -50.156  13.816  1.00  0.00    -0.043 C 
HETATM   13  C   UNL     1     -37.291 -49.832  14.743  1.00  0.00     0.015 C 
HETATM   14  C   UNL     1     -38.731 -51.672  13.829  1.00  0.00     0.015 C 
HETATM   15  C   UNL     1     -39.725 -49.444  14.375  1.00  0.00     0.015 C 
ENDBRANCH  11  12
ENDBRANCH   8  11
ENDBRANCH   1   7
BRANCH   4  16
HETATM   16  C   UNL     1     -43.638 -47.484   8.659  1.00  0.00     0.160 C 
BRANCH  16  17
HETATM   17  C   UNL     1     -45.095 -47.242   9.000  1.00  0.00     0.221 C 
HETATM   18  O   UNL     1     -45.669 -46.171   8.828  1.00  0.00    -0.273 OA
HETATM   19  N   UNL     1     -45.776 -48.310   9.509  1.00  0.00    -0.370 N 
HETATM   20  H   UNL     1     -45.326 -49.171   9.787  1.00  0.00     0.159 HD
HETATM   21  H   UNL     1     -46.742 -48.162   9.774  1.00  0.00     0.159 HD
ENDBRANCH  16  17
ENDBRANCH   4  16
TORSDOF 5
ENDMDL
MODEL 8
REMARK VINA RESULT:      -4.9      4.239      5.065
REMARK  5 active torsions:
REMARK  status: ('A' for Active; 'I' for Inactive)
REMARK    1  A    between atoms: C_2  and  C_5 
REMARK    2  A    between atoms: C_5  and  C_6 
REMARK       I    between atoms: C_6  and  N_8 
REMARK    3  A    between atoms: N_8  and  C_9 
REMARK    4  A    between atoms: C_12  and  C_13 
REMARK    5  A    between atoms: C_13  and  C_14 
REMARK       I    between atoms: C_14  and  N_16 
ROOT
HETATM    1  C   UNL     1     -43.146 -50.349  13.189  1.00  0.00     0.151 A 
HETATM    2  N   UNL     1     -44.075 -51.188  12.819  1.00  0.00    -0.339 N 
ATOM      3  HN  UNL     1     -44.162 -51.588  11.885  1.00  0.00     0.168 HD
HETATM    4  C   UNL     1     -44.929 -51.459  13.881  1.00  0.00     0.026 A 
HETATM    5  C   UNL     1     -44.615 -50.774  15.043  1.00  0.00     0.078 A 
HETATM    6  S   UNL     1     -43.181 -49.853  14.819  1.00  0.00    -0.064 SA
ENDROOT
BRANCH   1   7
HETATM    7  N   UNL     1     -42.115 -49.833  12.451  1.00  0.00    -0.307 N 
HETATM    8  C   UNL     1     -41.202 -50.656  11.831  1.00  0.00     0.224 C 
HETATM    9  O   UNL     1     -41.276 -51.876  11.722  1.00  0.00    -0.273 OA
HETATM   10  H   UNL     1     -42.111 -48.836  12.303  1.00  0.00     0.171 HD
BRANCH   8  11
HETATM   11  C   UNL     1     -40.011 -49.909  11.247  1.00  0.00     0.111 C 
BRANCH  11  12
HETATM   12  C   UNL     1     -38.817 -49.773  12.223  1.00  0.00    -0.043 C 
HETATM   13  C   UNL     1     -38.808 -50.902  13.270  1.00  0.00     0.015 C 
HETATM   14  C   UNL     1     -38.847 -48.415  12.943  1.00  0.00     0.015 C 
HETATM   15  C   UNL     1     -37.511 -49.869  11.409  1.00  0.00     0.015 C 
ENDBRANCH  11  12
ENDBRANCH   8  11
ENDBRANCH   1   7
BRANCH   4  16
HETATM   16  C   UNL     1     -46.066 -52.393  13.620  1.00  0.00     0.160 C 
BRANCH  16  17
HETATM   17  C   UNL     1     -45.623 -53.814  13.332  1.00  0.00     0.221 C 
HETATM   18  O   UNL     1     -44.768 -54.108  12.502  1.00  0.00    -0.273 OA
HETATM   19  N   UNL     1     -46.222 -54.790  14.075  1.00  0.00    -0.370 N 
HETATM   20  H   UNL     1     -47.015 -54.619  14.677  1.00  0.00     0.159 HD
HETATM   21  H   UNL     1     -45.964 -55.749  13.876  1.00  0.00     0.159 HD
ENDBRANCH  16  17
ENDBRANCH   4  16
TORSDOF 5
ENDMDL
MODEL 9
REMARK VINA RESULT:      -4.8      3.466      4.497
REMARK  5 active torsions:
REMARK  status: ('A' for Active; 'I' for Inactive)
REMARK    1  A    between atoms: C_2  and  C_5 
REMARK    2  A    between atoms: C_5  and  C_6 
REMARK       I    between atoms: C_6  and  N_8 
REMARK    3  A    between atoms: N_8  and  C_9 
REMARK    4  A    between atoms: C_12  and  C_13 
REMARK    5  A    between atoms: C_13  and  C_14 
REMARK       I    between atoms: C_14  and  N_16 
ROOT
HETATM    1  C   UNL     1     -41.095 -50.730  11.862  1.00  0.00     0.151 A 
HETATM    2  N   UNL     1     -41.794 -49.765  11.328  1.00  0.00    -0.339 N 
ATOM      3  HN  UNL     1     -42.765 -49.847  11.026  1.00  0.00     0.168 HD
HETATM    4  C   UNL     1     -41.027 -48.611  11.231  1.00  0.00     0.026 A 
HETATM    5  C   UNL     1     -39.728 -48.761  11.689  1.00  0.00     0.078 A 
HETATM    6  S   UNL     1     -39.503 -50.340  12.328  1.00  0.00    -0.064 SA
ENDROOT
BRANCH   1   7
HETATM    7  N   UNL     1     -41.478 -52.015  12.134  1.00  0.00    -0.307 N 
HETATM    8  C   UNL     1     -42.695 -52.288  12.719  1.00  0.00     0.224 C 
HETATM    9  O   UNL     1     -43.607 -51.489  12.909  1.00  0.00    -0.273 OA
HETATM   10  H   UNL     1     -40.877 -52.753  11.802  1.00  0.00     0.171 HD
BRANCH   8  11
HETATM   11  C   UNL     1     -42.851 -53.740  13.144  1.00  0.00     0.111 C 
BRANCH  11  12
HETATM   12  C   UNL     1     -42.275 -54.048  14.548  1.00  0.00    -0.043 C 
HETATM   13  C   UNL     1     -42.480 -52.868  15.516  1.00  0.00     0.015 C 
HETATM   14  C   UNL     1     -40.776 -54.381  14.467  1.00  0.00     0.015 C 
HETATM   15  C   UNL     1     -43.020 -55.269  15.122  1.00  0.00     0.015 C 
ENDBRANCH  11  12
ENDBRANCH   8  11
ENDBRANCH   1   7
BRANCH   4  16
HETATM   16  C   UNL     1     -41.675 -47.411  10.622  1.00  0.00     0.160 C 
BRANCH  16  17
HETATM   17  C   UNL     1     -43.096 -47.188  11.097  1.00  0.00     0.221 C 
HETATM   18  O   UNL     1     -44.078 -47.720  10.588  1.00  0.00    -0.273 OA
HETATM   19  N   UNL     1     -43.246 -46.354  12.168  1.00  0.00    -0.370 N 
HETATM   20  H   UNL     1     -42.493 -45.796  12.544  1.00  0.00     0.159 HD
HETATM   21  H   UNL     1     -44.191 -46.167  12.482  1.00  0.00     0.159 HD
ENDBRANCH  16  17
ENDBRANCH   4  16
TORSDOF 5
ENDMDL
