MODEL 1
REMARK VINA RESULT:      -6.0      0.000      0.000
REMARK  5 active torsions:
REMARK  status: ('A' for Active; 'I' for Inactive)
REMARK    1  A    between atoms: O_2  and  C_3 
REMARK    2  A    between atoms: C_3  and  C_5 
REMARK       I    between atoms: C_5  and  N_7 
REMARK    3  A    between atoms: N_7  and  C_8 
REMARK    4  A    between atoms: C_11  and  O_12 
REMARK    5  A    between atoms: C_16  and  N_17 
REMARK       I    between atoms: N_20  and  C_23 
ROOT
HETATM    1  C   UNL     1     -43.133 -46.138   9.973  1.00  0.00     0.079 A 
HETATM    2  C   UNL     1     -44.080 -45.616   9.082  1.00  0.00     0.038 A 
HETATM    3  C   UNL     1     -45.228 -46.326   8.801  1.00  0.00     0.058 A 
HETATM    4  C   UNL     1     -45.405 -47.527   9.446  1.00  0.00     0.143 A 
HETATM    5  N   UNL     1     -44.500 -48.085  10.295  1.00  0.00    -0.321 N 
ATOM      6  HN  UNL     1     -44.681 -48.995  10.720  1.00  0.00     0.169 HD
HETATM    7  C   UNL     1     -43.348 -47.410  10.568  1.00  0.00     0.132 A 
ENDROOT
BRANCH   7   8
HETATM    8  N   UNL     1     -42.466 -48.013  11.457  1.00  0.00    -0.362 N 
HETATM    9  C   UNL     1     -42.616 -47.773  12.911  1.00  0.00     0.144 C 
HETATM   10  C   UNL     1     -41.306 -47.308  13.594  1.00  0.00     0.145 C 
HETATM   11  N   UNL     1     -40.127 -48.070  13.148  1.00  0.00    -0.349 N 
HETATM   12  C   UNL     1     -40.004 -48.100  11.693  1.00  0.00     0.145 C 
HETATM   13  C   UNL     1     -39.207 -48.767  13.902  1.00  0.00     0.215 C 
HETATM   14  C   UNL     1     -41.249 -48.732  11.059  1.00  0.00     0.144 C 
HETATM   15  O   UNL     1     -38.298 -49.417  13.372  1.00  0.00    -0.274 OA
HETATM   16  C   UNL     1     -39.282 -48.750  15.406  1.00  0.00     0.117 C 
ENDBRANCH   7   8
BRANCH   1  17
HETATM   17  N   UNL     1     -41.946 -45.389  10.132  1.00  0.00    -0.322 N 
HETATM   18  C   UNL     1     -41.779 -44.448  11.141  1.00  0.00     0.251 C 
HETATM   19  O   UNL     1     -42.612 -44.219  12.019  1.00  0.00    -0.270 OA
HETATM   20  H   UNL     1     -41.121 -45.684   9.627  1.00  0.00     0.169 HD
BRANCH  18  21
HETATM   21  C   UNL     1     -40.382 -43.800  11.154  1.00  0.00     0.208 C 
HETATM   22  C   UNL     1     -39.402 -44.658  10.352  1.00  0.00     0.049 C 
BRANCH  21  23
HETATM   23  O   UNL     1     -39.978 -43.612  12.514  1.00  0.00    -0.382 OA
HETATM   24  C   UNL     1     -38.943 -44.489  12.937  1.00  0.00     0.202 C 
ENDBRANCH  21  23
ENDBRANCH  18  21
ENDBRANCH   1  17
BRANCH   4  25
HETATM   25  O   UNL     1     -46.595 -48.167   9.154  1.00  0.00    -0.341 OA
HETATM   26  C   UNL     1     -46.555 -48.940   7.965  1.00  0.00     0.211 C 
ENDBRANCH   4  25
TORSDOF 5
ENDMDL
MODEL 2
REMARK VINA RESULT:      -5.8      3.535      6.494
REMARK  5 active torsions:
REMARK  status: ('A' for Active; 'I' for Inactive)
REMARK    1  A    between atoms: O_2  and  C_3 
REMARK    2  A    between atoms: C_3  and  C_5 
REMARK       I    between atoms: C_5  and  N_7 
REMARK    3  A    between atoms: N_7  and  C_8 
REMARK    4  A    between atoms: C_11  and  O_12 
REMARK    5  A    between atoms: C_16  and  N_17 
REMARK       I    between atoms: N_20  and  C_23 
ROOT
HETATM    1  C   UNL     1     -41.022 -49.223  11.537  1.00  0.00     0.079 A 
HETATM    2  C   UNL     1     -39.812 -48.515  11.566  1.00  0.00     0.038 A 
HETATM    3  C   UNL     1     -38.878 -48.786  12.543  1.00  0.00     0.058 A 
HETATM    4  C   UNL     1     -39.173 -49.781  13.444  1.00  0.00     0.143 A 
HETATM    5  N   UNL     1     -40.345 -50.472  13.472  1.00  0.00    -0.321 N 
ATOM      6  HN  UNL     1     -40.512 -51.181  14.186  1.00  0.00     0.169 HD
HETATM    7  C   UNL     1     -41.292 -50.203  12.529  1.00  0.00     0.132 A 
ENDROOT
BRANCH   7   8
HETATM    8  N   UNL     1     -42.462 -50.950  12.587  1.00  0.00    -0.362 N 
HETATM    9  C   UNL     1     -43.635 -50.416  13.315  1.00  0.00     0.144 C 
HETATM   10  C   UNL     1     -44.217 -51.409  14.352  1.00  0.00     0.145 C 
HETATM   11  N   UNL     1     -44.305 -52.786  13.838  1.00  0.00    -0.349 N 
HETATM   12  C   UNL     1     -43.036 -53.254  13.285  1.00  0.00     0.145 C 
HETATM   13  C   UNL     1     -45.400 -53.619  13.770  1.00  0.00     0.215 C 
HETATM   14  C   UNL     1     -42.579 -52.344  12.138  1.00  0.00     0.144 C 
HETATM   15  O   UNL     1     -45.329 -54.738  13.248  1.00  0.00    -0.274 OA
HETATM   16  C   UNL     1     -46.725 -53.189  14.344  1.00  0.00     0.117 C 
ENDBRANCH   7   8
BRANCH   1  17
HETATM   17  N   UNL     1     -41.958 -48.817  10.560  1.00  0.00    -0.322 N 
HETATM   18  C   UNL     1     -42.867 -47.788  10.771  1.00  0.00     0.251 C 
HETATM   19  O   UNL     1     -42.909 -47.098  11.790  1.00  0.00    -0.270 OA
HETATM   20  H   UNL     1     -41.834 -49.144   9.611  1.00  0.00     0.169 HD
BRANCH  18  21
HETATM   21  C   UNL     1     -43.747 -47.481   9.544  1.00  0.00     0.208 C 
HETATM   22  C   UNL     1     -43.496 -46.050   9.067  1.00  0.00     0.049 C 
BRANCH  21  23
HETATM   23  O   UNL     1     -45.114 -47.724   9.889  1.00  0.00    -0.382 OA
HETATM   24  C   UNL     1     -45.984 -47.833   8.771  1.00  0.00     0.202 C 
ENDBRANCH  21  23
ENDBRANCH  18  21
ENDBRANCH   1  17
BRANCH   4  25
HETATM   25  O   UNL     1     -38.176 -50.034  14.369  1.00  0.00    -0.341 OA
HETATM   26  C   UNL     1     -37.513 -48.868  14.830  1.00  0.00     0.211 C 
ENDBRANCH   4  25
TORSDOF 5
ENDMDL
MODEL 3
REMARK VINA RESULT:      -5.7      1.767      2.262
REMARK  5 active torsions:
REMARK  status: ('A' for Active; 'I' for Inactive)
REMARK    1  A    between atoms: O_2  and  C_3 
REMARK    2  A    between atoms: C_3  and  C_5 
REMARK       I    between atoms: C_5  and  N_7 
REMARK    3  A    between atoms: N_7  and  C_8 
REMARK    4  A    between atoms: C_11  and  O_12 
REMARK    5  A    between atoms: C_16  and  N_17 
REMARK       I    between atoms: N_20  and  C_23 
ROOT
HETATM    1  C   UNL     1     -42.622 -46.009  10.665  1.00  0.00     0.079 A 
HETATM    2  C   UNL     1     -43.410 -45.351   9.712  1.00  0.00     0.038 A 
HETATM    3  C   UNL     1     -44.182 -46.080   8.833  1.00  0.00     0.058 A 
HETATM    4  C   UNL     1     -44.163 -47.449   8.956  1.00  0.00     0.143 A 
HETATM    5  N   UNL     1     -43.392 -48.130   9.846  1.00  0.00    -0.321 N 
ATOM      6  HN  UNL     1     -43.404 -49.150   9.868  1.00  0.00     0.169 HD
HETATM    7  C   UNL     1     -42.603 -47.429  10.709  1.00  0.00     0.132 A 
ENDROOT
BRANCH   7   8
HETATM    8  N   UNL     1     -41.851 -48.170  11.612  1.00  0.00    -0.362 N 
HETATM    9  C   UNL     1     -40.408 -48.384  11.359  1.00  0.00     0.144 C 
HETATM   10  C   UNL     1     -39.988 -49.873  11.428  1.00  0.00     0.145 C 
HETATM   11  N   UNL     1     -40.591 -50.585  12.567  1.00  0.00    -0.349 N 
HETATM   12  C   UNL     1     -42.042 -50.424  12.616  1.00  0.00     0.145 C 
HETATM   13  C   UNL     1     -39.973 -51.301  13.570  1.00  0.00     0.215 C 
HETATM   14  C   UNL     1     -42.417 -48.941  12.727  1.00  0.00     0.144 C 
HETATM   15  O   UNL     1     -40.619 -51.794  14.503  1.00  0.00    -0.274 OA
HETATM   16  C   UNL     1     -38.482 -51.510  13.553  1.00  0.00     0.117 C 
ENDBRANCH   7   8
BRANCH   1  17
HETATM   17  N   UNL     1     -41.793 -45.190  11.463  1.00  0.00    -0.322 N 
HETATM   18  C   UNL     1     -40.580 -44.683  11.014  1.00  0.00     0.251 C 
HETATM   19  O   UNL     1     -40.141 -44.845   9.875  1.00  0.00    -0.270 OA
HETATM   20  H   UNL     1     -42.181 -44.792  12.309  1.00  0.00     0.169 HD
BRANCH  18  21
HETATM   21  C   UNL     1     -39.880 -43.765  12.034  1.00  0.00     0.208 C 
HETATM   22  C   UNL     1     -39.204 -44.608  13.116  1.00  0.00     0.049 C 
BRANCH  21  23
HETATM   23  O   UNL     1     -40.843 -42.847  12.560  1.00  0.00    -0.382 OA
HETATM   24  C   UNL     1     -40.962 -41.641  11.817  1.00  0.00     0.202 C 
ENDBRANCH  21  23
ENDBRANCH  18  21
ENDBRANCH   1  17
BRANCH   4  25
HETATM   25  O   UNL     1     -44.993 -48.118   8.075  1.00  0.00    -0.341 OA
HETATM   26  C   UNL     1     -46.314 -48.299   8.557  1.00  0.00     0.211 C 
ENDBRANCH   4  25
TORSDOF 5
ENDMDL
MODEL 4
REMARK VINA RESULT:      -5.6      1.832      2.251
REMARK  5 active torsions:
REMARK  status: ('A' for Active; 'I' for Inactive)
REMARK    1  A    between atoms: O_2  and  C_3 
REMARK    2  A    between atoms: C_3  and  C_5 
REMARK       I    between atoms: C_5  and  N_7 
REMARK    3  A    between atoms: N_7  and  C_8 
REMARK    4  A    between atoms: C_11  and  O_12 
REMARK    5  A    between atoms: C_16  and  N_17 
REMARK       I    between atoms: N_20  and  C_23 
ROOT
HETATM    1  C   UNL     1     -41.817 -46.582  10.930  1.00  0.00     0.079 A 
HETATM    2  C   UNL     1     -42.504 -45.586  10.222  1.00  0.00     0.038 A 
HETATM    3  C   UNL     1     -43.536 -45.929   9.375  1.00  0.00     0.058 A 
HETATM    4  C   UNL     1     -43.869 -47.260   9.286  1.00  0.00     0.143 A 
HETATM    5  N   UNL     1     -43.212 -48.262   9.931  1.00  0.00    -0.321 N 
ATOM      6  HN  UNL     1     -43.492 -49.234   9.800  1.00  0.00     0.169 HD
HETATM    7  C   UNL     1     -42.173 -47.947  10.755  1.00  0.00     0.132 A 
ENDROOT
BRANCH   7   8
HETATM    8  N   UNL     1     -41.548 -49.003  11.407  1.00  0.00    -0.362 N 
HETATM    9  C   UNL     1     -41.995 -49.391  12.764  1.00  0.00     0.144 C 
HETATM   10  C   UNL     1     -40.837 -49.477  13.789  1.00  0.00     0.145 C 
HETATM   11  N   UNL     1     -39.644 -50.149  13.248  1.00  0.00    -0.349 N 
HETATM   12  C   UNL     1     -39.209 -49.571  11.979  1.00  0.00     0.145 C 
HETATM   13  C   UNL     1     -38.959 -51.238  13.744  1.00  0.00     0.215 C 
HETATM   14  C   UNL     1     -40.326 -49.664  10.932  1.00  0.00     0.144 C 
HETATM   15  O   UNL     1     -38.002 -51.731  13.135  1.00  0.00    -0.274 OA
HETATM   16  C   UNL     1     -39.358 -51.857  15.058  1.00  0.00     0.117 C 
ENDBRANCH   7   8
BRANCH   1  17
HETATM   17  N   UNL     1     -40.716 -46.152  11.702  1.00  0.00    -0.322 N 
HETATM   18  C   UNL     1     -40.824 -45.815  13.045  1.00  0.00     0.251 C 
HETATM   19  O   UNL     1     -41.860 -45.913  13.702  1.00  0.00    -0.270 OA
HETATM   20  H   UNL     1     -39.785 -46.283  11.326  1.00  0.00     0.169 HD
BRANCH  18  21
HETATM   21  C   UNL     1     -39.480 -45.433  13.695  1.00  0.00     0.208 C 
HETATM   22  C   UNL     1     -38.825 -44.297  12.909  1.00  0.00     0.049 C 
BRANCH  21  23
HETATM   23  O   UNL     1     -38.661 -46.604  13.773  1.00  0.00    -0.382 OA
HETATM   24  C   UNL     1     -38.388 -47.033  15.100  1.00  0.00     0.202 C 
ENDBRANCH  21  23
ENDBRANCH  18  21
ENDBRANCH   1  17
BRANCH   4  25
HETATM   25  O   UNL     1     -44.940 -47.531   8.455  1.00  0.00    -0.341 OA
HETATM   26  C   UNL     1     -46.200 -47.460   9.103  1.00  0.00     0.211 C 
ENDBRANCH   4  25
TORSDOF 5
ENDMDL
MODEL 5
REMARK VINA RESULT:      -5.6      3.239      5.583
REMARK  5 active torsions:
REMARK  status: ('A' for Active; 'I' for Inactive)
REMARK    1  A    between atoms: O_2  and  C_3 
REMARK    2  A    between atoms: C_3  and  C_5 
REMARK       I    between atoms: C_5  and  N_7 
REMARK    3  A    between atoms: N_7  and  C_8 
REMARK    4  A    between atoms: C_11  and  O_12 
REMARK    5  A    between atoms: C_16  and  N_17 
REMARK       I    between atoms: N_20  and  C_23 
ROOT
HETATM    1  C   UNL     1     -39.883 -46.574  12.839  1.00  0.00     0.079 A 
HETATM    2  C   UNL     1     -39.472 -45.234  12.864  1.00  0.00     0.038 A 
HETATM    3  C   UNL     1     -39.378 -44.520  11.690  1.00  0.00     0.058 A 
HETATM    4  C   UNL     1     -39.727 -45.162  10.526  1.00  0.00     0.143 A 
HETATM    5  N   UNL     1     -40.102 -46.468  10.451  1.00  0.00    -0.321 N 
ATOM      6  HN  UNL     1     -40.323 -46.893   9.550  1.00  0.00     0.169 HD
HETATM    7  C   UNL     1     -40.180 -47.199  11.598  1.00  0.00     0.132 A 
ENDROOT
BRANCH   7   8
HETATM    8  N   UNL     1     -40.588 -48.522  11.471  1.00  0.00    -0.362 N 
HETATM    9  C   UNL     1     -42.017 -48.865  11.645  1.00  0.00     0.144 C 
HETATM   10  C   UNL     1     -42.252 -50.012  12.660  1.00  0.00     0.145 C 
HETATM   11  N   UNL     1     -41.301 -51.123  12.497  1.00  0.00    -0.349 N 
HETATM   12  C   UNL     1     -39.912 -50.670  12.497  1.00  0.00     0.145 C 
HETATM   13  C   UNL     1     -41.556 -52.463  12.299  1.00  0.00     0.215 C 
HETATM   14  C   UNL     1     -39.673 -49.665  11.363  1.00  0.00     0.144 C 
HETATM   15  O   UNL     1     -40.640 -53.275  12.115  1.00  0.00    -0.274 OA
HETATM   16  C   UNL     1     -42.969 -52.982  12.310  1.00  0.00     0.117 C 
ENDBRANCH   7   8
BRANCH   1  17
HETATM   17  N   UNL     1     -39.862 -47.257  14.075  1.00  0.00    -0.322 N 
HETATM   18  C   UNL     1     -38.732 -47.906  14.558  1.00  0.00     0.251 C 
HETATM   19  O   UNL     1     -37.638 -47.901  13.995  1.00  0.00    -0.270 OA
HETATM   20  H   UNL     1     -40.624 -47.101  14.723  1.00  0.00     0.169 HD
BRANCH  18  21
HETATM   21  C   UNL     1     -38.928 -48.527  15.954  1.00  0.00     0.208 C 
HETATM   22  C   UNL     1     -37.894 -47.959  16.927  1.00  0.00     0.049 C 
BRANCH  21  23
HETATM   23  O   UNL     1     -38.860 -49.951  15.835  1.00  0.00    -0.382 OA
HETATM   24  C   UNL     1     -37.692 -50.526  16.403  1.00  0.00     0.202 C 
ENDBRANCH  21  23
ENDBRANCH  18  21
ENDBRANCH   1  17
BRANCH   4  25
HETATM   25  O   UNL     1     -39.654 -44.377   9.390  1.00  0.00    -0.341 OA
HETATM   26  C   UNL     1     -38.459 -44.555   8.646  1.00  0.00     0.211 C 
ENDBRANCH   4  25
TORSDOF 5
ENDMDL
MODEL 6
REMARK VINA RESULT:      -5.5      4.892      7.505
REMARK  5 active torsions:
REMARK  status: ('A' for Active; 'I' for Inactive)
REMARK    1  A    between atoms: O_2  and  C_3 
REMARK    2  A    between atoms: C_3  and  C_5 
REMARK       I    between atoms: C_5  and  N_7 
REMARK    3  A    between atoms: N_7  and  C_8 
REMARK    4  A    between atoms: C_11  and  O_12 
REMARK    5  A    between atoms: C_16  and  N_17 
REMARK       I    between atoms: N_20  and  C_23 
ROOT
HETATM    1  C   UNL     1     -40.425 -51.069  12.661  1.00  0.00     0.079 A 
HETATM    2  C   UNL     1     -39.428 -50.251  12.110  1.00  0.00     0.038 A 
HETATM    3  C   UNL     1     -39.776 -49.173  11.326  1.00  0.00     0.058 A 
HETATM    4  C   UNL     1     -41.116 -48.929  11.140  1.00  0.00     0.143 A 
HETATM    5  N   UNL     1     -42.115 -49.711  11.630  1.00  0.00    -0.321 N 
ATOM      6  HN  UNL     1     -43.091 -49.490  11.433  1.00  0.00     0.169 HD
HETATM    7  C   UNL     1     -41.792 -50.796  12.390  1.00  0.00     0.132 A 
ENDROOT
BRANCH   7   8
HETATM    8  N   UNL     1     -42.849 -51.551  12.884  1.00  0.00    -0.362 N 
HETATM    9  C   UNL     1     -43.485 -51.168  14.165  1.00  0.00     0.144 C 
HETATM   10  C   UNL     1     -43.580 -52.337  15.176  1.00  0.00     0.145 C 
HETATM   11  N   UNL     1     -44.013 -53.598  14.553  1.00  0.00    -0.349 N 
HETATM   12  C   UNL     1     -43.205 -53.948  13.388  1.00  0.00     0.145 C 
HETATM   13  C   UNL     1     -45.071 -54.415  14.889  1.00  0.00     0.215 C 
HETATM   14  C   UNL     1     -43.278 -52.841  12.328  1.00  0.00     0.144 C 
HETATM   15  O   UNL     1     -45.349 -55.420  14.223  1.00  0.00    -0.274 OA
HETATM   16  C   UNL     1     -45.922 -54.107  16.093  1.00  0.00     0.117 C 
ENDBRANCH   7   8
BRANCH   1  17
HETATM   17  N   UNL     1     -39.978 -52.203  13.374  1.00  0.00    -0.322 N 
HETATM   18  C   UNL     1     -39.829 -52.214  14.755  1.00  0.00     0.251 C 
HETATM   19  O   UNL     1     -40.124 -51.271  15.490  1.00  0.00    -0.270 OA
HETATM   20  H   UNL     1     -39.957 -53.094  12.895  1.00  0.00     0.169 HD
BRANCH  18  21
HETATM   21  C   UNL     1     -39.388 -53.579  15.318  1.00  0.00     0.208 C 
HETATM   22  C   UNL     1     -39.309 -54.606  14.188  1.00  0.00     0.049 C 
BRANCH  21  23
HETATM   23  O   UNL     1     -40.294 -53.959  16.357  1.00  0.00    -0.382 OA
HETATM   24  C   UNL     1     -40.983 -55.177  16.110  1.00  0.00     0.202 C 
ENDBRANCH  21  23
ENDBRANCH  18  21
ENDBRANCH   1  17
BRANCH   4  25
HETATM   25  O   UNL     1     -41.397 -47.808  10.381  1.00  0.00    -0.341 OA
HETATM   26  C   UNL     1     -40.754 -46.629  10.839  1.00  0.00     0.211 C 
ENDBRANCH   4  25
TORSDOF 5
ENDMDL
MODEL 7
REMARK VINA RESULT:      -5.5      3.515      6.225
REMARK  5 active torsions:
REMARK  status: ('A' for Active; 'I' for Inactive)
REMARK    1  A    between atoms: O_2  and  C_3 
REMARK    2  A    between atoms: C_3  and  C_5 
REMARK       I    between atoms: C_5  and  N_7 
REMARK    3  A    between atoms: N_7  and  C_8 
REMARK    4  A    between atoms: C_11  and  O_12 
REMARK    5  A    between atoms: C_16  and  N_17 
REMARK       I    between atoms: N_20  and  C_23 
ROOT
HETATM    1  C   UNL     1     -41.149 -52.012  13.751  1.00  0.00     0.079 A 
HETATM    2  C   UNL     1     -41.364 -53.343  14.135  1.00  0.00     0.038 A 
HETATM    3  C   UNL     1     -42.475 -54.021  13.682  1.00  0.00     0.058 A 
HETATM    4  C   UNL     1     -43.323 -53.353  12.832  1.00  0.00     0.143 A 
HETATM    5  N   UNL     1     -43.170 -52.054  12.456  1.00  0.00    -0.321 N 
ATOM      6  HN  UNL     1     -43.852 -51.608  11.843  1.00  0.00     0.169 HD
HETATM    7  C   UNL     1     -42.091 -51.358  12.912  1.00  0.00     0.132 A 
ENDROOT
BRANCH   7   8
HETATM    8  N   UNL     1     -41.968 -50.042  12.483  1.00  0.00    -0.362 N 
HETATM    9  C   UNL     1     -41.124 -49.732  11.307  1.00  0.00     0.144 C 
HETATM   10  C   UNL     1     -40.086 -48.615  11.575  1.00  0.00     0.145 C 
HETATM   11  N   UNL     1     -40.647 -47.480  12.326  1.00  0.00    -0.349 N 
HETATM   12  C   UNL     1     -41.321 -47.905  13.550  1.00  0.00     0.145 C 
HETATM   13  C   UNL     1     -40.659 -46.141  11.998  1.00  0.00     0.215 C 
HETATM   14  C   UNL     1     -42.463 -48.877  13.229  1.00  0.00     0.144 C 
HETATM   15  O   UNL     1     -41.232 -45.307  12.710  1.00  0.00    -0.274 OA
HETATM   16  C   UNL     1     -39.961 -45.653  10.756  1.00  0.00     0.117 C 
ENDBRANCH   7   8
BRANCH   1  17
HETATM   17  N   UNL     1     -40.037 -51.366  14.335  1.00  0.00    -0.322 N 
HETATM   18  C   UNL     1     -38.787 -51.324  13.730  1.00  0.00     0.251 C 
HETATM   19  O   UNL     1     -38.542 -51.787  12.616  1.00  0.00    -0.270 OA
HETATM   20  H   UNL     1     -40.199 -50.744  15.116  1.00  0.00     0.169 HD
BRANCH  18  21
HETATM   21  C   UNL     1     -37.745 -50.512  14.522  1.00  0.00     0.208 C 
HETATM   22  C   UNL     1     -38.188 -50.378  15.980  1.00  0.00     0.049 C 
BRANCH  21  23
HETATM   23  O   UNL     1     -37.561 -49.250  13.875  1.00  0.00    -0.382 OA
HETATM   24  C   UNL     1     -37.770 -48.128  14.722  1.00  0.00     0.202 C 
ENDBRANCH  21  23
ENDBRANCH  18  21
ENDBRANCH   1  17
BRANCH   4  25
HETATM   25  O   UNL     1     -44.393 -54.103  12.378  1.00  0.00    -0.341 OA
HETATM   26  C   UNL     1     -45.201 -54.635  13.416  1.00  0.00     0.211 C 
ENDBRANCH   4  25
TORSDOF 5
ENDMDL
MODEL 8
REMARK VINA RESULT:      -5.5      5.943      9.377
REMARK  5 active torsions:
REMARK  status: ('A' for Active; 'I' for Inactive)
REMARK    1  A    between atoms: O_2  and  C_3 
REMARK    2  A    between atoms: C_3  and  C_5 
REMARK       I    between atoms: C_5  and  N_7 
REMARK    3  A    between atoms: N_7  and  C_8 
REMARK    4  A    between atoms: C_11  and  O_12 
REMARK    5  A    between atoms: C_16  and  N_17 
REMARK       I    between atoms: N_20  and  C_23 
ROOT
HETATM    1  C   UNL     1     -39.546 -54.378  14.923  1.00  0.00     0.079 A 
HETATM    2  C   UNL     1     -38.593 -55.156  15.593  1.00  0.00     0.038 A 
HETATM    3  C   UNL     1     -38.994 -56.075  16.539  1.00  0.00     0.058 A 
HETATM    4  C   UNL     1     -40.344 -56.207  16.763  1.00  0.00     0.143 A 
HETATM    5  N   UNL     1     -41.302 -55.453  16.158  1.00  0.00    -0.321 N 
ATOM      6  HN  UNL     1     -42.287 -55.583  16.390  1.00  0.00     0.169 HD
HETATM    7  C   UNL     1     -40.924 -54.522  15.237  1.00  0.00     0.132 A 
ENDROOT
BRANCH   7   8
HETATM    8  N   UNL     1     -41.941 -53.793  14.632  1.00  0.00    -0.362 N 
HETATM    9  C   UNL     1     -42.686 -52.785  15.420  1.00  0.00     0.144 C 
HETATM   10  C   UNL     1     -44.223 -52.960  15.341  1.00  0.00     0.145 C 
HETATM   11  N   UNL     1     -44.697 -53.242  13.976  1.00  0.00    -0.349 N 
HETATM   12  C   UNL     1     -43.988 -54.361  13.363  1.00  0.00     0.145 C 
HETATM   13  C   UNL     1     -45.643 -52.572  13.229  1.00  0.00     0.215 C 
HETATM   14  C   UNL     1     -42.483 -54.076  13.296  1.00  0.00     0.144 C 
HETATM   15  O   UNL     1     -45.889 -52.895  12.061  1.00  0.00    -0.274 OA
HETATM   16  C   UNL     1     -46.414 -51.424  13.825  1.00  0.00     0.117 C 
ENDBRANCH   7   8
BRANCH   1  17
HETATM   17  N   UNL     1     -39.042 -53.398  14.039  1.00  0.00    -0.322 N 
HETATM   18  C   UNL     1     -38.784 -52.091  14.433  1.00  0.00     0.251 C 
HETATM   19  O   UNL     1     -38.910 -51.677  15.585  1.00  0.00    -0.270 OA
HETATM   20  H   UNL     1     -38.666 -53.701  13.150  1.00  0.00     0.169 HD
BRANCH  18  21
HETATM   21  C   UNL     1     -38.180 -51.218  13.315  1.00  0.00     0.208 C 
HETATM   22  C   UNL     1     -37.950 -49.797  13.831  1.00  0.00     0.049 C 
BRANCH  21  23
HETATM   23  O   UNL     1     -39.047 -51.268  12.178  1.00  0.00    -0.382 OA
HETATM   24  C   UNL     1     -39.570 -50.004  11.793  1.00  0.00     0.202 C 
ENDBRANCH  21  23
ENDBRANCH  18  21
ENDBRANCH   1  17
BRANCH   4  25
HETATM   25  O   UNL     1     -40.682 -57.176  17.690  1.00  0.00    -0.341 OA
HETATM   26  C   UNL     1     -39.572 -57.908  18.185  1.00  0.00     0.211 C 
ENDBRANCH   4  25
TORSDOF 5
ENDMDL
MODEL 9
REMARK VINA RESULT:      -5.5      5.434      8.166
REMARK  5 active torsions:
REMARK  status: ('A' for Active; 'I' for Inactive)
REMARK    1  A    between atoms: O_2  and  C_3 
REMARK    2  A    between atoms: C_3  and  C_5 
REMARK       I    between atoms: C_5  and  N_7 
REMARK    3  A    between atoms: N_7  and  C_8 
REMARK    4  A    between atoms: C_11  and  O_12 
REMARK    5  A    between atoms: C_16  and  N_17 
REMARK       I    between atoms: N_20  and  C_23 
ROOT
HETATM    1  C   UNL     1     -41.675 -51.696  12.408  1.00  0.00     0.079 A 
HETATM    2  C   UNL     1     -41.453 -50.551  11.629  1.00  0.00     0.038 A 
HETATM    3  C   UNL     1     -40.246 -49.891  11.702  1.00  0.00     0.058 A 
HETATM    4  C   UNL     1     -39.285 -50.414  12.533  1.00  0.00     0.143 A 
HETATM    5  N   UNL     1     -39.466 -51.504  13.328  1.00  0.00    -0.321 N 
ATOM      6  HN  UNL     1     -38.719 -51.826  13.943  1.00  0.00     0.169 HD
HETATM    7  C   UNL     1     -40.660 -52.159  13.288  1.00  0.00     0.132 A 
ENDROOT
BRANCH   7   8
HETATM    8  N   UNL     1     -40.788 -53.277  14.103  1.00  0.00    -0.362 N 
HETATM    9  C   UNL     1     -41.528 -53.170  15.381  1.00  0.00     0.144 C 
HETATM   10  C   UNL     1     -40.730 -53.701  16.597  1.00  0.00     0.145 C 
HETATM   11  N   UNL     1     -40.037 -54.969  16.317  1.00  0.00    -0.349 N 
HETATM   12  C   UNL     1     -39.214 -54.897  15.113  1.00  0.00     0.145 C 
HETATM   13  C   UNL     1     -40.114 -56.169  16.992  1.00  0.00     0.215 C 
HETATM   14  C   UNL     1     -40.072 -54.542  13.893  1.00  0.00     0.144 C 
HETATM   15  O   UNL     1     -39.513 -57.174  16.593  1.00  0.00    -0.274 OA
HETATM   16  C   UNL     1     -40.935 -56.287  18.249  1.00  0.00     0.117 C 
ENDBRANCH   7   8
BRANCH   1  17
HETATM   17  N   UNL     1     -42.970 -52.255  12.341  1.00  0.00    -0.322 N 
HETATM   18  C   UNL     1     -44.026 -51.806  13.125  1.00  0.00     0.251 C 
HETATM   19  O   UNL     1     -43.955 -50.852  13.900  1.00  0.00    -0.270 OA
HETATM   20  H   UNL     1     -43.192 -52.861  11.561  1.00  0.00     0.169 HD
BRANCH  18  21
HETATM   21  C   UNL     1     -45.358 -52.523  12.835  1.00  0.00     0.208 C 
HETATM   22  C   UNL     1     -46.336 -52.291  13.988  1.00  0.00     0.049 C 
BRANCH  21  23
HETATM   23  O   UNL     1     -45.089 -53.909  12.600  1.00  0.00    -0.382 OA
HETATM   24  C   UNL     1     -45.330 -54.745  13.723  1.00  0.00     0.202 C 
ENDBRANCH  21  23
ENDBRANCH  18  21
ENDBRANCH   1  17
BRANCH   4  25
HETATM   25  O   UNL     1     -38.083 -49.731  12.526  1.00  0.00    -0.341 OA
HETATM   26  C   UNL     1     -37.342 -49.885  11.326  1.00  0.00     0.211 C 
ENDBRANCH   4  25
TORSDOF 5
ENDMDL
