MODEL 1
REMARK VINA RESULT:      -4.6      0.000      0.000
REMARK  1 active torsions:
REMARK  status: ('A' for Active; 'I' for Inactive)
REMARK    1  A    between atoms: C_5  and  C_7 
ROOT
HETATM    1  C   UNL     1     -45.911 -51.865  14.802  1.00  0.00     0.031 C 
HETATM    2  C   UNL     1     -46.812 -53.052  14.465  1.00  0.00     0.269 C 
HETATM    3  N   UNL     1     -46.094 -54.320  14.592  1.00  0.00     0.084 N 
HETATM    4  C   UNL     1     -44.915 -54.360  13.719  1.00  0.00     0.279 C 
HETATM    5  C   UNL     1     -43.931 -53.208  14.014  1.00  0.00     0.049 C 
HETATM    6  C   UNL     1     -44.657 -51.856  13.931  1.00  0.00     0.013 C 
HETATM    7  H   UNL     1     -46.719 -55.088  14.346  1.00  0.00     0.315 HD
ENDROOT
BRANCH   5   8
HETATM    8  C   UNL     1     -42.727 -53.251  13.118  1.00  0.00    -0.019 A 
HETATM    9  C   UNL     1     -42.366 -52.359  12.080  1.00  0.00     0.116 A 
HETATM   10  N   UNL     1     -41.225 -52.699  11.480  1.00  0.00    -0.312 N 
HETATM   11  N   UNL     1     -40.843 -53.808  12.131  1.00  0.00    -0.312 N 
ATOM     12  HN  UNL     1     -40.754 -52.227  10.708  1.00  0.00     0.186 HD
HETATM   13  C   UNL     1     -41.707 -54.180  13.119  1.00  0.00     0.116 A 
HETATM   14  H   UNL     1     -39.979 -54.260  11.849  1.00  0.00     0.186 HD
ENDBRANCH   5   8
TORSDOF 1
ENDMDL
MODEL 2
REMARK VINA RESULT:      -4.4      6.395      7.876
REMARK  1 active torsions:
REMARK  status: ('A' for Active; 'I' for Inactive)
REMARK    1  A    between atoms: C_5  and  C_7 
ROOT
HETATM    1  C   UNL     1     -40.725 -45.596  11.585  1.00  0.00     0.031 C 
HETATM    2  C   UNL     1     -40.101 -46.836  12.221  1.00  0.00     0.269 C 
HETATM    3  N   UNL     1     -39.987 -47.930  11.257  1.00  0.00     0.084 N 
HETATM    4  C   UNL     1     -41.294 -48.293  10.698  1.00  0.00     0.279 C 
HETATM    5  C   UNL     1     -41.984 -47.100  10.004  1.00  0.00     0.049 C 
HETATM    6  C   UNL     1     -42.088 -45.912  10.973  1.00  0.00     0.013 C 
HETATM    7  H   UNL     1     -39.581 -48.745  11.718  1.00  0.00     0.315 HD
ENDROOT
BRANCH   5   8
HETATM    8  C   UNL     1     -43.322 -47.475   9.435  1.00  0.00    -0.019 A 
HETATM    9  C   UNL     1     -44.556 -47.635  10.110  1.00  0.00     0.116 A 
HETATM   10  N   UNL     1     -45.551 -47.979   9.292  1.00  0.00    -0.312 N 
HETATM   11  N   UNL     1     -44.965 -48.037   8.086  1.00  0.00    -0.312 N 
ATOM     12  HN  UNL     1     -46.528 -48.155   9.527  1.00  0.00     0.186 HD
HETATM   13  C   UNL     1     -43.633 -47.745   8.118  1.00  0.00     0.116 A 
HETATM   14  H   UNL     1     -45.536 -48.282   7.284  1.00  0.00     0.186 HD
ENDBRANCH   5   8
TORSDOF 1
ENDMDL
MODEL 3
REMARK VINA RESULT:      -4.3      2.589      4.764
REMARK  1 active torsions:
REMARK  status: ('A' for Active; 'I' for Inactive)
REMARK    1  A    between atoms: C_5  and  C_7 
ROOT
HETATM    1  C   UNL     1     -40.556 -55.235  16.647  1.00  0.00     0.031 C 
HETATM    2  C   UNL     1     -39.294 -55.929  16.141  1.00  0.00     0.269 C 
HETATM    3  N   UNL     1     -38.521 -55.054  15.259  1.00  0.00     0.084 N 
HETATM    4  C   UNL     1     -39.315 -54.617  14.105  1.00  0.00     0.279 C 
HETATM    5  C   UNL     1     -40.600 -53.874  14.527  1.00  0.00     0.049 C 
HETATM    6  C   UNL     1     -41.423 -54.745  15.489  1.00  0.00     0.013 C 
HETATM    7  H   UNL     1     -37.695 -55.554  14.928  1.00  0.00     0.315 HD
ENDROOT
BRANCH   5   8
HETATM    8  C   UNL     1     -41.410 -53.430  13.344  1.00  0.00    -0.019 A 
HETATM    9  C   UNL     1     -42.798 -53.584  13.117  1.00  0.00     0.116 A 
HETATM   10  N   UNL     1     -43.191 -53.070  11.950  1.00  0.00    -0.312 N 
HETATM   11  N   UNL     1     -42.059 -52.579  11.423  1.00  0.00    -0.312 N 
ATOM     12  HN  UNL     1     -44.130 -53.055  11.552  1.00  0.00     0.186 HD
HETATM   13  C   UNL     1     -40.966 -52.770  12.217  1.00  0.00     0.116 A 
HETATM   14  H   UNL     1     -42.106 -52.126  10.517  1.00  0.00     0.186 HD
ENDBRANCH   5   8
TORSDOF 1
ENDMDL
MODEL 4
REMARK VINA RESULT:      -4.3      1.557      4.572
REMARK  1 active torsions:
REMARK  status: ('A' for Active; 'I' for Inactive)
REMARK    1  A    between atoms: C_5  and  C_7 
ROOT
HETATM    1  C   UNL     1     -40.938 -52.130  12.414  1.00  0.00     0.031 C 
HETATM    2  C   UNL     1     -40.118 -52.774  13.530  1.00  0.00     0.269 C 
HETATM    3  N   UNL     1     -40.483 -54.178  13.719  1.00  0.00     0.084 N 
HETATM    4  C   UNL     1     -41.908 -54.325  14.034  1.00  0.00     0.279 C 
HETATM    5  C   UNL     1     -42.814 -53.727  12.938  1.00  0.00     0.049 C 
HETATM    6  C   UNL     1     -42.435 -52.260  12.679  1.00  0.00     0.013 C 
HETATM    7  H   UNL     1     -39.929 -54.571  14.480  1.00  0.00     0.315 HD
ENDROOT
BRANCH   5   8
HETATM    8  C   UNL     1     -44.272 -53.878  13.264  1.00  0.00    -0.019 A 
HETATM    9  C   UNL     1     -44.913 -54.917  13.982  1.00  0.00     0.116 A 
HETATM   10  N   UNL     1     -46.230 -54.736  14.086  1.00  0.00    -0.312 N 
HETATM   11  N   UNL     1     -46.443 -53.579  13.441  1.00  0.00    -0.312 N 
ATOM     12  HN  UNL     1     -46.914 -55.336  14.547  1.00  0.00     0.186 HD
HETATM   13  C   UNL     1     -45.304 -53.026  12.931  1.00  0.00     0.116 A 
HETATM   14  H   UNL     1     -47.392 -53.224  13.388  1.00  0.00     0.186 HD
ENDBRANCH   5   8
TORSDOF 1
ENDMDL
MODEL 5
REMARK VINA RESULT:      -4.2      6.317      8.055
REMARK  1 active torsions:
REMARK  status: ('A' for Active; 'I' for Inactive)
REMARK    1  A    between atoms: C_5  and  C_7 
ROOT
HETATM    1  C   UNL     1     -39.473 -44.933  13.836  1.00  0.00     0.031 C 
HETATM    2  C   UNL     1     -39.493 -43.900  12.712  1.00  0.00     0.269 C 
HETATM    3  N   UNL     1     -40.537 -44.200  11.731  1.00  0.00     0.084 N 
HETATM    4  C   UNL     1     -40.357 -45.532  11.144  1.00  0.00     0.279 C 
HETATM    5  C   UNL     1     -40.355 -46.646  12.213  1.00  0.00     0.049 C 
HETATM    6  C   UNL     1     -39.298 -46.347  13.287  1.00  0.00     0.013 C 
HETATM    7  H   UNL     1     -40.512 -43.500  10.988  1.00  0.00     0.315 HD
ENDROOT
BRANCH   5   8
HETATM    8  C   UNL     1     -40.170 -48.008  11.609  1.00  0.00    -0.019 A 
HETATM    9  C   UNL     1     -41.054 -48.731  10.774  1.00  0.00     0.116 A 
HETATM   10  N   UNL     1     -40.570 -49.922  10.418  1.00  0.00    -0.312 N 
HETATM   11  N   UNL     1     -39.371 -49.969  11.018  1.00  0.00    -0.312 N 
ATOM     12  HN  UNL     1     -41.009 -50.630   9.829  1.00  0.00     0.186 HD
HETATM   13  C   UNL     1     -39.085 -48.849  11.742  1.00  0.00     0.116 A 
HETATM   14  H   UNL     1     -38.800 -50.797  10.889  1.00  0.00     0.186 HD
ENDBRANCH   5   8
TORSDOF 1
ENDMDL
MODEL 6
REMARK VINA RESULT:      -4.2      1.908      2.263
REMARK  1 active torsions:
REMARK  status: ('A' for Active; 'I' for Inactive)
REMARK    1  A    between atoms: C_5  and  C_7 
ROOT
HETATM    1  C   UNL     1     -47.064 -51.325  15.463  1.00  0.00     0.031 C 
HETATM    2  C   UNL     1     -46.651 -52.206  16.640  1.00  0.00     0.269 C 
HETATM    3  N   UNL     1     -45.250 -51.992  17.001  1.00  0.00     0.084 N 
HETATM    4  C   UNL     1     -44.355 -52.264  15.870  1.00  0.00     0.279 C 
HETATM    5  C   UNL     1     -44.684 -51.390  14.642  1.00  0.00     0.049 C 
HETATM    6  C   UNL     1     -46.161 -51.555  14.254  1.00  0.00     0.013 C 
HETATM    7  H   UNL     1     -45.004 -52.605  17.778  1.00  0.00     0.315 HD
ENDROOT
BRANCH   5   8
HETATM    8  C   UNL     1     -43.767 -51.672  13.487  1.00  0.00    -0.019 A 
HETATM    9  C   UNL     1     -42.752 -50.849  12.944  1.00  0.00     0.116 A 
HETATM   10  N   UNL     1     -42.127 -51.414  11.910  1.00  0.00    -0.312 N 
HETATM   11  N   UNL     1     -42.733 -52.604  11.785  1.00  0.00    -0.312 N 
ATOM     12  HN  UNL     1     -41.367 -51.031  11.346  1.00  0.00     0.186 HD
HETATM   13  C   UNL     1     -43.722 -52.806  12.704  1.00  0.00     0.116 A 
HETATM   14  H   UNL     1     -42.421 -53.229  11.050  1.00  0.00     0.186 HD
ENDBRANCH   5   8
TORSDOF 1
ENDMDL
MODEL 7
REMARK VINA RESULT:      -4.2      5.914      7.851
REMARK  1 active torsions:
REMARK  status: ('A' for Active; 'I' for Inactive)
REMARK    1  A    between atoms: C_5  and  C_7 
ROOT
HETATM    1  C   UNL     1     -38.851 -48.992  12.065  1.00  0.00     0.031 C 
HETATM    2  C   UNL     1     -39.680 -50.178  11.575  1.00  0.00     0.269 C 
HETATM    3  N   UNL     1     -40.489 -49.818  10.411  1.00  0.00     0.084 N 
HETATM    4  C   UNL     1     -41.392 -48.700  10.707  1.00  0.00     0.279 C 
HETATM    5  C   UNL     1     -40.632 -47.444  11.181  1.00  0.00     0.049 C 
HETATM    6  C   UNL     1     -39.736 -47.789  12.381  1.00  0.00     0.013 C 
HETATM    7  H   UNL     1     -41.040 -50.626  10.120  1.00  0.00     0.315 HD
ENDROOT
BRANCH   5   8
HETATM    8  C   UNL     1     -41.559 -46.304  11.485  1.00  0.00    -0.019 A 
HETATM    9  C   UNL     1     -42.140 -45.375  10.588  1.00  0.00     0.116 A 
HETATM   10  N   UNL     1     -42.918 -44.482  11.202  1.00  0.00    -0.312 N 
HETATM   11  N   UNL     1     -42.846 -44.834  12.494  1.00  0.00    -0.312 N 
ATOM     12  HN  UNL     1     -43.444 -43.714  10.786  1.00  0.00     0.186 HD
HETATM   13  C   UNL     1     -42.046 -45.917  12.716  1.00  0.00     0.116 A 
HETATM   14  H   UNL     1     -43.371 -44.291  13.172  1.00  0.00     0.186 HD
ENDBRANCH   5   8
TORSDOF 1
ENDMDL
MODEL 8
REMARK VINA RESULT:      -4.2      3.201      5.734
REMARK  1 active torsions:
REMARK  status: ('A' for Active; 'I' for Inactive)
REMARK    1  A    between atoms: C_5  and  C_7 
ROOT
HETATM    1  C   UNL     1     -46.323 -51.768  12.949  1.00  0.00     0.031 C 
HETATM    2  C   UNL     1     -45.576 -53.099  12.921  1.00  0.00     0.269 C 
HETATM    3  N   UNL     1     -46.241 -54.102  13.753  1.00  0.00     0.084 N 
HETATM    4  C   UNL     1     -46.357 -53.654  15.146  1.00  0.00     0.279 C 
HETATM    5  C   UNL     1     -47.130 -52.324  15.269  1.00  0.00     0.049 C 
HETATM    6  C   UNL     1     -46.486 -51.252  14.376  1.00  0.00     0.013 C 
HETATM    7  H   UNL     1     -45.709 -54.971  13.724  1.00  0.00     0.315 HD
ENDROOT
BRANCH   5   8
HETATM    8  C   UNL     1     -47.246 -51.868  16.695  1.00  0.00    -0.019 A 
HETATM    9  C   UNL     1     -48.111 -50.890  17.242  1.00  0.00     0.116 A 
HETATM   10  N   UNL     1     -47.945 -50.731  18.556  1.00  0.00    -0.312 N 
HETATM   11  N   UNL     1     -46.978 -51.609  18.862  1.00  0.00    -0.312 N 
ATOM     12  HN  UNL     1     -48.439 -50.093  19.180  1.00  0.00     0.186 HD
HETATM   13  C   UNL     1     -46.525 -52.312  17.784  1.00  0.00     0.116 A 
HETATM   14  H   UNL     1     -46.675 -51.675  19.828  1.00  0.00     0.186 HD
ENDBRANCH   5   8
TORSDOF 1
ENDMDL
MODEL 9
REMARK VINA RESULT:      -4.2      1.784      2.494
REMARK  1 active torsions:
REMARK  status: ('A' for Active; 'I' for Inactive)
REMARK    1  A    between atoms: C_5  and  C_7 
ROOT
HETATM    1  C   UNL     1     -45.692 -54.573  13.959  1.00  0.00     0.031 C 
HETATM    2  C   UNL     1     -46.027 -53.144  13.536  1.00  0.00     0.269 C 
HETATM    3  N   UNL     1     -45.170 -52.698  12.438  1.00  0.00     0.084 N 
HETATM    4  C   UNL     1     -43.750 -52.763  12.802  1.00  0.00     0.279 C 
HETATM    5  C   UNL     1     -43.316 -54.185  13.214  1.00  0.00     0.049 C 
HETATM    6  C   UNL     1     -44.220 -54.709  14.342  1.00  0.00     0.013 C 
HETATM    7  H   UNL     1     -45.410 -51.738  12.192  1.00  0.00     0.315 HD
ENDROOT
BRANCH   5   8
HETATM    8  C   UNL     1     -41.864 -54.246  13.588  1.00  0.00    -0.019 A 
HETATM    9  C   UNL     1     -41.288 -54.395  14.873  1.00  0.00     0.116 A 
HETATM   10  N   UNL     1     -39.955 -54.407  14.843  1.00  0.00    -0.312 N 
HETATM   11  N   UNL     1     -39.666 -54.272  13.541  1.00  0.00    -0.312 N 
ATOM     12  HN  UNL     1     -39.308 -54.498  15.627  1.00  0.00     0.186 HD
HETATM   13  C   UNL     1     -40.772 -54.171  12.749  1.00  0.00     0.116 A 
HETATM   14  H   UNL     1     -38.690 -54.256  13.262  1.00  0.00     0.186 HD
ENDBRANCH   5   8
TORSDOF 1
ENDMDL
