MODEL 1
REMARK VINA RESULT:      -7.2      0.000      0.000
REMARK  2 active torsions:
REMARK  status: ('A' for Active; 'I' for Inactive)
REMARK    1  A    between atoms: C_5  and  N_6 
REMARK       I    between atoms: N_6  and  C_7 
REMARK       I    between atoms: C_7  and  N_9 
REMARK    2  A    between atoms: N_9  and  C_10 
ROOT
HETATM    1  N   UNL     1     -41.468 -51.111  12.689  1.00  0.00    -0.295 N 
HETATM    2  C   UNL     1     -41.051 -50.229  11.735  1.00  0.00     0.322 C 
HETATM    3  O   UNL     1     -39.857 -50.124  11.472  1.00  0.00    -0.247 OA
HETATM    4  N   UNL     1     -42.008 -49.441  11.162  1.00  0.00    -0.337 N 
HETATM    5  H   UNL     1     -40.698 -51.580  13.146  1.00  0.00     0.172 HD
HETATM    6  H   UNL     1     -42.948 -49.652  11.492  1.00  0.00     0.164 HD
ENDROOT
BRANCH   4   7
HETATM    7  C   UNL     1     -41.730 -48.200  10.431  1.00  0.00     0.103 C 
HETATM    8  C   UNL     1     -42.929 -47.555   9.651  1.00  0.00     0.041 C 
HETATM    9  C   UNL     1     -43.515 -46.903   8.403  1.00  0.00     0.035 C 
HETATM   10  C   UNL     1     -42.136 -46.225  10.015  1.00  0.00     0.138 C 
HETATM   11  C   UNL     1     -44.072 -45.578   8.980  1.00  0.00     0.168 C 
HETATM   12  O   UNL     1     -43.028 -45.111   9.846  1.00  0.00    -0.385 OA
HETATM   13  C   UNL     1     -41.835 -46.883  11.367  1.00  0.00     0.007 C 
HETATM   14  C   UNL     1     -40.550 -46.501  12.102  1.00  0.00     0.014 C 
HETATM   15  C   UNL     1     -42.971 -46.672  12.384  1.00  0.00     0.014 C 
HETATM   16  C   UNL     1     -40.924 -46.473  13.590  1.00  0.00     0.001 C 
HETATM   17  C   UNL     1     -42.331 -47.031  13.699  1.00  0.00     0.001 C 
ENDBRANCH   4   7
BRANCH   1  18
HETATM   18  C   UNL     1     -42.753 -51.275  13.219  1.00  0.00     0.108 A 
HETATM   19  C   UNL     1     -43.098 -50.544  14.351  1.00  0.00     0.049 A 
HETATM   20  C   UNL     1     -44.421 -50.592  14.803  1.00  0.00     0.012 A 
HETATM   21  C   UNL     1     -45.352 -51.391  14.149  1.00  0.00    -0.046 A 
HETATM   22  C   UNL     1     -46.788 -51.458  14.561  1.00  0.00     0.049 C 
HETATM   23  C   UNL     1     -44.895 -52.141  13.078  1.00  0.00     0.096 A 
HETATM   24  N   UNL     1     -43.635 -52.081  12.592  1.00  0.00    -0.352 N 
ATOM     25  HN  UNL     1     -43.359 -52.627  11.776  1.00  0.00     0.166 HD
ENDBRANCH   1  18
TORSDOF 2
ENDMDL
MODEL 2
REMARK VINA RESULT:      -6.4      3.854      7.673
REMARK  2 active torsions:
REMARK  status: ('A' for Active; 'I' for Inactive)
REMARK    1  A    between atoms: C_5  and  N_6 
REMARK       I    between atoms: N_6  and  C_7 
REMARK       I    between atoms: C_7  and  N_9 
REMARK    2  A    between atoms: N_9  and  C_10 
ROOT
HETATM    1  N   UNL     1     -43.242 -53.068  11.941  1.00  0.00    -0.295 N 
HETATM    2  C   UNL     1     -43.923 -53.850  12.827  1.00  0.00     0.322 C 
HETATM    3  O   UNL     1     -44.870 -54.532  12.447  1.00  0.00    -0.247 OA
HETATM    4  N   UNL     1     -43.547 -53.771  14.138  1.00  0.00    -0.337 N 
HETATM    5  H   UNL     1     -43.644 -53.093  11.014  1.00  0.00     0.172 HD
HETATM    6  H   UNL     1     -42.747 -53.159  14.286  1.00  0.00     0.164 HD
ENDROOT
BRANCH   4   7
HETATM    7  C   UNL     1     -44.375 -54.209  15.266  1.00  0.00     0.103 C 
HETATM    8  C   UNL     1     -43.726 -54.134  16.692  1.00  0.00     0.041 C 
HETATM    9  C   UNL     1     -43.425 -54.743  18.057  1.00  0.00     0.035 C 
HETATM   10  C   UNL     1     -45.240 -53.873  17.103  1.00  0.00     0.138 C 
HETATM   11  C   UNL     1     -43.991 -53.660  19.010  1.00  0.00     0.168 C 
HETATM   12  O   UNL     1     -45.254 -53.311  18.426  1.00  0.00    -0.385 OA
HETATM   13  C   UNL     1     -45.351 -53.041  15.820  1.00  0.00     0.007 C 
HETATM   14  C   UNL     1     -46.708 -52.939  15.123  1.00  0.00     0.014 C 
HETATM   15  C   UNL     1     -44.880 -51.590  16.023  1.00  0.00     0.014 C 
HETATM   16  C   UNL     1     -46.788 -51.500  14.597  1.00  0.00     0.001 C 
HETATM   17  C   UNL     1     -45.421 -50.876  14.812  1.00  0.00     0.001 C 
ENDBRANCH   4   7
BRANCH   1  18
HETATM   18  C   UNL     1     -42.237 -52.129  12.204  1.00  0.00     0.108 A 
HETATM   19  C   UNL     1     -40.950 -52.593  12.449  1.00  0.00     0.049 A 
HETATM   20  C   UNL     1     -39.913 -51.661  12.570  1.00  0.00     0.012 A 
HETATM   21  C   UNL     1     -40.186 -50.301  12.487  1.00  0.00    -0.046 A 
HETATM   22  C   UNL     1     -39.119 -49.258  12.574  1.00  0.00     0.049 C 
HETATM   23  C   UNL     1     -41.511 -49.934  12.319  1.00  0.00     0.096 A 
HETATM   24  N   UNL     1     -42.526 -50.812  12.154  1.00  0.00    -0.352 N 
ATOM     25  HN  UNL     1     -43.480 -50.489  11.995  1.00  0.00     0.166 HD
ENDBRANCH   1  18
TORSDOF 2
ENDMDL
MODEL 3
REMARK VINA RESULT:      -6.3      2.385      6.711
REMARK  2 active torsions:
REMARK  status: ('A' for Active; 'I' for Inactive)
REMARK    1  A    between atoms: C_5  and  N_6 
REMARK       I    between atoms: N_6  and  C_7 
REMARK       I    between atoms: C_7  and  N_9 
REMARK    2  A    between atoms: N_9  and  C_10 
ROOT
HETATM    1  N   UNL     1     -41.061 -49.637  11.997  1.00  0.00    -0.295 N 
HETATM    2  C   UNL     1     -41.326 -50.864  12.532  1.00  0.00     0.322 C 
HETATM    3  O   UNL     1     -40.426 -51.520  13.047  1.00  0.00    -0.247 OA
HETATM    4  N   UNL     1     -42.600 -51.336  12.394  1.00  0.00    -0.337 N 
HETATM    5  H   UNL     1     -40.079 -49.401  12.038  1.00  0.00     0.172 HD
HETATM    6  H   UNL     1     -43.225 -50.671  11.942  1.00  0.00     0.164 HD
ENDROOT
BRANCH   4   7
HETATM    7  C   UNL     1     -42.982 -52.745  12.540  1.00  0.00     0.103 C 
HETATM    8  C   UNL     1     -42.402 -53.510  13.780  1.00  0.00     0.041 C 
HETATM    9  C   UNL     1     -41.737 -54.732  14.405  1.00  0.00     0.035 C 
HETATM   10  C   UNL     1     -43.782 -54.289  13.641  1.00  0.00     0.138 C 
HETATM   11  C   UNL     1     -42.750 -55.100  15.517  1.00  0.00     0.168 C 
HETATM   12  O   UNL     1     -44.027 -54.988  14.873  1.00  0.00    -0.385 OA
HETATM   13  C   UNL     1     -44.407 -52.934  13.287  1.00  0.00     0.007 C 
HETATM   14  C   UNL     1     -45.632 -52.905  12.374  1.00  0.00     0.014 C 
HETATM   15  C   UNL     1     -44.804 -52.131  14.538  1.00  0.00     0.014 C 
HETATM   16  C   UNL     1     -46.524 -51.784  12.924  1.00  0.00     0.001 C 
HETATM   17  C   UNL     1     -45.718 -51.066  13.991  1.00  0.00     0.001 C 
ENDBRANCH   4   7
BRANCH   1  18
HETATM   18  C   UNL     1     -41.913 -48.810  11.256  1.00  0.00     0.108 A 
HETATM   19  C   UNL     1     -42.923 -48.131  11.929  1.00  0.00     0.049 A 
HETATM   20  C   UNL     1     -43.686 -47.194  11.224  1.00  0.00     0.012 A 
HETATM   21  C   UNL     1     -43.457 -46.987   9.869  1.00  0.00    -0.046 A 
HETATM   22  C   UNL     1     -44.214 -45.977   9.068  1.00  0.00     0.049 C 
HETATM   23  C   UNL     1     -42.482 -47.767   9.270  1.00  0.00     0.096 A 
HETATM   24  N   UNL     1     -41.699 -48.646   9.934  1.00  0.00    -0.352 N 
ATOM     25  HN  UNL     1     -40.968 -49.169   9.451  1.00  0.00     0.166 HD
ENDBRANCH   1  18
TORSDOF 2
ENDMDL
MODEL 4
REMARK VINA RESULT:      -6.1      2.114      3.231
REMARK  2 active torsions:
REMARK  status: ('A' for Active; 'I' for Inactive)
REMARK    1  A    between atoms: C_5  and  N_6 
REMARK       I    between atoms: N_6  and  C_7 
REMARK       I    between atoms: C_7  and  N_9 
REMARK    2  A    between atoms: N_9  and  C_10 
ROOT
HETATM    1  N   UNL     1     -42.620 -53.044  12.789  1.00  0.00    -0.295 N 
HETATM    2  C   UNL     1     -41.669 -52.377  12.072  1.00  0.00     0.322 C 
HETATM    3  O   UNL     1     -40.663 -52.964  11.686  1.00  0.00    -0.247 OA
HETATM    4  N   UNL     1     -41.863 -51.039  11.884  1.00  0.00    -0.337 N 
HETATM    5  H   UNL     1     -42.357 -54.000  12.984  1.00  0.00     0.172 HD
HETATM    6  H   UNL     1     -42.745 -50.706  12.268  1.00  0.00     0.164 HD
ENDROOT
BRANCH   4   7
HETATM    7  C   UNL     1     -40.809 -50.095  11.499  1.00  0.00     0.103 C 
HETATM    8  C   UNL     1     -41.204 -48.577  11.441  1.00  0.00     0.041 C 
HETATM    9  C   UNL     1     -41.195 -47.220  10.746  1.00  0.00     0.035 C 
HETATM   10  C   UNL     1     -39.679 -48.412  11.859  1.00  0.00     0.138 C 
HETATM   11  C   UNL     1     -40.592 -46.313  11.848  1.00  0.00     0.168 C 
HETATM   12  O   UNL     1     -39.495 -47.079  12.364  1.00  0.00    -0.385 OA
HETATM   13  C   UNL     1     -39.883 -49.644  12.750  1.00  0.00     0.007 C 
HETATM   14  C   UNL     1     -38.688 -50.551  13.037  1.00  0.00     0.014 C 
HETATM   15  C   UNL     1     -40.465 -49.278  14.126  1.00  0.00     0.014 C 
HETATM   16  C   UNL     1     -38.855 -50.997  14.496  1.00  0.00     0.001 C 
HETATM   17  C   UNL     1     -40.223 -50.517  14.947  1.00  0.00     0.001 C 
ENDBRANCH   4   7
BRANCH   1  18
HETATM   18  C   UNL     1     -43.753 -52.523  13.425  1.00  0.00     0.108 A 
HETATM   19  C   UNL     1     -44.983 -52.655  12.792  1.00  0.00     0.049 A 
HETATM   20  C   UNL     1     -46.138 -52.268  13.481  1.00  0.00     0.012 A 
HETATM   21  C   UNL     1     -46.037 -51.724  14.757  1.00  0.00    -0.046 A 
HETATM   22  C   UNL     1     -47.234 -51.322  15.558  1.00  0.00     0.049 C 
HETATM   23  C   UNL     1     -44.763 -51.560  15.272  1.00  0.00     0.096 A 
HETATM   24  N   UNL     1     -43.634 -51.966  14.648  1.00  0.00    -0.352 N 
ATOM     25  HN  UNL     1     -42.721 -51.856  15.089  1.00  0.00     0.166 HD
ENDBRANCH   1  18
TORSDOF 2
ENDMDL
MODEL 5
REMARK VINA RESULT:      -6.1      3.350      4.628
REMARK  2 active torsions:
REMARK  status: ('A' for Active; 'I' for Inactive)
REMARK    1  A    between atoms: C_5  and  N_6 
REMARK       I    between atoms: N_6  and  C_7 
REMARK       I    between atoms: C_7  and  N_9 
REMARK    2  A    between atoms: N_9  and  C_10 
ROOT
HETATM    1  N   UNL     1     -40.863 -51.667  11.328  1.00  0.00    -0.295 N 
HETATM    2  C   UNL     1     -40.560 -50.375  11.645  1.00  0.00     0.322 C 
HETATM    3  O   UNL     1     -39.731 -49.756  10.986  1.00  0.00    -0.247 OA
HETATM    4  N   UNL     1     -41.164 -49.854  12.754  1.00  0.00    -0.337 N 
HETATM    5  H   UNL     1     -40.300 -52.020  10.567  1.00  0.00     0.172 HD
HETATM    6  H   UNL     1     -41.823 -50.496  13.189  1.00  0.00     0.164 HD
ENDROOT
BRANCH   4   7
HETATM    7  C   UNL     1     -40.693 -48.663  13.470  1.00  0.00     0.103 C 
HETATM    8  C   UNL     1     -41.490 -48.252  14.758  1.00  0.00     0.041 C 
HETATM    9  C   UNL     1     -42.167 -47.202  15.632  1.00  0.00     0.035 C 
HETATM   10  C   UNL     1     -40.049 -47.733  15.190  1.00  0.00     0.138 C 
HETATM   11  C   UNL     1     -41.435 -47.406  16.983  1.00  0.00     0.168 C 
HETATM   12  O   UNL     1     -40.055 -47.531  16.613  1.00  0.00    -0.385 OA
HETATM   13  C   UNL     1     -39.492 -48.988  14.507  1.00  0.00     0.007 C 
HETATM   14  C   UNL     1     -38.085 -48.938  13.911  1.00  0.00     0.014 C 
HETATM   15  C   UNL     1     -39.504 -50.213  15.438  1.00  0.00     0.014 C 
HETATM   16  C   UNL     1     -37.476 -50.319  14.189  1.00  0.00     0.001 C 
HETATM   17  C   UNL     1     -38.592 -51.188  14.741  1.00  0.00     0.001 C 
ENDBRANCH   4   7
BRANCH   1  18
HETATM   18  C   UNL     1     -41.668 -52.569  12.033  1.00  0.00     0.108 A 
HETATM   19  C   UNL     1     -41.068 -53.378  12.993  1.00  0.00     0.049 A 
HETATM   20  C   UNL     1     -41.884 -54.178  13.800  1.00  0.00     0.012 A 
HETATM   21  C   UNL     1     -43.261 -54.186  13.607  1.00  0.00    -0.046 A 
HETATM   22  C   UNL     1     -44.189 -54.992  14.458  1.00  0.00     0.049 C 
HETATM   23  C   UNL     1     -43.757 -53.407  12.575  1.00  0.00     0.096 A 
HETATM   24  N   UNL     1     -42.998 -52.590  11.810  1.00  0.00    -0.352 N 
ATOM     25  HN  UNL     1     -43.419 -52.007  11.086  1.00  0.00     0.166 HD
ENDBRANCH   1  18
TORSDOF 2
ENDMDL
MODEL 6
REMARK VINA RESULT:      -6.0      3.197      6.428
REMARK  2 active torsions:
REMARK  status: ('A' for Active; 'I' for Inactive)
REMARK    1  A    between atoms: C_5  and  N_6 
REMARK       I    between atoms: N_6  and  C_7 
REMARK       I    between atoms: C_7  and  N_9 
REMARK    2  A    between atoms: N_9  and  C_10 
ROOT
HETATM    1  N   UNL     1     -40.091 -50.157  15.231  1.00  0.00    -0.295 N 
HETATM    2  C   UNL     1     -41.125 -50.990  15.545  1.00  0.00     0.322 C 
HETATM    3  O   UNL     1     -40.980 -51.857  16.402  1.00  0.00    -0.247 OA
HETATM    4  N   UNL     1     -42.271 -50.855  14.815  1.00  0.00    -0.337 N 
HETATM    5  H   UNL     1     -39.244 -50.386  15.732  1.00  0.00     0.172 HD
HETATM    6  H   UNL     1     -42.228 -50.092  14.143  1.00  0.00     0.164 HD
ENDROOT
BRANCH   4   7
HETATM    7  C   UNL     1     -43.321 -51.875  14.726  1.00  0.00     0.103 C 
HETATM    8  C   UNL     1     -44.593 -51.509  13.882  1.00  0.00     0.041 C 
HETATM    9  C   UNL     1     -46.105 -51.462  13.696  1.00  0.00     0.035 C 
HETATM   10  C   UNL     1     -44.574 -53.078  13.620  1.00  0.00     0.138 C 
HETATM   11  C   UNL     1     -46.275 -52.217  12.354  1.00  0.00     0.168 C 
HETATM   12  O   UNL     1     -45.408 -53.352  12.482  1.00  0.00    -0.385 OA
HETATM   13  C   UNL     1     -43.047 -52.957  13.552  1.00  0.00     0.007 C 
HETATM   14  C   UNL     1     -42.194 -54.159  13.960  1.00  0.00     0.014 C 
HETATM   15  C   UNL     1     -42.555 -52.558  12.149  1.00  0.00     0.014 C 
HETATM   16  C   UNL     1     -41.005 -54.162  12.989  1.00  0.00     0.001 C 
HETATM   17  C   UNL     1     -41.083 -52.871  12.195  1.00  0.00     0.001 C 
ENDBRANCH   4   7
BRANCH   1  18
HETATM   18  C   UNL     1     -40.019 -49.211  14.201  1.00  0.00     0.108 A 
HETATM   19  C   UNL     1     -39.480 -49.604  12.982  1.00  0.00     0.049 A 
HETATM   20  C   UNL     1     -39.535 -48.712  11.905  1.00  0.00     0.012 A 
HETATM   21  C   UNL     1     -40.082 -47.445  12.078  1.00  0.00    -0.046 A 
HETATM   22  C   UNL     1     -40.201 -46.459  10.961  1.00  0.00     0.049 C 
HETATM   23  C   UNL     1     -40.522 -47.118  13.350  1.00  0.00     0.096 A 
HETATM   24  N   UNL     1     -40.523 -47.975  14.396  1.00  0.00    -0.352 N 
ATOM     25  HN  UNL     1     -40.894 -47.695  15.304  1.00  0.00     0.166 HD
ENDBRANCH   1  18
TORSDOF 2
ENDMDL
MODEL 7
REMARK VINA RESULT:      -6.0      3.043      4.566
REMARK  2 active torsions:
REMARK  status: ('A' for Active; 'I' for Inactive)
REMARK    1  A    between atoms: C_5  and  N_6 
REMARK       I    between atoms: N_6  and  C_7 
REMARK       I    between atoms: C_7  and  N_9 
REMARK    2  A    between atoms: N_9  and  C_10 
ROOT
HETATM    1  N   UNL     1     -41.268 -48.959  10.231  1.00  0.00    -0.295 N 
HETATM    2  C   UNL     1     -42.116 -47.926  10.506  1.00  0.00     0.322 C 
HETATM    3  O   UNL     1     -42.578 -47.248   9.594  1.00  0.00    -0.247 OA
HETATM    4  N   UNL     1     -42.349 -47.652  11.824  1.00  0.00    -0.337 N 
HETATM    5  H   UNL     1     -41.055 -49.033   9.246  1.00  0.00     0.172 HD
HETATM    6  H   UNL     1     -41.889 -48.306  12.454  1.00  0.00     0.164 HD
ENDROOT
BRANCH   4   7
HETATM    7  C   UNL     1     -42.892 -46.384  12.323  1.00  0.00     0.103 C 
HETATM    8  C   UNL     1     -42.942 -46.200  13.880  1.00  0.00     0.041 C 
HETATM    9  C   UNL     1     -43.670 -45.785  15.154  1.00  0.00     0.035 C 
HETATM   10  C   UNL     1     -42.727 -44.680  13.465  1.00  0.00     0.138 C 
HETATM   11  C   UNL     1     -42.680 -44.754  15.753  1.00  0.00     0.168 C 
HETATM   12  O   UNL     1     -42.287 -43.957  14.627  1.00  0.00    -0.385 OA
HETATM   13  C   UNL     1     -41.783 -45.205  12.376  1.00  0.00     0.007 C 
HETATM   14  C   UNL     1     -41.626 -44.398  11.087  1.00  0.00     0.014 C 
HETATM   15  C   UNL     1     -40.354 -45.428  12.901  1.00  0.00     0.014 C 
HETATM   16  C   UNL     1     -40.146 -44.527  10.704  1.00  0.00     0.001 C 
HETATM   17  C   UNL     1     -39.537 -45.553  11.642  1.00  0.00     0.001 C 
ENDBRANCH   4   7
BRANCH   1  18
HETATM   18  C   UNL     1     -40.540 -49.749  11.130  1.00  0.00     0.108 A 
HETATM   19  C   UNL     1     -39.412 -49.199  11.727  1.00  0.00     0.049 A 
HETATM   20  C   UNL     1     -38.762 -49.926  12.730  1.00  0.00     0.012 A 
HETATM   21  C   UNL     1     -39.222 -51.190  13.083  1.00  0.00    -0.046 A 
HETATM   22  C   UNL     1     -38.593 -52.001  14.169  1.00  0.00     0.049 C 
HETATM   23  C   UNL     1     -40.305 -51.684  12.377  1.00  0.00     0.096 A 
HETATM   24  N   UNL     1     -40.980 -50.987  11.436  1.00  0.00    -0.352 N 
ATOM     25  HN  UNL     1     -41.797 -51.385  10.971  1.00  0.00     0.166 HD
ENDBRANCH   1  18
TORSDOF 2
ENDMDL
MODEL 8
REMARK VINA RESULT:      -5.9      3.305      5.611
REMARK  2 active torsions:
REMARK  status: ('A' for Active; 'I' for Inactive)
REMARK    1  A    between atoms: C_5  and  N_6 
REMARK       I    between atoms: N_6  and  C_7 
REMARK       I    between atoms: C_7  and  N_9 
REMARK    2  A    between atoms: N_9  and  C_10 
ROOT
HETATM    1  N   UNL     1     -45.862 -53.716  14.224  1.00  0.00    -0.295 N 
HETATM    2  C   UNL     1     -44.925 -53.570  13.243  1.00  0.00     0.322 C 
HETATM    3  O   UNL     1     -44.745 -54.465  12.423  1.00  0.00    -0.247 OA
HETATM    4  N   UNL     1     -44.169 -52.433  13.276  1.00  0.00    -0.337 N 
HETATM    5  H   UNL     1     -46.305 -54.625  14.203  1.00  0.00     0.172 HD
HETATM    6  H   UNL     1     -44.443 -51.794  14.019  1.00  0.00     0.164 HD
ENDROOT
BRANCH   4   7
HETATM    7  C   UNL     1     -42.889 -52.269  12.578  1.00  0.00     0.103 C 
HETATM    8  C   UNL     1     -42.254 -50.834  12.593  1.00  0.00     0.041 C 
HETATM    9  C   UNL     1     -41.571 -49.668  11.887  1.00  0.00     0.035 C 
HETATM   10  C   UNL     1     -40.914 -51.690  12.552  1.00  0.00     0.138 C 
HETATM   11  C   UNL     1     -40.292 -49.495  12.745  1.00  0.00     0.168 C 
HETATM   12  O   UNL     1     -39.826 -50.837  12.946  1.00  0.00    -0.385 OA
HETATM   13  C   UNL     1     -41.617 -52.671  13.498  1.00  0.00     0.007 C 
HETATM   14  C   UNL     1     -41.222 -54.146  13.456  1.00  0.00     0.014 C 
HETATM   15  C   UNL     1     -41.491 -52.250  14.973  1.00  0.00     0.014 C 
HETATM   16  C   UNL     1     -41.272 -54.623  14.914  1.00  0.00     0.001 C 
HETATM   17  C   UNL     1     -41.884 -53.495  15.724  1.00  0.00     0.001 C 
ENDBRANCH   4   7
BRANCH   1  18
HETATM   18  C   UNL     1     -46.115 -52.878  15.316  1.00  0.00     0.108 A 
HETATM   19  C   UNL     1     -47.092 -51.899  15.182  1.00  0.00     0.049 A 
HETATM   20  C   UNL     1     -47.453 -51.152  16.310  1.00  0.00     0.012 A 
HETATM   21  C   UNL     1     -46.808 -51.368  17.523  1.00  0.00    -0.046 A 
HETATM   22  C   UNL     1     -47.170 -50.629  18.770  1.00  0.00     0.049 C 
HETATM   23  C   UNL     1     -45.795 -52.311  17.537  1.00  0.00     0.096 A 
HETATM   24  N   UNL     1     -45.456 -53.079  16.476  1.00  0.00    -0.352 N 
ATOM     25  HN  UNL     1     -44.726 -53.787  16.551  1.00  0.00     0.166 HD
ENDBRANCH   1  18
TORSDOF 2
ENDMDL
MODEL 9
REMARK VINA RESULT:      -5.8      4.886      7.385
REMARK  2 active torsions:
REMARK  status: ('A' for Active; 'I' for Inactive)
REMARK    1  A    between atoms: C_5  and  N_6 
REMARK       I    between atoms: N_6  and  C_7 
REMARK       I    between atoms: C_7  and  N_9 
REMARK    2  A    between atoms: N_9  and  C_10 
ROOT
HETATM    1  N   UNL     1     -42.699 -54.588  13.809  1.00  0.00    -0.295 N 
HETATM    2  C   UNL     1     -43.799 -54.573  14.617  1.00  0.00     0.322 C 
HETATM    3  O   UNL     1     -44.739 -55.328  14.394  1.00  0.00    -0.247 OA
HETATM    4  N   UNL     1     -43.819 -53.639  15.613  1.00  0.00    -0.337 N 
HETATM    5  H   UNL     1     -42.801 -55.226  13.031  1.00  0.00     0.172 HD
HETATM    6  H   UNL     1     -42.963 -53.089  15.662  1.00  0.00     0.164 HD
ENDROOT
BRANCH   4   7
HETATM    7  C   UNL     1     -45.031 -53.205  16.317  1.00  0.00     0.103 C 
HETATM    8  C   UNL     1     -44.845 -52.137  17.452  1.00  0.00     0.041 C 
HETATM    9  C   UNL     1     -45.129 -51.618  18.858  1.00  0.00     0.035 C 
HETATM   10  C   UNL     1     -46.303 -51.723  16.967  1.00  0.00     0.138 C 
HETATM   11  C   UNL     1     -45.677 -50.200  18.558  1.00  0.00     0.168 C 
HETATM   12  O   UNL     1     -46.580 -50.402  17.463  1.00  0.00    -0.385 OA
HETATM   13  C   UNL     1     -45.815 -52.017  15.544  1.00  0.00     0.007 C 
HETATM   14  C   UNL     1     -46.830 -52.479  14.498  1.00  0.00     0.014 C 
HETATM   15  C   UNL     1     -45.091 -50.813  14.915  1.00  0.00     0.014 C 
HETATM   16  C   UNL     1     -46.396 -51.810  13.187  1.00  0.00     0.001 C 
HETATM   17  C   UNL     1     -45.050 -51.159  13.450  1.00  0.00     0.001 C 
ENDBRANCH   4   7
BRANCH   1  18
HETATM   18  C   UNL     1     -41.601 -53.721  13.818  1.00  0.00     0.108 A 
HETATM   19  C   UNL     1     -40.446 -54.126  14.479  1.00  0.00     0.049 A 
HETATM   20  C   UNL     1     -39.299 -53.333  14.373  1.00  0.00     0.012 A 
HETATM   21  C   UNL     1     -39.339 -52.143  13.653  1.00  0.00    -0.046 A 
HETATM   22  C   UNL     1     -38.140 -51.269  13.474  1.00  0.00     0.049 C 
HETATM   23  C   UNL     1     -40.555 -51.786  13.097  1.00  0.00     0.096 A 
HETATM   24  N   UNL     1     -41.667 -52.554  13.144  1.00  0.00    -0.352 N 
ATOM     25  HN  UNL     1     -42.529 -52.261  12.684  1.00  0.00     0.166 HD
ENDBRANCH   1  18
TORSDOF 2
ENDMDL
