MODEL 1
REMARK VINA RESULT:      -6.9      0.000      0.000
REMARK  4 active torsions:
REMARK  status: ('A' for Active; 'I' for Inactive)
REMARK    1  A    between atoms: N_11  and  C_12 
REMARK    2  A    between atoms: C_12  and  C_13 
REMARK    3  A    between atoms: C_13  and  O_14 
REMARK    4  A    between atoms: C_13  and  C_15 
ROOT
HETATM    1  C   UNL     1     -40.571 -51.523  13.024  1.00  0.00     0.167 C 
ENDROOT
BRANCH   1   2
HETATM    2  N   UNL     1     -40.300 -50.249  12.372  1.00  0.00    -0.332 N 
HETATM    3  C   UNL     1     -39.071 -49.828  11.903  1.00  0.00     0.080 A 
HETATM    4  C   UNL     1     -37.808 -50.594  12.056  1.00  0.00     0.089 C 
HETATM    5  N   UNL     1     -39.175 -48.665  11.295  1.00  0.00    -0.344 N 
HETATM    6  C   UNL     1     -40.498 -48.318  11.371  1.00  0.00     0.060 A 
ATOM      7  HN  UNL     1     -38.424 -48.131  10.858  1.00  0.00     0.167 HD
HETATM    8  C   UNL     1     -41.144 -47.175  10.875  1.00  0.00     0.032 A 
HETATM    9  C   UNL     1     -41.235 -49.291  12.042  1.00  0.00     0.062 A 
HETATM   10  C   UNL     1     -42.521 -47.034  11.078  1.00  0.00     0.002 A 
HETATM   11  C   UNL     1     -43.242 -48.017  11.757  1.00  0.00     0.002 A 
HETATM   12  C   UNL     1     -42.616 -49.169  12.250  1.00  0.00     0.032 A 
ENDBRANCH   1   2
BRANCH   1  13
HETATM   13  C   UNL     1     -41.369 -52.501  12.142  1.00  0.00     0.172 C 
BRANCH  13  14
HETATM   14  O   UNL     1     -40.505 -53.488  11.561  1.00  0.00    -0.389 OA
HETATM   15  H   UNL     1     -40.793 -54.365  11.864  1.00  0.00     0.210 HD
ENDBRANCH  13  14
BRANCH  13  16
HETATM   16  C   UNL     1     -42.517 -53.258  12.789  1.00  0.00     0.011 A 
HETATM   17  C   UNL     1     -43.825 -53.023  12.316  1.00  0.00     0.016 A 
HETATM   18  C   UNL     1     -44.926 -53.674  12.881  1.00  0.00     0.043 A 
HETATM   19  C   UNL     1     -44.732 -54.560  13.930  1.00  0.00     0.119 A 
HETATM   20  F   UNL     1     -45.786 -55.181  14.474  1.00  0.00    -0.206 F 
HETATM   21  C   UNL     1     -43.460 -54.811  14.421  1.00  0.00     0.085 A 
HETATM   22  C   UNL     1     -42.368 -54.164  13.848  1.00  0.00     0.128 A 
HETATM   23  F   UNL     1     -41.155 -54.442  14.345  1.00  0.00    -0.205 F 
ENDBRANCH  13  16
ENDBRANCH   1  13
TORSDOF 4
ENDMDL
MODEL 2
REMARK VINA RESULT:      -6.4      2.813      4.614
REMARK  4 active torsions:
REMARK  status: ('A' for Active; 'I' for Inactive)
REMARK    1  A    between atoms: N_11  and  C_12 
REMARK    2  A    between atoms: C_12  and  C_13 
REMARK    3  A    between atoms: C_13  and  O_14 
REMARK    4  A    between atoms: C_13  and  C_15 
ROOT
HETATM    1  C   UNL     1     -42.396 -50.986  12.550  1.00  0.00     0.167 C 
ENDROOT
BRANCH   1   2
HETATM    2  N   UNL     1     -43.061 -50.839  13.838  1.00  0.00    -0.332 N 
HETATM    3  C   UNL     1     -42.487 -50.341  14.990  1.00  0.00     0.080 A 
HETATM    4  C   UNL     1     -41.063 -49.937  15.110  1.00  0.00     0.089 C 
HETATM    5  N   UNL     1     -43.374 -50.264  15.960  1.00  0.00    -0.344 N 
HETATM    6  C   UNL     1     -44.550 -50.724  15.431  1.00  0.00     0.060 A 
ATOM      7  HN  UNL     1     -43.216 -49.931  16.911  1.00  0.00     0.167 HD
HETATM    8  C   UNL     1     -45.808 -50.846  16.041  1.00  0.00     0.032 A 
HETATM    9  C   UNL     1     -44.391 -51.096  14.098  1.00  0.00     0.062 A 
HETATM   10  C   UNL     1     -46.877 -51.351  15.293  1.00  0.00     0.002 A 
HETATM   11  C   UNL     1     -46.697 -51.723  13.960  1.00  0.00     0.002 A 
HETATM   12  C   UNL     1     -45.451 -51.598  13.332  1.00  0.00     0.032 A 
ENDBRANCH   1   2
BRANCH   1  13
HETATM   13  C   UNL     1     -42.030 -52.444  12.215  1.00  0.00     0.172 C 
BRANCH  13  14
HETATM   14  O   UNL     1     -41.148 -52.503  11.086  1.00  0.00    -0.389 OA
HETATM   15  H   UNL     1     -40.426 -53.118  11.292  1.00  0.00     0.210 HD
ENDBRANCH  13  14
BRANCH  13  16
HETATM   16  C   UNL     1     -41.389 -53.279  13.310  1.00  0.00     0.011 A 
HETATM   17  C   UNL     1     -39.992 -53.189  13.490  1.00  0.00     0.016 A 
HETATM   18  C   UNL     1     -39.339 -53.944  14.468  1.00  0.00     0.043 A 
HETATM   19  C   UNL     1     -40.074 -54.805  15.271  1.00  0.00     0.119 A 
HETATM   20  F   UNL     1     -39.449 -55.532  16.205  1.00  0.00    -0.206 F 
HETATM   21  C   UNL     1     -41.447 -54.920  15.118  1.00  0.00     0.085 A 
HETATM   22  C   UNL     1     -42.090 -54.159  14.145  1.00  0.00     0.128 A 
HETATM   23  F   UNL     1     -43.419 -54.292  14.036  1.00  0.00    -0.205 F 
ENDBRANCH  13  16
ENDBRANCH   1  13
TORSDOF 4
ENDMDL
MODEL 3
REMARK VINA RESULT:      -6.2      2.617      3.662
REMARK  4 active torsions:
REMARK  status: ('A' for Active; 'I' for Inactive)
REMARK    1  A    between atoms: N_11  and  C_12 
REMARK    2  A    between atoms: C_12  and  C_13 
REMARK    3  A    between atoms: C_13  and  O_14 
REMARK    4  A    between atoms: C_13  and  C_15 
ROOT
HETATM    1  C   UNL     1     -42.001 -52.398  12.325  1.00  0.00     0.167 C 
ENDROOT
BRANCH   1   2
HETATM    2  N   UNL     1     -40.677 -52.197  12.900  1.00  0.00    -0.332 N 
HETATM    3  C   UNL     1     -40.047 -53.044  13.789  1.00  0.00     0.080 A 
HETATM    4  C   UNL     1     -40.661 -54.271  14.357  1.00  0.00     0.089 C 
HETATM    5  N   UNL     1     -38.829 -52.621  14.056  1.00  0.00    -0.344 N 
HETATM    6  C   UNL     1     -38.661 -51.473  13.326  1.00  0.00     0.060 A 
ATOM      7  HN  UNL     1     -38.149 -53.058  14.678  1.00  0.00     0.167 HD
HETATM    8  C   UNL     1     -37.542 -50.631  13.245  1.00  0.00     0.032 A 
HETATM    9  C   UNL     1     -39.804 -51.176  12.588  1.00  0.00     0.062 A 
HETATM   10  C   UNL     1     -37.605 -49.499  12.426  1.00  0.00     0.002 A 
HETATM   11  C   UNL     1     -38.760 -49.214  11.697  1.00  0.00     0.002 A 
HETATM   12  C   UNL     1     -39.884 -50.049  11.758  1.00  0.00     0.032 A 
ENDBRANCH   1   2
BRANCH   1  13
HETATM   13  C   UNL     1     -43.129 -51.759  13.156  1.00  0.00     0.172 C 
BRANCH  13  14
HETATM   14  O   UNL     1     -43.738 -50.674  12.443  1.00  0.00    -0.389 OA
HETATM   15  H   UNL     1     -43.656 -49.868  12.980  1.00  0.00     0.210 HD
ENDBRANCH  13  14
BRANCH  13  16
HETATM   16  C   UNL     1     -44.261 -52.661  13.620  1.00  0.00     0.011 A 
HETATM   17  C   UNL     1     -44.210 -54.029  13.278  1.00  0.00     0.016 A 
HETATM   18  C   UNL     1     -45.228 -54.908  13.660  1.00  0.00     0.043 A 
HETATM   19  C   UNL     1     -46.312 -54.427  14.379  1.00  0.00     0.119 A 
HETATM   20  F   UNL     1     -47.290 -55.267  14.741  1.00  0.00    -0.206 F 
HETATM   21  C   UNL     1     -46.395 -53.088  14.728  1.00  0.00     0.085 A 
HETATM   22  C   UNL     1     -45.373 -52.220  14.351  1.00  0.00     0.128 A 
HETATM   23  F   UNL     1     -45.487 -50.936  14.716  1.00  0.00    -0.205 F 
ENDBRANCH  13  16
ENDBRANCH   1  13
TORSDOF 4
ENDMDL
MODEL 4
REMARK VINA RESULT:      -6.2      3.291      5.834
REMARK  4 active torsions:
REMARK  status: ('A' for Active; 'I' for Inactive)
REMARK    1  A    between atoms: N_11  and  C_12 
REMARK    2  A    between atoms: C_12  and  C_13 
REMARK    3  A    between atoms: C_13  and  O_14 
REMARK    4  A    between atoms: C_13  and  C_15 
ROOT
HETATM    1  C   UNL     1     -41.552 -51.994  15.051  1.00  0.00     0.167 C 
ENDROOT
BRANCH   1   2
HETATM    2  N   UNL     1     -42.502 -52.392  14.021  1.00  0.00    -0.332 N 
HETATM    3  C   UNL     1     -42.228 -53.212  12.944  1.00  0.00     0.080 A 
HETATM    4  C   UNL     1     -40.885 -53.764  12.631  1.00  0.00     0.089 C 
HETATM    5  N   UNL     1     -43.317 -53.443  12.243  1.00  0.00    -0.344 N 
HETATM    6  C   UNL     1     -44.323 -52.759  12.873  1.00  0.00     0.060 A 
ATOM      7  HN  UNL     1     -43.396 -54.015  11.402  1.00  0.00     0.167 HD
HETATM    8  C   UNL     1     -45.683 -52.675  12.536  1.00  0.00     0.032 A 
HETATM    9  C   UNL     1     -43.846 -52.085  13.994  1.00  0.00     0.062 A 
HETATM   10  C   UNL     1     -46.531 -51.903  13.338  1.00  0.00     0.002 A 
HETATM   11  C   UNL     1     -46.035 -51.231  14.455  1.00  0.00     0.002 A 
HETATM   12  C   UNL     1     -44.682 -51.312  14.812  1.00  0.00     0.032 A 
ENDBRANCH   1   2
BRANCH   1  13
HETATM   13  C   UNL     1     -40.986 -50.577  14.844  1.00  0.00     0.172 C 
BRANCH  13  14
HETATM   14  O   UNL     1     -40.500 -50.034  16.079  1.00  0.00    -0.389 OA
HETATM   15  H   UNL     1     -40.812 -50.598  16.806  1.00  0.00     0.210 HD
ENDBRANCH  13  14
BRANCH  13  16
HETATM   16  C   UNL     1     -39.870 -50.405  13.827  1.00  0.00     0.011 A 
HETATM   17  C   UNL     1     -40.097 -49.561  12.719  1.00  0.00     0.016 A 
HETATM   18  C   UNL     1     -39.118 -49.374  11.740  1.00  0.00     0.043 A 
HETATM   19  C   UNL     1     -37.904 -50.036  11.852  1.00  0.00     0.119 A 
HETATM   20  F   UNL     1     -36.966 -49.862  10.912  1.00  0.00    -0.206 F 
HETATM   21  C   UNL     1     -37.649 -50.875  12.926  1.00  0.00     0.085 A 
HETATM   22  C   UNL     1     -38.628 -51.050  13.901  1.00  0.00     0.128 A 
HETATM   23  F   UNL     1     -38.339 -51.861  14.927  1.00  0.00    -0.205 F 
ENDBRANCH  13  16
ENDBRANCH   1  13
TORSDOF 4
ENDMDL
MODEL 5
REMARK VINA RESULT:      -6.2      2.913      4.355
REMARK  4 active torsions:
REMARK  status: ('A' for Active; 'I' for Inactive)
REMARK    1  A    between atoms: N_11  and  C_12 
REMARK    2  A    between atoms: C_12  and  C_13 
REMARK    3  A    between atoms: C_13  and  O_14 
REMARK    4  A    between atoms: C_13  and  C_15 
ROOT
HETATM    1  C   UNL     1     -42.530 -51.843  12.786  1.00  0.00     0.167 C 
ENDROOT
BRANCH   1   2
HETATM    2  N   UNL     1     -41.140 -51.926  13.217  1.00  0.00    -0.332 N 
HETATM    3  C   UNL     1     -40.631 -52.827  14.131  1.00  0.00     0.080 A 
HETATM    4  C   UNL     1     -41.449 -53.817  14.876  1.00  0.00     0.089 C 
HETATM    5  N   UNL     1     -39.326 -52.694  14.243  1.00  0.00    -0.344 N 
HETATM    6  C   UNL     1     -38.976 -51.684  13.385  1.00  0.00     0.060 A 
ATOM      7  HN  UNL     1     -38.704 -53.232  14.845  1.00  0.00     0.167 HD
HETATM    8  C   UNL     1     -37.707 -51.150  13.118  1.00  0.00     0.032 A 
HETATM    9  C   UNL     1     -40.092 -51.177  12.724  1.00  0.00     0.062 A 
HETATM   10  C   UNL     1     -37.593 -50.106  12.193  1.00  0.00     0.002 A 
HETATM   11  C   UNL     1     -38.723 -49.608  11.543  1.00  0.00     0.002 A 
HETATM   12  C   UNL     1     -39.997 -50.136  11.790  1.00  0.00     0.032 A 
ENDBRANCH   1   2
BRANCH   1  13
HETATM   13  C   UNL     1     -43.275 -50.625  13.362  1.00  0.00     0.172 C 
BRANCH  13  14
HETATM   14  O   UNL     1     -43.606 -49.691  12.325  1.00  0.00    -0.389 OA
HETATM   15  H   UNL     1     -43.202 -48.835  12.543  1.00  0.00     0.210 HD
ENDBRANCH  13  14
BRANCH  13  16
HETATM   16  C   UNL     1     -44.557 -50.884  14.136  1.00  0.00     0.011 A 
HETATM   17  C   UNL     1     -44.565 -50.627  15.524  1.00  0.00     0.016 A 
HETATM   18  C   UNL     1     -45.706 -50.861  16.296  1.00  0.00     0.043 A 
HETATM   19  C   UNL     1     -46.850 -51.362  15.691  1.00  0.00     0.119 A 
HETATM   20  F   UNL     1     -47.942 -51.591  16.430  1.00  0.00    -0.206 F 
HETATM   21  C   UNL     1     -46.874 -51.628  14.330  1.00  0.00     0.085 A 
HETATM   22  C   UNL     1     -45.735 -51.386  13.567  1.00  0.00     0.128 A 
HETATM   23  F   UNL     1     -45.804 -51.647  12.255  1.00  0.00    -0.205 F 
ENDBRANCH  13  16
ENDBRANCH   1  13
TORSDOF 4
ENDMDL
MODEL 6
REMARK VINA RESULT:      -6.0      3.190      6.128
REMARK  4 active torsions:
REMARK  status: ('A' for Active; 'I' for Inactive)
REMARK    1  A    between atoms: N_11  and  C_12 
REMARK    2  A    between atoms: C_12  and  C_13 
REMARK    3  A    between atoms: C_13  and  O_14 
REMARK    4  A    between atoms: C_13  and  C_15 
ROOT
HETATM    1  C   UNL     1     -41.080 -51.128  13.536  1.00  0.00     0.167 C 
ENDROOT
BRANCH   1   2
HETATM    2  N   UNL     1     -42.043 -52.215  13.423  1.00  0.00    -0.332 N 
HETATM    3  C   UNL     1     -41.746 -53.563  13.461  1.00  0.00     0.080 A 
HETATM    4  C   UNL     1     -40.371 -54.116  13.556  1.00  0.00     0.089 C 
HETATM    5  N   UNL     1     -42.845 -54.286  13.413  1.00  0.00    -0.344 N 
HETATM    6  C   UNL     1     -43.880 -53.393  13.339  1.00  0.00     0.060 A 
ATOM      7  HN  UNL     1     -42.911 -55.304  13.427  1.00  0.00     0.167 HD
HETATM    8  C   UNL     1     -45.260 -53.640  13.272  1.00  0.00     0.032 A 
HETATM    9  C   UNL     1     -43.413 -52.081  13.342  1.00  0.00     0.062 A 
HETATM   10  C   UNL     1     -46.139 -52.553  13.199  1.00  0.00     0.002 A 
HETATM   11  C   UNL     1     -45.652 -51.246  13.199  1.00  0.00     0.002 A 
HETATM   12  C   UNL     1     -44.279 -50.980  13.276  1.00  0.00     0.032 A 
ENDBRANCH   1   2
BRANCH   1  13
HETATM   13  C   UNL     1     -40.478 -50.703  12.183  1.00  0.00     0.172 C 
BRANCH  13  14
HETATM   14  O   UNL     1     -40.984 -51.520  11.119  1.00  0.00    -0.389 OA
HETATM   15  H   UNL     1     -40.297 -51.597  10.437  1.00  0.00     0.210 HD
ENDBRANCH  13  14
BRANCH  13  16
HETATM   16  C   UNL     1     -40.670 -49.259  11.749  1.00  0.00     0.011 A 
HETATM   17  C   UNL     1     -41.918 -48.882  11.209  1.00  0.00     0.016 A 
HETATM   18  C   UNL     1     -42.152 -47.574  10.775  1.00  0.00     0.043 A 
HETATM   19  C   UNL     1     -41.139 -46.631  10.868  1.00  0.00     0.119 A 
HETATM   20  F   UNL     1     -41.360 -45.379  10.448  1.00  0.00    -0.206 F 
HETATM   21  C   UNL     1     -39.900 -46.970  11.390  1.00  0.00     0.085 A 
HETATM   22  C   UNL     1     -39.677 -48.273  11.827  1.00  0.00     0.128 A 
HETATM   23  F   UNL     1     -38.470 -48.556  12.334  1.00  0.00    -0.205 F 
ENDBRANCH  13  16
ENDBRANCH   1  13
TORSDOF 4
ENDMDL
MODEL 7
REMARK VINA RESULT:      -6.0      3.214      5.895
REMARK  4 active torsions:
REMARK  status: ('A' for Active; 'I' for Inactive)
REMARK    1  A    between atoms: N_11  and  C_12 
REMARK    2  A    between atoms: C_12  and  C_13 
REMARK    3  A    between atoms: C_13  and  O_14 
REMARK    4  A    between atoms: C_13  and  C_15 
ROOT
HETATM    1  C   UNL     1     -42.107 -54.114  13.142  1.00  0.00     0.167 C 
ENDROOT
BRANCH   1   2
HETATM    2  N   UNL     1     -43.146 -53.885  14.138  1.00  0.00    -0.332 N 
HETATM    3  C   UNL     1     -43.204 -54.466  15.389  1.00  0.00     0.080 A 
HETATM    4  C   UNL     1     -42.241 -55.479  15.890  1.00  0.00     0.089 C 
HETATM    5  N   UNL     1     -44.222 -53.992  16.077  1.00  0.00    -0.344 N 
HETATM    6  C   UNL     1     -44.841 -53.085  15.258  1.00  0.00     0.060 A 
ATOM      7  HN  UNL     1     -44.494 -54.248  17.027  1.00  0.00     0.167 HD
HETATM    8  C   UNL     1     -45.972 -52.293  15.509  1.00  0.00     0.032 A 
HETATM    9  C   UNL     1     -44.191 -52.993  14.030  1.00  0.00     0.062 A 
HETATM   10  C   UNL     1     -46.429 -51.431  14.506  1.00  0.00     0.002 A 
HETATM   11  C   UNL     1     -45.768 -51.355  13.279  1.00  0.00     0.002 A 
HETATM   12  C   UNL     1     -44.631 -52.131  13.016  1.00  0.00     0.032 A 
ENDBRANCH   1   2
BRANCH   1  13
HETATM   13  C   UNL     1     -40.727 -53.579  13.566  1.00  0.00     0.172 C 
BRANCH  13  14
HETATM   14  O   UNL     1     -39.685 -54.480  13.168  1.00  0.00    -0.389 OA
HETATM   15  H   UNL     1     -39.153 -54.700  13.950  1.00  0.00     0.210 HD
ENDBRANCH  13  14
BRANCH  13  16
HETATM   16  C   UNL     1     -40.321 -52.202  13.068  1.00  0.00     0.011 A 
HETATM   17  C   UNL     1     -41.085 -51.609  12.040  1.00  0.00     0.016 A 
HETATM   18  C   UNL     1     -40.754 -50.352  11.527  1.00  0.00     0.043 A 
HETATM   19  C   UNL     1     -39.651 -49.677  12.029  1.00  0.00     0.119 A 
HETATM   20  F   UNL     1     -39.330 -48.475  11.535  1.00  0.00    -0.206 F 
HETATM   21  C   UNL     1     -38.878 -50.233  13.037  1.00  0.00     0.085 A 
HETATM   22  C   UNL     1     -39.218 -51.482  13.548  1.00  0.00     0.128 A 
HETATM   23  F   UNL     1     -38.451 -51.979  14.527  1.00  0.00    -0.205 F 
ENDBRANCH  13  16
ENDBRANCH   1  13
TORSDOF 4
ENDMDL
MODEL 8
REMARK VINA RESULT:      -5.9      2.622      4.061
REMARK  4 active torsions:
REMARK  status: ('A' for Active; 'I' for Inactive)
REMARK    1  A    between atoms: N_11  and  C_12 
REMARK    2  A    between atoms: C_12  and  C_13 
REMARK    3  A    between atoms: C_13  and  O_14 
REMARK    4  A    between atoms: C_13  and  C_15 
ROOT
HETATM    1  C   UNL     1     -42.136 -49.967  13.836  1.00  0.00     0.167 C 
ENDROOT
BRANCH   1   2
HETATM    2  N   UNL     1     -41.126 -49.736  12.811  1.00  0.00    -0.332 N 
HETATM    3  C   UNL     1     -41.274 -48.928  11.702  1.00  0.00     0.080 A 
HETATM    4  C   UNL     1     -42.526 -48.215  11.344  1.00  0.00     0.089 C 
HETATM    5  N   UNL     1     -40.153 -48.868  11.014  1.00  0.00    -0.344 N 
HETATM    6  C   UNL     1     -39.256 -49.655  11.687  1.00  0.00     0.060 A 
ATOM      7  HN  UNL     1     -39.986 -48.343  10.155  1.00  0.00     0.167 HD
HETATM    8  C   UNL     1     -37.914 -49.930  11.381  1.00  0.00     0.032 A 
HETATM    9  C   UNL     1     -39.834 -50.218  12.822  1.00  0.00     0.062 A 
HETATM   10  C   UNL     1     -37.188 -50.776  12.225  1.00  0.00     0.002 A 
HETATM   11  C   UNL     1     -37.785 -51.335  13.355  1.00  0.00     0.002 A 
HETATM   12  C   UNL     1     -39.120 -51.064  13.682  1.00  0.00     0.032 A 
ENDBRANCH   1   2
BRANCH   1  13
HETATM   13  C   UNL     1     -43.080 -51.139  13.509  1.00  0.00     0.172 C 
BRANCH  13  14
HETATM   14  O   UNL     1     -42.446 -52.396  13.781  1.00  0.00    -0.389 OA
HETATM   15  H   UNL     1     -42.535 -52.961  12.995  1.00  0.00     0.210 HD
ENDBRANCH  13  14
BRANCH  13  16
HETATM   16  C   UNL     1     -44.429 -51.174  14.209  1.00  0.00     0.011 A 
HETATM   17  C   UNL     1     -44.488 -50.805  15.569  1.00  0.00     0.016 A 
HETATM   18  C   UNL     1     -45.694 -50.833  16.274  1.00  0.00     0.043 A 
HETATM   19  C   UNL     1     -46.854 -51.238  15.629  1.00  0.00     0.119 A 
HETATM   20  F   UNL     1     -48.009 -51.269  16.304  1.00  0.00    -0.206 F 
HETATM   21  C   UNL     1     -46.830 -51.610  14.293  1.00  0.00     0.085 A 
HETATM   22  C   UNL     1     -45.625 -51.573  13.597  1.00  0.00     0.128 A 
HETATM   23  F   UNL     1     -45.647 -51.931  12.306  1.00  0.00    -0.205 F 
ENDBRANCH  13  16
ENDBRANCH   1  13
TORSDOF 4
ENDMDL
MODEL 9
REMARK VINA RESULT:      -5.9      2.877      5.915
REMARK  4 active torsions:
REMARK  status: ('A' for Active; 'I' for Inactive)
REMARK    1  A    between atoms: N_11  and  C_12 
REMARK    2  A    between atoms: C_12  and  C_13 
REMARK    3  A    between atoms: C_13  and  O_14 
REMARK    4  A    between atoms: C_13  and  C_15 
ROOT
HETATM    1  C   UNL     1     -40.655 -52.255  12.188  1.00  0.00     0.167 C 
ENDROOT
BRANCH   1   2
HETATM    2  N   UNL     1     -41.248 -53.224  13.101  1.00  0.00    -0.332 N 
HETATM    3  C   UNL     1     -40.575 -53.924  14.082  1.00  0.00     0.080 A 
HETATM    4  C   UNL     1     -39.110 -53.846  14.313  1.00  0.00     0.089 C 
HETATM    5  N   UNL     1     -41.408 -54.661  14.786  1.00  0.00    -0.344 N 
HETATM    6  C   UNL     1     -42.650 -54.438  14.253  1.00  0.00     0.060 A 
ATOM      7  HN  UNL     1     -41.176 -55.272  15.569  1.00  0.00     0.167 HD
HETATM    8  C   UNL     1     -43.889 -54.973  14.639  1.00  0.00     0.032 A 
HETATM    9  C   UNL     1     -42.587 -53.540  13.190  1.00  0.00     0.062 A 
HETATM   10  C   UNL     1     -45.037 -54.596  13.935  1.00  0.00     0.002 A 
HETATM   11  C   UNL     1     -44.954 -53.699  12.869  1.00  0.00     0.002 A 
HETATM   12  C   UNL     1     -43.728 -53.147  12.477  1.00  0.00     0.032 A 
ENDBRANCH   1   2
BRANCH   1  13
HETATM   13  C   UNL     1     -40.591 -50.830  12.770  1.00  0.00     0.172 C 
BRANCH  13  14
HETATM   14  O   UNL     1     -39.251 -50.322  12.732  1.00  0.00    -0.389 OA
HETATM   15  H   UNL     1     -38.764 -50.681  13.491  1.00  0.00     0.210 HD
ENDBRANCH  13  14
BRANCH  13  16
HETATM   16  C   UNL     1     -41.475 -49.770  12.134  1.00  0.00     0.011 A 
HETATM   17  C   UNL     1     -40.976 -49.062  11.020  1.00  0.00     0.016 A 
HETATM   18  C   UNL     1     -41.732 -48.062  10.402  1.00  0.00     0.043 A 
HETATM   19  C   UNL     1     -42.991 -47.753  10.895  1.00  0.00     0.119 A 
HETATM   20  F   UNL     1     -43.714 -46.793  10.306  1.00  0.00    -0.206 F 
HETATM   21  C   UNL     1     -43.509 -48.427  11.990  1.00  0.00     0.085 A 
HETATM   22  C   UNL     1     -42.752 -49.426  12.597  1.00  0.00     0.128 A 
HETATM   23  F   UNL     1     -43.293 -50.060  13.646  1.00  0.00    -0.205 F 
ENDBRANCH  13  16
ENDBRANCH   1  13
TORSDOF 4
ENDMDL
