MODEL 1
REMARK VINA RESULT:      -6.5      0.000      0.000
REMARK  5 active torsions:
REMARK  status: ('A' for Active; 'I' for Inactive)
REMARK    1  A    between atoms: C_4  and  N_5 
REMARK       I    between atoms: N_5  and  C_6 
REMARK       I    between atoms: C_6  and  N_8 
REMARK    2  A    between atoms: N_8  and  C_9 
REMARK    3  A    between atoms: C_9  and  C_10 
REMARK    4  A    between atoms: C_10  and  C_11 
REMARK    5  A    between atoms: C_11  and  N_12 
ROOT
HETATM    1  N   UNL     1     -42.354 -49.301  11.349  1.00  0.00    -0.293 N 
HETATM    2  C   UNL     1     -41.530 -50.391  11.751  1.00  0.00     0.321 C 
HETATM    3  O   UNL     1     -40.315 -50.320  11.810  1.00  0.00    -0.247 OA
HETATM    4  N   UNL     1     -42.273 -51.494  12.050  1.00  0.00    -0.343 N 
HETATM    5  H   UNL     1     -43.354 -49.422  11.349  1.00  0.00     0.172 HD
HETATM    6  H   UNL     1     -43.279 -51.489  11.981  1.00  0.00     0.164 HD
ENDROOT
BRANCH   1   7
HETATM    7  C   UNL     1     -41.836 -48.064  10.964  1.00  0.00     0.127 A 
HETATM    8  C   UNL     1     -40.813 -47.360  11.560  1.00  0.00     0.076 A 
HETATM    9  C   UNL     1     -40.663 -46.179  10.806  1.00  0.00     0.025 A 
HETATM   10  C   UNL     1     -39.696 -45.081  11.042  1.00  0.00     0.070 C 
HETATM   11  N   UNL     1     -41.528 -46.133   9.790  1.00  0.00    -0.302 N 
HETATM   12  N   UNL     1     -42.231 -47.279   9.903  1.00  0.00    -0.281 N 
ATOM     13  HN  UNL     1     -41.633 -45.399   9.089  1.00  0.00     0.186 HD
HETATM   14  C   UNL     1     -43.271 -47.522   8.934  1.00  0.00     0.179 C 
ENDBRANCH   1   7
BRANCH   4  15
HETATM   15  C   UNL     1     -41.610 -52.702  12.510  1.00  0.00     0.126 C 
BRANCH  15  16
HETATM   16  C   UNL     1     -42.569 -53.697  13.169  1.00  0.00     0.040 C 
BRANCH  16  17
HETATM   17  C   UNL     1     -43.951 -53.615  12.529  1.00  0.00     0.136 C 
BRANCH  17  18
HETATM   18  N   UNL     1     -44.995 -53.178  13.430  1.00  0.00    -0.288 N 
HETATM   19  C   UNL     1     -45.347 -51.872  13.612  1.00  0.00     0.226 C 
HETATM   20  O   UNL     1     -44.793 -50.899  13.123  1.00  0.00    -0.273 OA
HETATM   21  C   UNL     1     -46.527 -51.814  14.538  1.00  0.00     0.112 C 
HETATM   22  C   UNL     1     -46.934 -53.268  14.705  1.00  0.00     0.112 C 
HETATM   23  C   UNL     1     -45.766 -54.033  14.161  1.00  0.00     0.226 C 
HETATM   24  O   UNL     1     -45.584 -55.232  14.303  1.00  0.00    -0.273 OA
ENDBRANCH  17  18
ENDBRANCH  16  17
ENDBRANCH  15  16
ENDBRANCH   4  15
TORSDOF 5
ENDMDL
MODEL 2
REMARK VINA RESULT:      -6.5      0.245      1.655
REMARK  5 active torsions:
REMARK  status: ('A' for Active; 'I' for Inactive)
REMARK    1  A    between atoms: C_4  and  N_5 
REMARK       I    between atoms: N_5  and  C_6 
REMARK       I    between atoms: C_6  and  N_8 
REMARK    2  A    between atoms: N_8  and  C_9 
REMARK    3  A    between atoms: C_9  and  C_10 
REMARK    4  A    between atoms: C_10  and  C_11 
REMARK    5  A    between atoms: C_11  and  N_12 
ROOT
HETATM    1  N   UNL     1     -42.373 -49.248  11.413  1.00  0.00    -0.293 N 
HETATM    2  C   UNL     1     -41.548 -50.366  11.720  1.00  0.00     0.321 C 
HETATM    3  O   UNL     1     -40.331 -50.334  11.659  1.00  0.00    -0.247 OA
HETATM    4  N   UNL     1     -42.293 -51.450  12.084  1.00  0.00    -0.343 N 
HETATM    5  H   UNL     1     -43.372 -49.338  11.512  1.00  0.00     0.172 HD
HETATM    6  H   UNL     1     -43.300 -51.412  12.115  1.00  0.00     0.164 HD
ENDROOT
BRANCH   1   7
HETATM    7  C   UNL     1     -41.856 -48.023  10.988  1.00  0.00     0.127 A 
HETATM    8  C   UNL     1     -40.838 -47.296  11.564  1.00  0.00     0.076 A 
HETATM    9  C   UNL     1     -40.688 -46.141  10.771  1.00  0.00     0.025 A 
HETATM   10  C   UNL     1     -39.724 -45.033  10.974  1.00  0.00     0.070 C 
HETATM   11  N   UNL     1     -41.549 -46.131   9.752  1.00  0.00    -0.302 N 
HETATM   12  N   UNL     1     -42.250 -47.274   9.901  1.00  0.00    -0.281 N 
ATOM     13  HN  UNL     1     -41.654 -45.421   9.026  1.00  0.00     0.186 HD
HETATM   14  C   UNL     1     -43.286 -47.552   8.936  1.00  0.00     0.179 C 
ENDBRANCH   1   7
BRANCH   4  15
HETATM   15  C   UNL     1     -41.625 -52.683  12.464  1.00  0.00     0.126 C 
BRANCH  15  16
HETATM   16  C   UNL     1     -42.558 -53.676  13.163  1.00  0.00     0.040 C 
BRANCH  16  17
HETATM   17  C   UNL     1     -43.913 -53.724  12.464  1.00  0.00     0.136 C 
BRANCH  17  18
HETATM   18  N   UNL     1     -45.035 -53.424  13.328  1.00  0.00    -0.288 N 
HETATM   19  C   UNL     1     -45.742 -54.368  14.013  1.00  0.00     0.226 C 
HETATM   20  O   UNL     1     -45.598 -55.578  13.935  1.00  0.00    -0.273 OA
HETATM   21  C   UNL     1     -46.759 -53.677  14.876  1.00  0.00     0.112 C 
HETATM   22  C   UNL     1     -46.407 -52.205  14.750  1.00  0.00     0.112 C 
HETATM   23  C   UNL     1     -45.473 -52.157  13.579  1.00  0.00     0.226 C 
HETATM   24  O   UNL     1     -45.123 -51.140  13.001  1.00  0.00    -0.273 OA
ENDBRANCH  17  18
ENDBRANCH  16  17
ENDBRANCH  15  16
ENDBRANCH   4  15
TORSDOF 5
ENDMDL
MODEL 3
REMARK VINA RESULT:      -6.5      1.559      2.116
REMARK  5 active torsions:
REMARK  status: ('A' for Active; 'I' for Inactive)
REMARK    1  A    between atoms: C_4  and  N_5 
REMARK       I    between atoms: N_5  and  C_6 
REMARK       I    between atoms: C_6  and  N_8 
REMARK    2  A    between atoms: N_8  and  C_9 
REMARK    3  A    between atoms: C_9  and  C_10 
REMARK    4  A    between atoms: C_10  and  C_11 
REMARK    5  A    between atoms: C_11  and  N_12 
ROOT
HETATM    1  N   UNL     1     -40.830 -51.015  11.092  1.00  0.00    -0.293 N 
HETATM    2  C   UNL     1     -40.805 -51.864  12.234  1.00  0.00     0.321 C 
HETATM    3  O   UNL     1     -40.584 -51.458  13.361  1.00  0.00    -0.247 OA
HETATM    4  N   UNL     1     -41.059 -53.161  11.896  1.00  0.00    -0.343 N 
HETATM    5  H   UNL     1     -41.047 -51.414  10.193  1.00  0.00     0.172 HD
HETATM    6  H   UNL     1     -41.235 -53.434  10.942  1.00  0.00     0.164 HD
ENDROOT
BRANCH   1   7
HETATM    7  C   UNL     1     -40.574 -49.644  11.164  1.00  0.00     0.127 A 
HETATM    8  C   UNL     1     -41.475 -48.614  11.012  1.00  0.00     0.076 A 
HETATM    9  C   UNL     1     -40.736 -47.425  11.172  1.00  0.00     0.025 A 
HETATM   10  C   UNL     1     -41.246 -46.035  11.094  1.00  0.00     0.070 C 
HETATM   11  N   UNL     1     -39.449 -47.677  11.417  1.00  0.00    -0.302 N 
HETATM   12  N   UNL     1     -39.369 -49.024  11.405  1.00  0.00    -0.281 N 
ATOM     13  HN  UNL     1     -38.697 -47.006  11.577  1.00  0.00     0.186 HD
HETATM   14  C   UNL     1     -38.074 -49.617  11.636  1.00  0.00     0.179 C 
ENDBRANCH   1   7
BRANCH   4  15
HETATM   15  C   UNL     1     -41.105 -54.176  12.935  1.00  0.00     0.126 C 
BRANCH  15  16
HETATM   16  C   UNL     1     -42.384 -54.111  13.776  1.00  0.00     0.040 C 
BRANCH  16  17
HETATM   17  C   UNL     1     -43.605 -53.912  12.883  1.00  0.00     0.136 C 
BRANCH  17  18
HETATM   18  N   UNL     1     -44.717 -53.260  13.539  1.00  0.00    -0.288 N 
HETATM   19  C   UNL     1     -44.896 -51.907  13.573  1.00  0.00     0.226 C 
HETATM   20  O   UNL     1     -44.123 -51.065  13.144  1.00  0.00    -0.273 OA
HETATM   21  C   UNL     1     -46.202 -51.610  14.250  1.00  0.00     0.112 C 
HETATM   22  C   UNL     1     -46.846 -52.975  14.421  1.00  0.00     0.112 C 
HETATM   23  C   UNL     1     -45.727 -53.936  14.158  1.00  0.00     0.226 C 
HETATM   24  O   UNL     1     -45.756 -55.132  14.402  1.00  0.00    -0.273 OA
ENDBRANCH  17  18
ENDBRANCH  16  17
ENDBRANCH  15  16
ENDBRANCH   4  15
TORSDOF 5
ENDMDL
MODEL 4
REMARK VINA RESULT:      -6.3      3.060      7.478
REMARK  5 active torsions:
REMARK  status: ('A' for Active; 'I' for Inactive)
REMARK    1  A    between atoms: C_4  and  N_5 
REMARK       I    between atoms: N_5  and  C_6 
REMARK       I    between atoms: C_6  and  N_8 
REMARK    2  A    between atoms: N_8  and  C_9 
REMARK    3  A    between atoms: C_9  and  C_10 
REMARK    4  A    between atoms: C_10  and  C_11 
REMARK    5  A    between atoms: C_11  and  N_12 
ROOT
HETATM    1  N   UNL     1     -41.602 -52.900  12.227  1.00  0.00    -0.293 N 
HETATM    2  C   UNL     1     -41.669 -51.486  12.080  1.00  0.00     0.321 C 
HETATM    3  O   UNL     1     -42.514 -50.799  12.627  1.00  0.00    -0.247 OA
HETATM    4  N   UNL     1     -40.681 -51.022  11.263  1.00  0.00    -0.343 N 
HETATM    5  H   UNL     1     -40.859 -53.402  11.766  1.00  0.00     0.172 HD
HETATM    6  H   UNL     1     -40.010 -51.644  10.839  1.00  0.00     0.164 HD
ENDROOT
BRANCH   1   7
HETATM    7  C   UNL     1     -42.518 -53.625  12.991  1.00  0.00     0.127 A 
HETATM    8  C   UNL     1     -43.848 -53.849  12.716  1.00  0.00     0.076 A 
HETATM    9  C   UNL     1     -44.340 -54.629  13.781  1.00  0.00     0.025 A 
HETATM   10  C   UNL     1     -45.722 -55.132  13.961  1.00  0.00     0.070 C 
HETATM   11  N   UNL     1     -43.385 -54.893  14.676  1.00  0.00    -0.302 N 
HETATM   12  N   UNL     1     -42.292 -54.275  14.184  1.00  0.00    -0.281 N 
ATOM     13  HN  UNL     1     -43.464 -55.437  15.536  1.00  0.00     0.186 HD
HETATM   14  C   UNL     1     -41.071 -54.371  14.947  1.00  0.00     0.179 C 
ENDBRANCH   1   7
BRANCH   4  15
HETATM   15  C   UNL     1     -40.567 -49.595  11.015  1.00  0.00     0.126 C 
BRANCH  15  16
HETATM   16  C   UNL     1     -39.603 -48.896  11.978  1.00  0.00     0.040 C 
BRANCH  16  17
HETATM   17  C   UNL     1     -38.337 -49.726  12.167  1.00  0.00     0.136 C 
BRANCH  17  18
HETATM   18  N   UNL     1     -38.107 -50.150  13.531  1.00  0.00    -0.288 N 
HETATM   19  C   UNL     1     -37.615 -49.336  14.509  1.00  0.00     0.226 C 
HETATM   20  O   UNL     1     -37.225 -48.187  14.366  1.00  0.00    -0.273 OA
HETATM   21  C   UNL     1     -37.609 -50.090  15.808  1.00  0.00     0.112 C 
HETATM   22  C   UNL     1     -38.348 -51.378  15.487  1.00  0.00     0.112 C 
HETATM   23  C   UNL     1     -38.398 -51.401  13.989  1.00  0.00     0.226 C 
HETATM   24  O   UNL     1     -38.712 -52.367  13.312  1.00  0.00    -0.273 OA
ENDBRANCH  17  18
ENDBRANCH  16  17
ENDBRANCH  15  16
ENDBRANCH   4  15
TORSDOF 5
ENDMDL
MODEL 5
REMARK VINA RESULT:      -6.2      1.894      2.764
REMARK  5 active torsions:
REMARK  status: ('A' for Active; 'I' for Inactive)
REMARK    1  A    between atoms: C_4  and  N_5 
REMARK       I    between atoms: N_5  and  C_6 
REMARK       I    between atoms: C_6  and  N_8 
REMARK    2  A    between atoms: N_8  and  C_9 
REMARK    3  A    between atoms: C_9  and  C_10 
REMARK    4  A    between atoms: C_10  and  C_11 
REMARK    5  A    between atoms: C_11  and  N_12 
ROOT
HETATM    1  N   UNL     1     -41.896 -50.689  13.289  1.00  0.00    -0.293 N 
HETATM    2  C   UNL     1     -42.162 -52.052  12.976  1.00  0.00     0.321 C 
HETATM    3  O   UNL     1     -42.278 -52.463  11.835  1.00  0.00    -0.247 OA
HETATM    4  N   UNL     1     -42.267 -52.811  14.105  1.00  0.00    -0.343 N 
HETATM    5  H   UNL     1     -41.785 -50.424  14.255  1.00  0.00     0.172 HD
HETATM    6  H   UNL     1     -42.160 -52.410  15.023  1.00  0.00     0.164 HD
ENDROOT
BRANCH   1   7
HETATM    7  C   UNL     1     -41.771 -49.700  12.311  1.00  0.00     0.127 A 
HETATM    8  C   UNL     1     -42.745 -48.837  11.862  1.00  0.00     0.076 A 
HETATM    9  C   UNL     1     -42.131 -48.036  10.878  1.00  0.00     0.025 A 
HETATM   10  C   UNL     1     -42.758 -46.953  10.084  1.00  0.00     0.070 C 
HETATM   11  N   UNL     1     -40.847 -48.361  10.713  1.00  0.00    -0.302 N 
HETATM   12  N   UNL     1     -40.648 -49.372  11.585  1.00  0.00    -0.281 N 
ATOM     13  HN  UNL     1     -40.171 -47.942  10.073  1.00  0.00     0.186 HD
HETATM   14  C   UNL     1     -39.330 -49.957  11.638  1.00  0.00     0.179 C 
ENDBRANCH   1   7
BRANCH   4  15
HETATM   15  C   UNL     1     -42.508 -54.239  13.988  1.00  0.00     0.126 C 
BRANCH  15  16
HETATM   16  C   UNL     1     -43.583 -54.744  14.955  1.00  0.00     0.040 C 
BRANCH  16  17
HETATM   17  C   UNL     1     -44.941 -54.809  14.262  1.00  0.00     0.136 C 
BRANCH  17  18
HETATM   18  N   UNL     1     -45.678 -53.564  14.289  1.00  0.00    -0.288 N 
HETATM   19  C   UNL     1     -46.218 -53.022  15.419  1.00  0.00     0.226 C 
HETATM   20  O   UNL     1     -46.237 -53.533  16.528  1.00  0.00    -0.273 OA
HETATM   21  C   UNL     1     -46.814 -51.687  15.077  1.00  0.00     0.112 C 
HETATM   22  C   UNL     1     -46.369 -51.442  13.645  1.00  0.00     0.112 C 
HETATM   23  C   UNL     1     -45.872 -52.781  13.189  1.00  0.00     0.226 C 
HETATM   24  O   UNL     1     -45.625 -53.081  12.032  1.00  0.00    -0.273 OA
ENDBRANCH  17  18
ENDBRANCH  16  17
ENDBRANCH  15  16
ENDBRANCH   4  15
TORSDOF 5
ENDMDL
MODEL 6
REMARK VINA RESULT:      -6.2      1.498      2.482
REMARK  5 active torsions:
REMARK  status: ('A' for Active; 'I' for Inactive)
REMARK    1  A    between atoms: C_4  and  N_5 
REMARK       I    between atoms: N_5  and  C_6 
REMARK       I    between atoms: C_6  and  N_8 
REMARK    2  A    between atoms: N_8  and  C_9 
REMARK    3  A    between atoms: C_9  and  C_10 
REMARK    4  A    between atoms: C_10  and  C_11 
REMARK    5  A    between atoms: C_11  and  N_12 
ROOT
HETATM    1  N   UNL     1     -42.399 -48.945  11.139  1.00  0.00    -0.293 N 
HETATM    2  C   UNL     1     -43.083 -49.131  12.373  1.00  0.00     0.321 C 
HETATM    3  O   UNL     1     -43.269 -48.231  13.174  1.00  0.00    -0.247 OA
HETATM    4  N   UNL     1     -43.490 -50.424  12.528  1.00  0.00    -0.343 N 
HETATM    5  H   UNL     1     -42.305 -49.729  10.512  1.00  0.00     0.172 HD
HETATM    6  H   UNL     1     -43.305 -51.123  11.826  1.00  0.00     0.164 HD
ENDROOT
BRANCH   1   7
HETATM    7  C   UNL     1     -41.858 -47.718  10.752  1.00  0.00     0.127 A 
HETATM    8  C   UNL     1     -40.683 -47.145  11.186  1.00  0.00     0.076 A 
HETATM    9  C   UNL     1     -40.577 -45.915  10.508  1.00  0.00     0.025 A 
HETATM   10  C   UNL     1     -39.491 -44.913  10.632  1.00  0.00     0.070 C 
HETATM   11  N   UNL     1     -41.612 -45.716   9.689  1.00  0.00    -0.302 N 
HETATM   12  N   UNL     1     -42.378 -46.814   9.852  1.00  0.00    -0.281 N 
ATOM     13  HN  UNL     1     -41.785 -44.915   9.080  1.00  0.00     0.186 HD
HETATM   14  C   UNL     1     -43.600 -46.894   9.091  1.00  0.00     0.179 C 
ENDBRANCH   1   7
BRANCH   4  15
HETATM   15  C   UNL     1     -44.234 -50.803  13.717  1.00  0.00     0.126 C 
BRANCH  15  16
HETATM   16  C   UNL     1     -45.279 -51.890  13.446  1.00  0.00     0.040 C 
BRANCH  16  17
HETATM   17  C   UNL     1     -44.657 -53.054  12.681  1.00  0.00     0.136 C 
BRANCH  17  18
HETATM   18  N   UNL     1     -43.745 -53.857  13.466  1.00  0.00    -0.288 N 
HETATM   19  C   UNL     1     -42.387 -53.740  13.413  1.00  0.00     0.226 C 
HETATM   20  O   UNL     1     -41.752 -53.024  12.654  1.00  0.00    -0.273 OA
HETATM   21  C   UNL     1     -41.782 -54.660  14.434  1.00  0.00     0.112 C 
HETATM   22  C   UNL     1     -42.977 -55.172  15.220  1.00  0.00     0.112 C 
HETATM   23  C   UNL     1     -44.154 -54.789  14.375  1.00  0.00     0.226 C 
HETATM   24  O   UNL     1     -45.293 -55.200  14.529  1.00  0.00    -0.273 OA
ENDBRANCH  17  18
ENDBRANCH  16  17
ENDBRANCH  15  16
ENDBRANCH   4  15
TORSDOF 5
ENDMDL
MODEL 7
REMARK VINA RESULT:      -6.1      3.512      5.651
REMARK  5 active torsions:
REMARK  status: ('A' for Active; 'I' for Inactive)
REMARK    1  A    between atoms: C_4  and  N_5 
REMARK       I    between atoms: N_5  and  C_6 
REMARK       I    between atoms: C_6  and  N_8 
REMARK    2  A    between atoms: N_8  and  C_9 
REMARK    3  A    between atoms: C_9  and  C_10 
REMARK    4  A    between atoms: C_10  and  C_11 
REMARK    5  A    between atoms: C_11  and  N_12 
ROOT
HETATM    1  N   UNL     1     -40.919 -49.204  10.561  1.00  0.00    -0.293 N 
HETATM    2  C   UNL     1     -41.251 -50.080  11.633  1.00  0.00     0.321 C 
HETATM    3  O   UNL     1     -42.159 -49.862  12.416  1.00  0.00    -0.247 OA
HETATM    4  N   UNL     1     -40.430 -51.170  11.659  1.00  0.00    -0.343 N 
HETATM    5  H   UNL     1     -40.172 -49.462   9.935  1.00  0.00     0.172 HD
HETATM    6  H   UNL     1     -39.695 -51.293  10.980  1.00  0.00     0.164 HD
ENDROOT
BRANCH   1   7
HETATM    7  C   UNL     1     -41.592 -48.003  10.332  1.00  0.00     0.127 A 
HETATM    8  C   UNL     1     -42.726 -47.807   9.576  1.00  0.00     0.076 A 
HETATM    9  C   UNL     1     -43.012 -46.430   9.653  1.00  0.00     0.025 A 
HETATM   10  C   UNL     1     -44.133 -45.709   9.004  1.00  0.00     0.070 C 
HETATM   11  N   UNL     1     -42.123 -45.787  10.413  1.00  0.00    -0.302 N 
HETATM   12  N   UNL     1     -41.270 -46.753  10.812  1.00  0.00    -0.281 N 
ATOM     13  HN  UNL     1     -42.095 -44.792  10.640  1.00  0.00     0.186 HD
HETATM   14  C   UNL     1     -40.169 -46.362  11.658  1.00  0.00     0.179 C 
ENDBRANCH   1   7
BRANCH   4  15
HETATM   15  C   UNL     1     -40.633 -52.196  12.667  1.00  0.00     0.126 C 
BRANCH  15  16
HETATM   16  C   UNL     1     -39.822 -51.949  13.942  1.00  0.00     0.040 C 
BRANCH  16  17
HETATM   17  C   UNL     1     -38.374 -51.610  13.600  1.00  0.00     0.136 C 
BRANCH  17  18
HETATM   18  N   UNL     1     -37.948 -50.305  14.060  1.00  0.00    -0.288 N 
HETATM   19  C   UNL     1     -37.892 -49.198  13.264  1.00  0.00     0.226 C 
HETATM   20  O   UNL     1     -38.100 -49.161  12.061  1.00  0.00    -0.273 OA
HETATM   21  C   UNL     1     -37.506 -48.017  14.106  1.00  0.00     0.112 C 
HETATM   22  C   UNL     1     -37.544 -48.552  15.528  1.00  0.00     0.112 C 
HETATM   23  C   UNL     1     -37.600 -50.039  15.351  1.00  0.00     0.226 C 
HETATM   24  O   UNL     1     -37.424 -50.858  16.239  1.00  0.00    -0.273 OA
ENDBRANCH  17  18
ENDBRANCH  16  17
ENDBRANCH  15  16
ENDBRANCH   4  15
TORSDOF 5
ENDMDL
MODEL 8
REMARK VINA RESULT:      -6.0      1.874      3.271
REMARK  5 active torsions:
REMARK  status: ('A' for Active; 'I' for Inactive)
REMARK    1  A    between atoms: C_4  and  N_5 
REMARK       I    between atoms: N_5  and  C_6 
REMARK       I    between atoms: C_6  and  N_8 
REMARK    2  A    between atoms: N_8  and  C_9 
REMARK    3  A    between atoms: C_9  and  C_10 
REMARK    4  A    between atoms: C_10  and  C_11 
REMARK    5  A    between atoms: C_11  and  N_12 
ROOT
HETATM    1  N   UNL     1     -42.621 -49.586  11.615  1.00  0.00    -0.293 N 
HETATM    2  C   UNL     1     -43.302 -49.722  12.858  1.00  0.00     0.321 C 
HETATM    3  O   UNL     1     -43.083 -49.007  13.820  1.00  0.00    -0.247 OA
HETATM    4  N   UNL     1     -44.210 -50.740  12.820  1.00  0.00    -0.343 N 
HETATM    5  H   UNL     1     -42.872 -50.196  10.853  1.00  0.00     0.172 HD
HETATM    6  H   UNL     1     -44.344 -51.297  11.991  1.00  0.00     0.164 HD
ENDROOT
BRANCH   1   7
HETATM    7  C   UNL     1     -41.622 -48.635  11.402  1.00  0.00     0.127 A 
HETATM    8  C   UNL     1     -41.782 -47.319  11.028  1.00  0.00     0.076 A 
HETATM    9  C   UNL     1     -40.485 -46.778  10.943  1.00  0.00     0.025 A 
HETATM   10  C   UNL     1     -40.113 -45.392  10.570  1.00  0.00     0.070 C 
HETATM   11  N   UNL     1     -39.554 -47.686  11.248  1.00  0.00    -0.302 N 
HETATM   12  N   UNL     1     -40.260 -48.803  11.519  1.00  0.00    -0.281 N 
ATOM     13  HN  UNL     1     -38.542 -47.562  11.271  1.00  0.00     0.186 HD
HETATM   14  C   UNL     1     -39.521 -49.987  11.882  1.00  0.00     0.179 C 
ENDBRANCH   1   7
BRANCH   4  15
HETATM   15  C   UNL     1     -45.026 -51.015  13.989  1.00  0.00     0.126 C 
BRANCH  15  16
HETATM   16  C   UNL     1     -44.795 -52.416  14.564  1.00  0.00     0.040 C 
BRANCH  16  17
HETATM   17  C   UNL     1     -44.274 -53.360  13.485  1.00  0.00     0.136 C 
BRANCH  17  18
HETATM   18  N   UNL     1     -42.922 -53.826  13.709  1.00  0.00    -0.288 N 
HETATM   19  C   UNL     1     -41.837 -53.378  13.014  1.00  0.00     0.226 C 
HETATM   20  O   UNL     1     -41.852 -52.607  12.068  1.00  0.00    -0.273 OA
HETATM   21  C   UNL     1     -40.602 -54.009  13.590  1.00  0.00     0.112 C 
HETATM   22  C   UNL     1     -41.100 -54.722  14.835  1.00  0.00     0.112 C 
HETATM   23  C   UNL     1     -42.590 -54.733  14.672  1.00  0.00     0.226 C 
HETATM   24  O   UNL     1     -43.365 -55.398  15.340  1.00  0.00    -0.273 OA
ENDBRANCH  17  18
ENDBRANCH  16  17
ENDBRANCH  15  16
ENDBRANCH   4  15
TORSDOF 5
ENDMDL
MODEL 9
REMARK VINA RESULT:      -5.8      2.452      7.291
REMARK  5 active torsions:
REMARK  status: ('A' for Active; 'I' for Inactive)
REMARK    1  A    between atoms: C_4  and  N_5 
REMARK       I    between atoms: N_5  and  C_6 
REMARK       I    between atoms: C_6  and  N_8 
REMARK    2  A    between atoms: N_8  and  C_9 
REMARK    3  A    between atoms: C_9  and  C_10 
REMARK    4  A    between atoms: C_10  and  C_11 
REMARK    5  A    between atoms: C_11  and  N_12 
ROOT
HETATM    1  N   UNL     1     -42.150 -51.908  11.932  1.00  0.00    -0.293 N 
HETATM    2  C   UNL     1     -40.892 -51.634  12.538  1.00  0.00     0.321 C 
HETATM    3  O   UNL     1     -40.630 -51.927  13.691  1.00  0.00    -0.247 OA
HETATM    4  N   UNL     1     -40.044 -51.012  11.668  1.00  0.00    -0.343 N 
HETATM    5  H   UNL     1     -42.289 -51.661  10.964  1.00  0.00     0.172 HD
HETATM    6  H   UNL     1     -40.322 -50.796  10.723  1.00  0.00     0.164 HD
ENDROOT
BRANCH   1   7
HETATM    7  C   UNL     1     -43.203 -52.515  12.619  1.00  0.00     0.127 A 
HETATM    8  C   UNL     1     -43.574 -53.840  12.584  1.00  0.00     0.076 A 
HETATM    9  C   UNL     1     -44.687 -53.956  13.441  1.00  0.00     0.025 A 
HETATM   10  C   UNL     1     -45.462 -55.182  13.744  1.00  0.00     0.070 C 
HETATM   11  N   UNL     1     -45.004 -52.782  13.992  1.00  0.00    -0.302 N 
HETATM   12  N   UNL     1     -44.099 -51.922  13.481  1.00  0.00    -0.281 N 
ATOM     13  HN  UNL     1     -45.759 -52.581  14.649  1.00  0.00     0.186 HD
HETATM   14  C   UNL     1     -44.187 -50.541  13.888  1.00  0.00     0.179 C 
ENDBRANCH   1   7
BRANCH   4  15
HETATM   15  C   UNL     1     -38.697 -50.677  12.096  1.00  0.00     0.126 C 
BRANCH  15  16
HETATM   16  C   UNL     1     -38.402 -49.176  12.019  1.00  0.00     0.040 C 
BRANCH  16  17
HETATM   17  C   UNL     1     -39.390 -48.389  12.875  1.00  0.00     0.136 C 
BRANCH  17  18
HETATM   18  N   UNL     1     -39.967 -47.242  12.208  1.00  0.00    -0.288 N 
HETATM   19  C   UNL     1     -39.676 -45.948  12.529  1.00  0.00     0.226 C 
HETATM   20  O   UNL     1     -38.974 -45.574  13.456  1.00  0.00    -0.273 OA
HETATM   21  C   UNL     1     -40.380 -45.041  11.562  1.00  0.00     0.112 C 
HETATM   22  C   UNL     1     -40.952 -45.987  10.521  1.00  0.00     0.112 C 
HETATM   23  C   UNL     1     -40.832 -47.338  11.158  1.00  0.00     0.226 C 
HETATM   24  O   UNL     1     -41.371 -48.356  10.753  1.00  0.00    -0.273 OA
ENDBRANCH  17  18
ENDBRANCH  16  17
ENDBRANCH  15  16
ENDBRANCH   4  15
TORSDOF 5
ENDMDL
