MODEL 1
REMARK VINA RESULT:      -5.2      0.000      0.000
REMARK  2 active torsions:
REMARK  status: ('A' for Active; 'I' for Inactive)
REMARK       I    between atoms: N_2  and  C_3 
REMARK    1  A    between atoms: C_3  and  C_5 
REMARK    2  A    between atoms: C_11  and  N_12 
ROOT
HETATM    1  C   UNL     1     -45.190 -51.896  14.042  1.00  0.00     0.075 A 
HETATM    2  C   UNL     1     -46.054 -51.366  15.024  1.00  0.00     0.022 A 
HETATM    3  C   UNL     1     -45.533 -50.834  16.193  1.00  0.00     0.018 A 
HETATM    4  C   UNL     1     -44.163 -50.825  16.328  1.00  0.00     0.089 A 
HETATM    5  N   UNL     1     -43.316 -51.322  15.400  1.00  0.00    -0.352 N 
ATOM      6  HN  UNL     1     -42.309 -51.284  15.558  1.00  0.00     0.166 HD
HETATM    7  C   UNL     1     -43.802 -51.875  14.253  1.00  0.00     0.119 A 
ENDROOT
BRANCH   7   8
HETATM    8  N   UNL     1     -42.844 -52.433  13.445  1.00  0.00    -0.362 N 
HETATM    9  C   UNL     1     -42.451 -53.841  13.440  1.00  0.00     0.150 C 
HETATM   10  C   UNL     1     -40.916 -53.943  13.394  1.00  0.00     0.187 C 
HETATM   11  O   UNL     1     -40.361 -53.222  12.283  1.00  0.00    -0.388 OA
HETATM   12  C   UNL     1     -40.713 -51.829  12.373  1.00  0.00     0.187 C 
HETATM   13  C   UNL     1     -42.237 -51.628  12.377  1.00  0.00     0.150 C 
ENDBRANCH   7   8
BRANCH   1  14
HETATM   14  C   UNL     1     -45.827 -52.353  12.777  1.00  0.00     0.255 C 
HETATM   15  N   UNL     1     -46.610 -51.411  12.129  1.00  0.00    -0.361 N 
HETATM   16  C   UNL     1     -47.363 -51.764  10.952  1.00  0.00     0.149 C 
HETATM   17  H   UNL     1     -46.826 -50.540  12.594  1.00  0.00     0.162 HD
HETATM   18  O   UNL     1     -45.657 -53.485  12.345  1.00  0.00    -0.268 OA
ENDBRANCH   1  14
TORSDOF 2
ENDMDL
MODEL 2
REMARK VINA RESULT:      -5.1      5.693      7.093
REMARK  2 active torsions:
REMARK  status: ('A' for Active; 'I' for Inactive)
REMARK       I    between atoms: N_2  and  C_3 
REMARK    1  A    between atoms: C_3  and  C_5 
REMARK    2  A    between atoms: C_11  and  N_12 
ROOT
HETATM    1  C   UNL     1     -43.044 -46.197  10.136  1.00  0.00     0.075 A 
HETATM    2  C   UNL     1     -43.922 -45.679   9.161  1.00  0.00     0.022 A 
HETATM    3  C   UNL     1     -45.061 -46.385   8.806  1.00  0.00     0.018 A 
HETATM    4  C   UNL     1     -45.297 -47.574   9.458  1.00  0.00     0.089 A 
HETATM    5  N   UNL     1     -44.473 -48.089  10.398  1.00  0.00    -0.352 N 
ATOM      6  HN  UNL     1     -44.705 -48.975  10.847  1.00  0.00     0.166 HD
HETATM    7  C   UNL     1     -43.333 -47.428  10.747  1.00  0.00     0.119 A 
ENDROOT
BRANCH   7   8
HETATM    8  N   UNL     1     -42.536 -48.107  11.634  1.00  0.00    -0.362 N 
HETATM    9  C   UNL     1     -42.755 -48.200  13.076  1.00  0.00     0.150 C 
HETATM   10  C   UNL     1     -41.420 -47.978  13.811  1.00  0.00     0.187 C 
HETATM   11  O   UNL     1     -40.401 -48.883  13.358  1.00  0.00    -0.388 OA
HETATM   12  C   UNL     1     -40.170 -48.703  11.950  1.00  0.00     0.187 C 
HETATM   13  C   UNL     1     -41.445 -48.951  11.129  1.00  0.00     0.150 C 
ENDBRANCH   7   8
BRANCH   1  14
HETATM   14  C   UNL     1     -41.903 -45.327  10.528  1.00  0.00     0.255 C 
HETATM   15  N   UNL     1     -40.694 -45.617   9.918  1.00  0.00    -0.361 N 
HETATM   16  C   UNL     1     -39.492 -44.915  10.293  1.00  0.00     0.149 C 
HETATM   17  H   UNL     1     -40.605 -46.461   9.367  1.00  0.00     0.162 HD
HETATM   18  O   UNL     1     -42.038 -44.414  11.333  1.00  0.00    -0.268 OA
ENDBRANCH   1  14
TORSDOF 2
ENDMDL
MODEL 3
REMARK VINA RESULT:      -5.0      1.734      3.443
REMARK  2 active torsions:
REMARK  status: ('A' for Active; 'I' for Inactive)
REMARK       I    between atoms: N_2  and  C_3 
REMARK    1  A    between atoms: C_3  and  C_5 
REMARK    2  A    between atoms: C_11  and  N_12 
ROOT
HETATM    1  C   UNL     1     -44.394 -51.747  14.393  1.00  0.00     0.075 A 
HETATM    2  C   UNL     1     -45.731 -51.310  14.504  1.00  0.00     0.022 A 
HETATM    3  C   UNL     1     -46.635 -51.574  13.487  1.00  0.00     0.018 A 
HETATM    4  C   UNL     1     -46.178 -52.291  12.405  1.00  0.00     0.089 A 
HETATM    5  N   UNL     1     -44.904 -52.725  12.278  1.00  0.00    -0.352 N 
ATOM      6  HN  UNL     1     -44.627 -53.254  11.451  1.00  0.00     0.166 HD
HETATM    7  C   UNL     1     -43.988 -52.456  13.251  1.00  0.00     0.119 A 
ENDROOT
BRANCH   7   8
HETATM    8  N   UNL     1     -42.712 -52.861  12.952  1.00  0.00    -0.362 N 
HETATM    9  C   UNL     1     -42.123 -54.151  13.307  1.00  0.00     0.150 C 
HETATM   10  C   UNL     1     -40.700 -53.930  13.851  1.00  0.00     0.187 C 
HETATM   11  O   UNL     1     -39.879 -53.196  12.929  1.00  0.00    -0.388 OA
HETATM   12  C   UNL     1     -40.461 -51.906  12.668  1.00  0.00     0.187 C 
HETATM   13  C   UNL     1     -41.874 -52.030  12.076  1.00  0.00     0.150 C 
ENDBRANCH   7   8
BRANCH   1  14
HETATM   14  C   UNL     1     -43.520 -51.510  15.573  1.00  0.00     0.255 C 
HETATM   15  N   UNL     1     -43.400 -52.574  16.450  1.00  0.00    -0.361 N 
HETATM   16  C   UNL     1     -42.667 -52.434  17.684  1.00  0.00     0.149 C 
HETATM   17  H   UNL     1     -43.998 -53.382  16.338  1.00  0.00     0.162 HD
HETATM   18  O   UNL     1     -42.945 -50.442  15.742  1.00  0.00    -0.268 OA
ENDBRANCH   1  14
TORSDOF 2
ENDMDL
MODEL 4
REMARK VINA RESULT:      -4.9      2.842      4.109
REMARK  2 active torsions:
REMARK  status: ('A' for Active; 'I' for Inactive)
REMARK       I    between atoms: N_2  and  C_3 
REMARK    1  A    between atoms: C_3  and  C_5 
REMARK    2  A    between atoms: C_11  and  N_12 
ROOT
HETATM    1  C   UNL     1     -42.665 -49.440  12.396  1.00  0.00     0.075 A 
HETATM    2  C   UNL     1     -43.270 -48.222  12.021  1.00  0.00     0.022 A 
HETATM    3  C   UNL     1     -42.745 -47.479  10.975  1.00  0.00     0.018 A 
HETATM    4  C   UNL     1     -41.647 -47.993  10.323  1.00  0.00     0.089 A 
HETATM    5  N   UNL     1     -41.053 -49.158  10.661  1.00  0.00    -0.352 N 
ATOM      6  HN  UNL     1     -40.242 -49.487  10.136  1.00  0.00     0.166 HD
HETATM    7  C   UNL     1     -41.533 -49.896  11.702  1.00  0.00     0.119 A 
ENDROOT
BRANCH   7   8
HETATM    8  N   UNL     1     -40.778 -51.001  12.005  1.00  0.00    -0.362 N 
HETATM    9  C   UNL     1     -41.181 -52.391  11.794  1.00  0.00     0.150 C 
HETATM   10  C   UNL     1     -40.824 -53.221  13.041  1.00  0.00     0.187 C 
HETATM   11  O   UNL     1     -39.434 -53.105  13.385  1.00  0.00    -0.388 OA
HETATM   12  C   UNL     1     -39.104 -51.731  13.655  1.00  0.00     0.187 C 
HETATM   13  C   UNL     1     -39.386 -50.831  12.442  1.00  0.00     0.150 C 
ENDBRANCH   7   8
BRANCH   1  14
HETATM   14  C   UNL     1     -43.352 -50.221  13.459  1.00  0.00     0.255 C 
HETATM   15  N   UNL     1     -44.511 -50.871  13.068  1.00  0.00    -0.361 N 
HETATM   16  C   UNL     1     -45.323 -51.572  14.030  1.00  0.00     0.149 C 
HETATM   17  H   UNL     1     -44.905 -50.679  12.156  1.00  0.00     0.162 HD
HETATM   18  O   UNL     1     -42.910 -50.283  14.599  1.00  0.00    -0.268 OA
ENDBRANCH   1  14
TORSDOF 2
ENDMDL
MODEL 5
REMARK VINA RESULT:      -4.9      2.156      5.230
REMARK  2 active torsions:
REMARK  status: ('A' for Active; 'I' for Inactive)
REMARK       I    between atoms: N_2  and  C_3 
REMARK    1  A    between atoms: C_3  and  C_5 
REMARK    2  A    between atoms: C_11  and  N_12 
ROOT
HETATM    1  C   UNL     1     -42.720 -53.793  13.961  1.00  0.00     0.075 A 
HETATM    2  C   UNL     1     -41.469 -54.136  13.405  1.00  0.00     0.022 A 
HETATM    3  C   UNL     1     -40.930 -53.371  12.383  1.00  0.00     0.018 A 
HETATM    4  C   UNL     1     -41.648 -52.273  11.969  1.00  0.00     0.089 A 
HETATM    5  N   UNL     1     -42.845 -51.921  12.488  1.00  0.00    -0.352 N 
ATOM      6  HN  UNL     1     -43.327 -51.092  12.140  1.00  0.00     0.166 HD
HETATM    7  C   UNL     1     -43.410 -52.670  13.477  1.00  0.00     0.119 A 
ENDROOT
BRANCH   7   8
HETATM    8  N   UNL     1     -44.669 -52.265  13.842  1.00  0.00    -0.362 N 
HETATM    9  C   UNL     1     -44.991 -51.040  14.571  1.00  0.00     0.150 C 
HETATM   10  C   UNL     1     -46.015 -51.357  15.676  1.00  0.00     0.187 C 
HETATM   11  O   UNL     1     -47.188 -52.000  15.154  1.00  0.00    -0.388 OA
HETATM   12  C   UNL     1     -46.829 -53.236  14.511  1.00  0.00     0.187 C 
HETATM   13  C   UNL     1     -45.839 -53.009  13.357  1.00  0.00     0.150 C 
ENDBRANCH   7   8
BRANCH   1  14
HETATM   14  C   UNL     1     -43.175 -54.607  15.120  1.00  0.00     0.255 C 
HETATM   15  N   UNL     1     -42.828 -54.115  16.367  1.00  0.00    -0.361 N 
HETATM   16  C   UNL     1     -43.119 -54.866  17.563  1.00  0.00     0.149 C 
HETATM   17  H   UNL     1     -42.184 -53.338  16.434  1.00  0.00     0.162 HD
HETATM   18  O   UNL     1     -43.818 -55.637  14.969  1.00  0.00    -0.268 OA
ENDBRANCH   1  14
TORSDOF 2
ENDMDL
MODEL 6
REMARK VINA RESULT:      -4.7      3.126      4.583
REMARK  2 active torsions:
REMARK  status: ('A' for Active; 'I' for Inactive)
REMARK       I    between atoms: N_2  and  C_3 
REMARK    1  A    between atoms: C_3  and  C_5 
REMARK    2  A    between atoms: C_11  and  N_12 
ROOT
HETATM    1  C   UNL     1     -43.034 -54.364  14.736  1.00  0.00     0.075 A 
HETATM    2  C   UNL     1     -44.421 -54.605  14.820  1.00  0.00     0.022 A 
HETATM    3  C   UNL     1     -45.223 -54.443  13.701  1.00  0.00     0.018 A 
HETATM    4  C   UNL     1     -44.605 -54.072  12.528  1.00  0.00     0.089 A 
HETATM    5  N   UNL     1     -43.278 -53.840  12.422  1.00  0.00    -0.352 N 
ATOM      6  HN  UNL     1     -42.879 -53.569  11.523  1.00  0.00     0.166 HD
HETATM    7  C   UNL     1     -42.470 -53.966  13.513  1.00  0.00     0.119 A 
ENDROOT
BRANCH   7   8
HETATM    8  N   UNL     1     -41.166 -53.603  13.294  1.00  0.00    -0.362 N 
HETATM    9  C   UNL     1     -39.993 -54.424  13.589  1.00  0.00     0.150 C 
HETATM   10  C   UNL     1     -38.920 -53.557  14.272  1.00  0.00     0.187 C 
HETATM   11  O   UNL     1     -38.588 -52.397  13.492  1.00  0.00    -0.388 OA
HETATM   12  C   UNL     1     -39.758 -51.584  13.292  1.00  0.00     0.187 C 
HETATM   13  C   UNL     1     -40.871 -52.360  12.570  1.00  0.00     0.150 C 
ENDBRANCH   7   8
BRANCH   1  14
HETATM   14  C   UNL     1     -42.236 -54.660  15.956  1.00  0.00     0.255 C 
HETATM   15  N   UNL     1     -42.084 -56.003  16.259  1.00  0.00    -0.361 N 
HETATM   16  C   UNL     1     -41.423 -56.415  17.472  1.00  0.00     0.149 C 
HETATM   17  H   UNL     1     -42.619 -56.692  15.747  1.00  0.00     0.162 HD
HETATM   18  O   UNL     1     -41.744 -53.768  16.635  1.00  0.00    -0.268 OA
ENDBRANCH   1  14
TORSDOF 2
ENDMDL
MODEL 7
REMARK VINA RESULT:      -4.7      5.280      7.456
REMARK  2 active torsions:
REMARK  status: ('A' for Active; 'I' for Inactive)
REMARK       I    between atoms: N_2  and  C_3 
REMARK    1  A    between atoms: C_3  and  C_5 
REMARK    2  A    between atoms: C_11  and  N_12 
ROOT
HETATM    1  C   UNL     1     -39.446 -46.679  12.914  1.00  0.00     0.075 A 
HETATM    2  C   UNL     1     -39.594 -45.283  12.773  1.00  0.00     0.022 A 
HETATM    3  C   UNL     1     -39.988 -44.746  11.558  1.00  0.00     0.018 A 
HETATM    4  C   UNL     1     -40.246 -45.625  10.531  1.00  0.00     0.089 A 
HETATM    5  N   UNL     1     -40.116 -46.966  10.643  1.00  0.00    -0.352 N 
ATOM      6  HN  UNL     1     -40.325 -47.566   9.845  1.00  0.00     0.166 HD
HETATM    7  C   UNL     1     -39.705 -47.519  11.819  1.00  0.00     0.119 A 
ENDROOT
BRANCH   7   8
HETATM    8  N   UNL     1     -39.514 -48.877  11.768  1.00  0.00    -0.362 N 
HETATM    9  C   UNL     1     -40.573 -49.883  11.703  1.00  0.00     0.150 C 
HETATM   10  C   UNL     1     -40.252 -51.027  12.681  1.00  0.00     0.187 C 
HETATM   11  O   UNL     1     -38.953 -51.591  12.442  1.00  0.00    -0.388 OA
HETATM   12  C   UNL     1     -37.940 -50.580  12.590  1.00  0.00     0.187 C 
HETATM   13  C   UNL     1     -38.156 -49.413  11.614  1.00  0.00     0.150 C 
ENDBRANCH   7   8
BRANCH   1  14
HETATM   14  C   UNL     1     -39.119 -47.175  14.278  1.00  0.00     0.255 C 
HETATM   15  N   UNL     1     -37.769 -47.268  14.572  1.00  0.00    -0.361 N 
HETATM   16  C   UNL     1     -37.324 -47.834  15.821  1.00  0.00     0.149 C 
HETATM   17  H   UNL     1     -37.089 -47.140  13.834  1.00  0.00     0.162 HD
HETATM   18  O   UNL     1     -39.995 -47.473  15.080  1.00  0.00    -0.268 OA
ENDBRANCH   1  14
TORSDOF 2
ENDMDL
MODEL 8
REMARK VINA RESULT:      -4.6      6.329      8.078
REMARK  2 active torsions:
REMARK  status: ('A' for Active; 'I' for Inactive)
REMARK       I    between atoms: N_2  and  C_3 
REMARK    1  A    between atoms: C_3  and  C_5 
REMARK    2  A    between atoms: C_11  and  N_12 
ROOT
HETATM    1  C   UNL     1     -41.326 -47.395  11.130  1.00  0.00     0.075 A 
HETATM    2  C   UNL     1     -42.076 -48.185  10.234  1.00  0.00     0.022 A 
HETATM    3  C   UNL     1     -43.004 -47.592   9.393  1.00  0.00     0.018 A 
HETATM    4  C   UNL     1     -43.132 -46.223   9.458  1.00  0.00     0.089 A 
HETATM    5  N   UNL     1     -42.422 -45.444  10.304  1.00  0.00    -0.352 N 
ATOM      6  HN  UNL     1     -42.561 -44.433  10.302  1.00  0.00     0.166 HD
HETATM    7  C   UNL     1     -41.521 -46.004  11.160  1.00  0.00     0.119 A 
ENDROOT
BRANCH   7   8
HETATM    8  N   UNL     1     -40.946 -45.117  12.034  1.00  0.00    -0.362 N 
HETATM    9  C   UNL     1     -39.793 -44.266  11.747  1.00  0.00     0.150 C 
HETATM   10  C   UNL     1     -38.818 -44.308  12.938  1.00  0.00     0.187 C 
HETATM   11  O   UNL     1     -39.460 -43.952  14.172  1.00  0.00    -0.388 OA
HETATM   12  C   UNL     1     -40.540 -44.861  14.448  1.00  0.00     0.187 C 
HETATM   13  C   UNL     1     -41.591 -44.851  13.327  1.00  0.00     0.150 C 
ENDBRANCH   7   8
BRANCH   1  14
HETATM   14  C   UNL     1     -40.283 -48.100  11.922  1.00  0.00     0.255 C 
HETATM   15  N   UNL     1     -39.219 -48.604  11.192  1.00  0.00    -0.361 N 
HETATM   16  C   UNL     1     -38.198 -49.397  11.830  1.00  0.00     0.149 C 
HETATM   17  H   UNL     1     -39.263 -48.601  10.182  1.00  0.00     0.162 HD
HETATM   18  O   UNL     1     -40.367 -48.215  13.138  1.00  0.00    -0.268 OA
ENDBRANCH   1  14
TORSDOF 2
ENDMDL
MODEL 9
REMARK VINA RESULT:      -4.6     18.736     21.453
REMARK  2 active torsions:
REMARK  status: ('A' for Active; 'I' for Inactive)
REMARK       I    between atoms: N_2  and  C_3 
REMARK    1  A    between atoms: C_3  and  C_5 
REMARK    2  A    between atoms: C_11  and  N_12 
ROOT
HETATM    1  C   UNL     1     -25.454 -64.012  17.286  1.00  0.00     0.075 A 
HETATM    2  C   UNL     1     -24.329 -64.380  18.054  1.00  0.00     0.022 A 
HETATM    3  C   UNL     1     -24.408 -64.398  19.438  1.00  0.00     0.018 A 
HETATM    4  C   UNL     1     -25.618 -64.072  20.007  1.00  0.00     0.089 A 
HETATM    5  N   UNL     1     -26.711 -63.721  19.293  1.00  0.00    -0.352 N 
ATOM      6  HN  UNL     1     -27.581 -63.492  19.774  1.00  0.00     0.166 HD
HETATM    7  C   UNL     1     -26.653 -63.670  17.932  1.00  0.00     0.119 A 
ENDROOT
BRANCH   7   8
HETATM    8  N   UNL     1     -27.796 -63.200  17.336  1.00  0.00    -0.362 N 
HETATM    9  C   UNL     1     -29.041 -63.949  17.174  1.00  0.00     0.150 C 
HETATM   10  C   UNL     1     -29.581 -63.740  15.747  1.00  0.00     0.187 C 
HETATM   11  O   UNL     1     -29.741 -62.349  15.430  1.00  0.00    -0.388 OA
HETATM   12  C   UNL     1     -28.476 -61.670  15.532  1.00  0.00     0.187 C 
HETATM   13  C   UNL     1     -27.881 -61.787  16.944  1.00  0.00     0.150 C 
ENDBRANCH   7   8
BRANCH   1  14
HETATM   14  C   UNL     1     -25.311 -64.118  15.810  1.00  0.00     0.255 C 
HETATM   15  N   UNL     1     -25.626 -65.353  15.267  1.00  0.00    -0.361 N 
HETATM   16  C   UNL     1     -25.427 -65.613  13.863  1.00  0.00     0.149 C 
HETATM   17  H   UNL     1     -25.790 -66.139  15.882  1.00  0.00     0.162 HD
HETATM   18  O   UNL     1     -24.946 -63.168  15.129  1.00  0.00    -0.268 OA
ENDBRANCH   1  14
TORSDOF 2
ENDMDL
