MODEL 1
REMARK VINA RESULT:      -6.3      0.000      0.000
REMARK  4 active torsions:
REMARK  status: ('A' for Active; 'I' for Inactive)
REMARK    1  A    between atoms: C_2  and  O_3 
REMARK    2  A    between atoms: O_3  and  C_4 
REMARK    3  A    between atoms: C_10  and  N_11 
REMARK       I    between atoms: N_11  and  C_12 
REMARK       I    between atoms: C_12  and  N_14 
REMARK    4  A    between atoms: N_14  and  C_15 
REMARK       I    between atoms: N_18  and  C_21 
ROOT
HETATM    1  N   UNL     1     -42.366 -48.972  11.330  1.00  0.00    -0.305 N 
HETATM    2  C   UNL     1     -42.934 -49.250  12.557  1.00  0.00     0.321 C 
HETATM    3  O   UNL     1     -42.828 -48.548  13.560  1.00  0.00    -0.247 OA
HETATM    4  N   UNL     1     -43.712 -50.392  12.560  1.00  0.00    -0.338 N 
HETATM    5  H   UNL     1     -42.258 -49.726  10.664  1.00  0.00     0.171 HD
HETATM    6  H   UNL     1     -43.317 -51.159  12.035  1.00  0.00     0.164 HD
ENDROOT
BRANCH   1   7
HETATM    7  C   UNL     1     -41.673 -47.768  11.023  1.00  0.00     0.087 C 
HETATM    8  C   UNL     1     -42.244 -46.776  10.218  1.00  0.00     0.169 C 
HETATM    9  N   UNL     1     -41.576 -45.677   9.780  1.00  0.00    -0.345 N 
HETATM   10  C   UNL     1     -40.328 -45.489  10.246  1.00  0.00     0.090 C 
ATOM     11  HN  UNL     1     -42.002 -45.022   9.126  1.00  0.00     0.167 HD
HETATM   12  C   UNL     1     -39.721 -46.336  11.148  1.00  0.00     0.019 C 
HETATM   13  C   UNL     1     -40.403 -47.491  11.531  1.00  0.00     0.035 C 
BRANCH   8  14
HETATM   14  O   UNL     1     -43.588 -46.884   9.889  1.00  0.00    -0.334 OA
BRANCH  14  15
HETATM   15  C   UNL     1     -43.796 -46.609   8.493  1.00  0.00     0.173 C 
HETATM   16  C   UNL     1     -43.516 -47.862   7.688  1.00  0.00     0.034 C 
ENDBRANCH  14  15
ENDBRANCH   8  14
ENDBRANCH   1   7
BRANCH   4  17
HETATM   17  C   UNL     1     -44.479 -50.735  13.770  1.00  0.00     0.089 C 
HETATM   18  C   UNL     1     -43.579 -51.250  14.900  1.00  0.00     0.045 C 
HETATM   19  C   UNL     1     -43.023 -52.653  14.633  1.00  0.00     0.127 C 
HETATM   20  N   UNL     1     -44.065 -53.597  14.224  1.00  0.00    -0.352 N 
HETATM   21  C   UNL     1     -44.931 -53.126  13.144  1.00  0.00     0.127 C 
HETATM   22  C   UNL     1     -44.155 -54.936  14.572  1.00  0.00     0.215 C 
HETATM   23  C   UNL     1     -45.565 -51.792  13.507  1.00  0.00     0.045 C 
HETATM   24  O   UNL     1     -45.020 -55.679  14.098  1.00  0.00    -0.274 OA
HETATM   25  C   UNL     1     -43.197 -55.523  15.577  1.00  0.00     0.117 C 
ENDBRANCH   4  17
TORSDOF 4
ENDMDL
MODEL 2
REMARK VINA RESULT:      -6.3      2.014      7.924
REMARK  4 active torsions:
REMARK  status: ('A' for Active; 'I' for Inactive)
REMARK    1  A    between atoms: C_2  and  O_3 
REMARK    2  A    between atoms: O_3  and  C_4 
REMARK    3  A    between atoms: C_10  and  N_11 
REMARK       I    between atoms: N_11  and  C_12 
REMARK       I    between atoms: C_12  and  N_14 
REMARK    4  A    between atoms: N_14  and  C_15 
REMARK       I    between atoms: N_18  and  C_21 
ROOT
HETATM    1  N   UNL     1     -44.681 -50.769  12.752  1.00  0.00    -0.305 N 
HETATM    2  C   UNL     1     -43.492 -50.230  13.203  1.00  0.00     0.321 C 
HETATM    3  O   UNL     1     -42.974 -50.472  14.290  1.00  0.00    -0.247 OA
HETATM    4  N   UNL     1     -42.871 -49.412  12.278  1.00  0.00    -0.338 N 
HETATM    5  H   UNL     1     -45.169 -50.302  11.998  1.00  0.00     0.171 HD
HETATM    6  H   UNL     1     -43.504 -48.809  11.773  1.00  0.00     0.164 HD
ENDROOT
BRANCH   1   7
HETATM    7  C   UNL     1     -45.416 -51.773  13.441  1.00  0.00     0.087 C 
HETATM    8  C   UNL     1     -45.191 -53.135  13.211  1.00  0.00     0.169 C 
HETATM    9  N   UNL     1     -45.958 -54.128  13.734  1.00  0.00    -0.345 N 
HETATM   10  C   UNL     1     -46.916 -53.772  14.608  1.00  0.00     0.090 C 
ATOM     11  HN  UNL     1     -45.813 -55.103  13.474  1.00  0.00     0.167 HD
HETATM   12  C   UNL     1     -47.132 -52.469  15.006  1.00  0.00     0.019 C 
HETATM   13  C   UNL     1     -46.376 -51.463  14.405  1.00  0.00     0.035 C 
BRANCH   8  14
HETATM   14  O   UNL     1     -44.090 -53.505  12.453  1.00  0.00    -0.334 OA
BRANCH  14  15
HETATM   15  C   UNL     1     -43.052 -54.047  13.289  1.00  0.00     0.173 C 
HETATM   16  C   UNL     1     -41.711 -53.508  12.836  1.00  0.00     0.034 C 
ENDBRANCH  14  15
ENDBRANCH   8  14
ENDBRANCH   1   7
BRANCH   4  17
HETATM   17  C   UNL     1     -41.533 -48.874  12.579  1.00  0.00     0.089 C 
HETATM   18  C   UNL     1     -41.597 -47.633  13.478  1.00  0.00     0.045 C 
HETATM   19  C   UNL     1     -42.132 -46.394  12.754  1.00  0.00     0.127 C 
HETATM   20  N   UNL     1     -41.465 -46.166  11.471  1.00  0.00    -0.352 N 
HETATM   21  C   UNL     1     -41.399 -47.336  10.597  1.00  0.00     0.127 C 
HETATM   22  C   UNL     1     -41.122 -44.941  10.919  1.00  0.00     0.215 C 
HETATM   23  C   UNL     1     -40.740 -48.505  11.314  1.00  0.00     0.045 C 
HETATM   24  O   UNL     1     -40.647 -44.844   9.783  1.00  0.00    -0.274 OA
HETATM   25  C   UNL     1     -41.302 -43.675  11.716  1.00  0.00     0.117 C 
ENDBRANCH   4  17
TORSDOF 4
ENDMDL
MODEL 3
REMARK VINA RESULT:      -6.2      2.222      8.028
REMARK  4 active torsions:
REMARK  status: ('A' for Active; 'I' for Inactive)
REMARK    1  A    between atoms: C_2  and  O_3 
REMARK    2  A    between atoms: O_3  and  C_4 
REMARK    3  A    between atoms: C_10  and  N_11 
REMARK       I    between atoms: N_11  and  C_12 
REMARK       I    between atoms: C_12  and  N_14 
REMARK    4  A    between atoms: N_14  and  C_15 
REMARK       I    between atoms: N_18  and  C_21 
ROOT
HETATM    1  N   UNL     1     -44.723 -51.451  12.725  1.00  0.00    -0.305 N 
HETATM    2  C   UNL     1     -43.658 -50.746  13.252  1.00  0.00     0.321 C 
HETATM    3  O   UNL     1     -43.109 -50.991  14.323  1.00  0.00    -0.247 OA
HETATM    4  N   UNL     1     -43.198 -49.740  12.423  1.00  0.00    -0.338 N 
HETATM    5  H   UNL     1     -45.286 -51.013  12.008  1.00  0.00     0.171 HD
HETATM    6  H   UNL     1     -43.931 -49.220  11.963  1.00  0.00     0.164 HD
ENDROOT
BRANCH   1   7
HETATM    7  C   UNL     1     -45.258 -52.638  13.299  1.00  0.00     0.087 C 
HETATM    8  C   UNL     1     -46.289 -52.596  14.243  1.00  0.00     0.169 C 
HETATM    9  N   UNL     1     -46.738 -53.684  14.923  1.00  0.00    -0.345 N 
HETATM   10  C   UNL     1     -46.228 -54.880  14.579  1.00  0.00     0.090 C 
ATOM     11  HN  UNL     1     -47.433 -53.597  15.664  1.00  0.00     0.167 HD
HETATM   12  C   UNL     1     -45.305 -55.046  13.568  1.00  0.00     0.019 C 
HETATM   13  C   UNL     1     -44.812 -53.908  12.931  1.00  0.00     0.035 C 
BRANCH   8  14
HETATM   14  O   UNL     1     -46.936 -51.389  14.464  1.00  0.00    -0.334 OA
BRANCH  14  15
HETATM   15  C   UNL     1     -47.190 -51.194  15.866  1.00  0.00     0.173 C 
HETATM   16  C   UNL     1     -45.915 -50.738  16.548  1.00  0.00     0.034 C 
ENDBRANCH  14  15
ENDBRANCH   8  14
ENDBRANCH   1   7
BRANCH   4  17
HETATM   17  C   UNL     1     -41.987 -48.993  12.804  1.00  0.00     0.089 C 
HETATM   18  C   UNL     1     -42.316 -47.720  13.592  1.00  0.00     0.045 C 
HETATM   19  C   UNL     1     -42.941 -46.622  12.725  1.00  0.00     0.127 C 
HETATM   20  N   UNL     1     -42.182 -46.383  11.495  1.00  0.00    -0.352 N 
HETATM   21  C   UNL     1     -41.864 -47.585  10.727  1.00  0.00     0.127 C 
HETATM   22  C   UNL     1     -41.959 -45.159  10.882  1.00  0.00     0.215 C 
HETATM   23  C   UNL     1     -41.126 -48.595  11.592  1.00  0.00     0.045 C 
HETATM   24  O   UNL     1     -41.387 -45.068   9.791  1.00  0.00    -0.274 OA
HETATM   25  C   UNL     1     -42.394 -43.884  11.556  1.00  0.00     0.117 C 
ENDBRANCH   4  17
TORSDOF 4
ENDMDL
MODEL 4
REMARK VINA RESULT:      -6.2      2.216      7.647
REMARK  4 active torsions:
REMARK  status: ('A' for Active; 'I' for Inactive)
REMARK    1  A    between atoms: C_2  and  O_3 
REMARK    2  A    between atoms: O_3  and  C_4 
REMARK    3  A    between atoms: C_10  and  N_11 
REMARK       I    between atoms: N_11  and  C_12 
REMARK       I    between atoms: C_12  and  N_14 
REMARK    4  A    between atoms: N_14  and  C_15 
REMARK       I    between atoms: N_18  and  C_21 
ROOT
HETATM    1  N   UNL     1     -43.864 -51.721  12.456  1.00  0.00    -0.305 N 
HETATM    2  C   UNL     1     -43.223 -50.739  13.185  1.00  0.00     0.321 C 
HETATM    3  O   UNL     1     -43.270 -50.623  14.407  1.00  0.00    -0.247 OA
HETATM    4  N   UNL     1     -42.444 -49.899  12.413  1.00  0.00    -0.338 N 
HETATM    5  H   UNL     1     -44.011 -51.572  11.466  1.00  0.00     0.171 HD
HETATM    6  H   UNL     1     -42.869 -49.637  11.535  1.00  0.00     0.164 HD
ENDROOT
BRANCH   1   7
HETATM    7  C   UNL     1     -44.577 -52.809  13.033  1.00  0.00     0.087 C 
HETATM    8  C   UNL     1     -45.959 -52.754  13.240  1.00  0.00     0.169 C 
HETATM    9  N   UNL     1     -46.663 -53.702  13.913  1.00  0.00    -0.345 N 
HETATM   10  C   UNL     1     -45.998 -54.805  14.299  1.00  0.00     0.090 C 
ATOM     11  HN  UNL     1     -47.655 -53.582  14.116  1.00  0.00     0.167 HD
HETATM   12  C   UNL     1     -44.663 -55.019  14.026  1.00  0.00     0.019 C 
HETATM   13  C   UNL     1     -43.949 -54.002  13.393  1.00  0.00     0.035 C 
BRANCH   8  14
HETATM   14  O   UNL     1     -46.670 -51.701  12.682  1.00  0.00    -0.334 OA
BRANCH  14  15
HETATM   15  C   UNL     1     -47.174 -52.057  11.383  1.00  0.00     0.173 C 
HETATM   16  C   UNL     1     -47.681 -50.812  10.684  1.00  0.00     0.034 C 
ENDBRANCH  14  15
ENDBRANCH   8  14
ENDBRANCH   1   7
BRANCH   4  17
HETATM   17  C   UNL     1     -41.604 -48.887  13.077  1.00  0.00     0.089 C 
HETATM   18  C   UNL     1     -42.419 -47.675  13.546  1.00  0.00     0.045 C 
HETATM   19  C   UNL     1     -42.895 -46.788  12.391  1.00  0.00     0.127 C 
HETATM   20  N   UNL     1     -41.813 -46.455  11.462  1.00  0.00    -0.352 N 
HETATM   21  C   UNL     1     -41.027 -47.597  11.000  1.00  0.00     0.127 C 
HETATM   22  C   UNL     1     -41.621 -45.246  10.810  1.00  0.00     0.215 C 
HETATM   23  C   UNL     1     -40.465 -48.375  12.179  1.00  0.00     0.045 C 
HETATM   24  O   UNL     1     -40.731 -45.090   9.968  1.00  0.00    -0.274 OA
HETATM   25  C   UNL     1     -42.495 -44.062  11.137  1.00  0.00     0.117 C 
ENDBRANCH   4  17
TORSDOF 4
ENDMDL
MODEL 5
REMARK VINA RESULT:      -6.2      2.360      3.617
REMARK  4 active torsions:
REMARK  status: ('A' for Active; 'I' for Inactive)
REMARK    1  A    between atoms: C_2  and  O_3 
REMARK    2  A    between atoms: O_3  and  C_4 
REMARK    3  A    between atoms: C_10  and  N_11 
REMARK       I    between atoms: N_11  and  C_12 
REMARK       I    between atoms: C_12  and  N_14 
REMARK    4  A    between atoms: N_14  and  C_15 
REMARK       I    between atoms: N_18  and  C_21 
ROOT
HETATM    1  N   UNL     1     -42.848 -48.297  10.352  1.00  0.00    -0.305 N 
HETATM    2  C   UNL     1     -42.574 -48.402  11.701  1.00  0.00     0.321 C 
HETATM    3  O   UNL     1     -43.061 -47.693  12.579  1.00  0.00    -0.247 OA
HETATM    4  N   UNL     1     -41.721 -49.444  12.013  1.00  0.00    -0.338 N 
HETATM    5  H   UNL     1     -42.199 -48.707   9.693  1.00  0.00     0.171 HD
HETATM    6  H   UNL     1     -40.957 -49.556  11.363  1.00  0.00     0.164 HD
ENDROOT
BRANCH   1   7
HETATM    7  C   UNL     1     -43.828 -47.425   9.800  1.00  0.00     0.087 C 
HETATM    8  C   UNL     1     -43.535 -46.093   9.492  1.00  0.00     0.169 C 
HETATM    9  N   UNL     1     -44.466 -45.184   9.098  1.00  0.00    -0.345 N 
HETATM   10  C   UNL     1     -45.716 -45.634   8.890  1.00  0.00     0.090 C 
ATOM     11  HN  UNL     1     -44.226 -44.202   8.965  1.00  0.00     0.167 HD
HETATM   12  C   UNL     1     -46.079 -46.956   9.034  1.00  0.00     0.019 C 
HETATM   13  C   UNL     1     -45.122 -47.855   9.503  1.00  0.00     0.035 C 
BRANCH   8  14
HETATM   14  O   UNL     1     -42.211 -45.679   9.534  1.00  0.00    -0.334 OA
BRANCH  14  15
HETATM   15  C   UNL     1     -41.959 -44.894  10.713  1.00  0.00     0.173 C 
HETATM   16  C   UNL     1     -40.526 -45.106  11.158  1.00  0.00     0.034 C 
ENDBRANCH  14  15
ENDBRANCH   8  14
ENDBRANCH   1   7
BRANCH   4  17
HETATM   17  C   UNL     1     -41.446 -49.749  13.427  1.00  0.00     0.089 C 
HETATM   18  C   UNL     1     -40.022 -50.278  13.640  1.00  0.00     0.045 C 
HETATM   19  C   UNL     1     -39.823 -51.700  13.105  1.00  0.00     0.127 C 
HETATM   20  N   UNL     1     -40.873 -52.616  13.555  1.00  0.00    -0.352 N 
HETATM   21  C   UNL     1     -42.238 -52.133  13.356  1.00  0.00     0.127 C 
HETATM   22  C   UNL     1     -40.716 -53.948  13.910  1.00  0.00     0.215 C 
HETATM   23  C   UNL     1     -42.428 -50.776  14.017  1.00  0.00     0.045 C 
HETATM   24  O   UNL     1     -41.679 -54.670  14.185  1.00  0.00    -0.274 OA
HETATM   25  C   UNL     1     -39.338 -54.552  13.994  1.00  0.00     0.117 C 
ENDBRANCH   4  17
TORSDOF 4
ENDMDL
MODEL 6
REMARK VINA RESULT:      -6.1      1.529      1.969
REMARK  4 active torsions:
REMARK  status: ('A' for Active; 'I' for Inactive)
REMARK    1  A    between atoms: C_2  and  O_3 
REMARK    2  A    between atoms: O_3  and  C_4 
REMARK    3  A    between atoms: C_10  and  N_11 
REMARK       I    between atoms: N_11  and  C_12 
REMARK       I    between atoms: C_12  and  N_14 
REMARK    4  A    between atoms: N_14  and  C_15 
REMARK       I    between atoms: N_18  and  C_21 
ROOT
HETATM    1  N   UNL     1     -41.892 -49.196  10.955  1.00  0.00    -0.305 N 
HETATM    2  C   UNL     1     -41.542 -49.925  12.075  1.00  0.00     0.321 C 
HETATM    3  O   UNL     1     -40.920 -49.486  13.038  1.00  0.00    -0.247 OA
HETATM    4  N   UNL     1     -42.015 -51.224  12.058  1.00  0.00    -0.338 N 
HETATM    5  H   UNL     1     -42.134 -49.694  10.109  1.00  0.00     0.171 HD
HETATM    6  H   UNL     1     -41.945 -51.674  11.157  1.00  0.00     0.164 HD
ENDROOT
BRANCH   1   7
HETATM    7  C   UNL     1     -41.681 -47.796  10.814  1.00  0.00     0.087 C 
HETATM    8  C   UNL     1     -42.719 -46.928  10.461  1.00  0.00     0.169 C 
HETATM    9  N   UNL     1     -42.543 -45.611  10.176  1.00  0.00    -0.345 N 
HETATM   10  C   UNL     1     -41.311 -45.102  10.355  1.00  0.00     0.090 C 
ATOM     11  HN  UNL     1     -43.313 -45.033   9.840  1.00  0.00     0.167 HD
HETATM   12  C   UNL     1     -40.248 -45.841  10.829  1.00  0.00     0.019 C 
HETATM   13  C   UNL     1     -40.439 -47.204  11.051  1.00  0.00     0.035 C 
BRANCH   8  14
HETATM   14  O   UNL     1     -44.017 -47.419  10.454  1.00  0.00    -0.334 OA
BRANCH  14  15
HETATM   15  C   UNL     1     -44.564 -47.397   9.123  1.00  0.00     0.173 C 
HETATM   16  C   UNL     1     -46.075 -47.308   9.204  1.00  0.00     0.034 C 
ENDBRANCH  14  15
ENDBRANCH   8  14
ENDBRANCH   1   7
BRANCH   4  17
HETATM   17  C   UNL     1     -41.824 -52.073  13.246  1.00  0.00     0.089 C 
HETATM   18  C   UNL     1     -42.057 -53.558  12.941  1.00  0.00     0.045 C 
HETATM   19  C   UNL     1     -43.533 -53.899  12.710  1.00  0.00     0.127 C 
HETATM   20  N   UNL     1     -44.400 -53.363  13.760  1.00  0.00    -0.352 N 
HETATM   21  C   UNL     1     -44.197 -51.947  14.063  1.00  0.00     0.127 C 
HETATM   22  C   UNL     1     -45.520 -53.974  14.304  1.00  0.00     0.215 C 
HETATM   23  C   UNL     1     -42.742 -51.677  14.415  1.00  0.00     0.045 C 
HETATM   24  O   UNL     1     -46.247 -53.400  15.122  1.00  0.00    -0.274 OA
HETATM   25  C   UNL     1     -45.870 -55.389  13.923  1.00  0.00     0.117 C 
ENDBRANCH   4  17
TORSDOF 4
ENDMDL
MODEL 7
REMARK VINA RESULT:      -6.0      1.878      7.840
REMARK  4 active torsions:
REMARK  status: ('A' for Active; 'I' for Inactive)
REMARK    1  A    between atoms: C_2  and  O_3 
REMARK    2  A    between atoms: O_3  and  C_4 
REMARK    3  A    between atoms: C_10  and  N_11 
REMARK       I    between atoms: N_11  and  C_12 
REMARK       I    between atoms: C_12  and  N_14 
REMARK    4  A    between atoms: N_14  and  C_15 
REMARK       I    between atoms: N_18  and  C_21 
ROOT
HETATM    1  N   UNL     1     -42.724 -51.104  13.572  1.00  0.00    -0.305 N 
HETATM    2  C   UNL     1     -41.940 -50.669  12.522  1.00  0.00     0.321 C 
HETATM    3  O   UNL     1     -41.225 -51.388  11.829  1.00  0.00    -0.247 OA
HETATM    4  N   UNL     1     -42.068 -49.318  12.259  1.00  0.00    -0.338 N 
HETATM    5  H   UNL     1     -43.038 -50.426  14.255  1.00  0.00     0.171 HD
HETATM    6  H   UNL     1     -42.116 -48.742  13.086  1.00  0.00     0.164 HD
ENDROOT
BRANCH   1   7
HETATM    7  C   UNL     1     -42.905 -52.470  13.923  1.00  0.00     0.087 C 
HETATM    8  C   UNL     1     -44.034 -53.190  13.519  1.00  0.00     0.169 C 
HETATM    9  N   UNL     1     -44.323 -54.448  13.943  1.00  0.00    -0.345 N 
HETATM   10  C   UNL     1     -43.405 -55.066  14.708  1.00  0.00     0.090 C 
ATOM     11  HN  UNL     1     -45.198 -54.906  13.692  1.00  0.00     0.167 HD
HETATM   12  C   UNL     1     -42.198 -54.496  15.052  1.00  0.00     0.019 C 
HETATM   13  C   UNL     1     -41.955 -53.180  14.660  1.00  0.00     0.035 C 
BRANCH   8  14
HETATM   14  O   UNL     1     -44.885 -52.615  12.587  1.00  0.00    -0.334 OA
BRANCH  14  15
HETATM   15  C   UNL     1     -46.247 -52.650  13.050  1.00  0.00     0.173 C 
HETATM   16  C   UNL     1     -46.501 -51.457  13.949  1.00  0.00     0.034 C 
ENDBRANCH  14  15
ENDBRANCH   8  14
ENDBRANCH   1   7
BRANCH   4  17
HETATM   17  C   UNL     1     -41.386 -48.747  11.085  1.00  0.00     0.089 C 
HETATM   18  C   UNL     1     -40.239 -47.809  11.481  1.00  0.00     0.045 C 
HETATM   19  C   UNL     1     -40.725 -46.482  12.072  1.00  0.00     0.127 C 
HETATM   20  N   UNL     1     -41.755 -45.848  11.247  1.00  0.00    -0.352 N 
HETATM   21  C   UNL     1     -42.860 -46.725  10.862  1.00  0.00     0.127 C 
HETATM   22  C   UNL     1     -41.908 -44.491  11.008  1.00  0.00     0.215 C 
HETATM   23  C   UNL     1     -42.339 -47.970  10.161  1.00  0.00     0.045 C 
HETATM   24  O   UNL     1     -42.868 -44.042  10.374  1.00  0.00    -0.274 OA
HETATM   25  C   UNL     1     -40.874 -43.513  11.504  1.00  0.00     0.117 C 
ENDBRANCH   4  17
TORSDOF 4
ENDMDL
MODEL 8
REMARK VINA RESULT:      -5.8      2.649      3.149
REMARK  4 active torsions:
REMARK  status: ('A' for Active; 'I' for Inactive)
REMARK    1  A    between atoms: C_2  and  O_3 
REMARK    2  A    between atoms: O_3  and  C_4 
REMARK    3  A    between atoms: C_10  and  N_11 
REMARK       I    between atoms: N_11  and  C_12 
REMARK       I    between atoms: C_12  and  N_14 
REMARK    4  A    between atoms: N_14  and  C_15 
REMARK       I    between atoms: N_18  and  C_21 
ROOT
HETATM    1  N   UNL     1     -41.308 -49.165  12.493  1.00  0.00    -0.305 N 
HETATM    2  C   UNL     1     -40.598 -50.328  12.270  1.00  0.00     0.321 C 
HETATM    3  O   UNL     1     -39.600 -50.421  11.559  1.00  0.00    -0.247 OA
HETATM    4  N   UNL     1     -41.076 -51.412  12.981  1.00  0.00    -0.338 N 
HETATM    5  H   UNL     1     -42.256 -49.235  12.839  1.00  0.00     0.171 HD
HETATM    6  H   UNL     1     -42.084 -51.470  13.012  1.00  0.00     0.164 HD
ENDROOT
BRANCH   1   7
HETATM    7  C   UNL     1     -40.912 -47.882  12.023  1.00  0.00     0.087 C 
HETATM    8  C   UNL     1     -41.238 -47.439  10.737  1.00  0.00     0.169 C 
HETATM    9  N   UNL     1     -40.766 -46.287  10.190  1.00  0.00    -0.345 N 
HETATM   10  C   UNL     1     -40.034 -45.484  10.982  1.00  0.00     0.090 C 
ATOM     11  HN  UNL     1     -40.960 -46.043   9.219  1.00  0.00     0.167 HD
HETATM   12  C   UNL     1     -39.767 -45.763  12.305  1.00  0.00     0.019 C 
HETATM   13  C   UNL     1     -40.207 -46.982  12.823  1.00  0.00     0.035 C 
BRANCH   8  14
HETATM   14  O   UNL     1     -42.139 -48.183   9.990  1.00  0.00    -0.334 OA
BRANCH  14  15
HETATM   15  C   UNL     1     -43.176 -47.341   9.454  1.00  0.00     0.173 C 
HETATM   16  C   UNL     1     -43.478 -47.763   8.030  1.00  0.00     0.034 C 
ENDBRANCH  14  15
ENDBRANCH   8  14
ENDBRANCH   1   7
BRANCH   4  17
HETATM   17  C   UNL     1     -40.335 -52.685  12.934  1.00  0.00     0.089 C 
HETATM   18  C   UNL     1     -41.271 -53.898  12.887  1.00  0.00     0.045 C 
HETATM   19  C   UNL     1     -41.990 -54.155  14.215  1.00  0.00     0.127 C 
HETATM   20  N   UNL     1     -41.071 -54.155  15.355  1.00  0.00    -0.352 N 
HETATM   21  C   UNL     1     -40.174 -53.003  15.421  1.00  0.00     0.127 C 
HETATM   22  C   UNL     1     -41.131 -54.978  16.470  1.00  0.00     0.215 C 
HETATM   23  C   UNL     1     -39.383 -52.864  14.129  1.00  0.00     0.045 C 
HETATM   24  O   UNL     1     -40.365 -54.839  17.429  1.00  0.00    -0.274 OA
HETATM   25  C   UNL     1     -42.134 -56.101  16.529  1.00  0.00     0.117 C 
ENDBRANCH   4  17
TORSDOF 4
ENDMDL
MODEL 9
REMARK VINA RESULT:      -5.7      3.445      4.625
REMARK  4 active torsions:
REMARK  status: ('A' for Active; 'I' for Inactive)
REMARK    1  A    between atoms: C_2  and  O_3 
REMARK    2  A    between atoms: O_3  and  C_4 
REMARK    3  A    between atoms: C_10  and  N_11 
REMARK       I    between atoms: N_11  and  C_12 
REMARK       I    between atoms: C_12  and  N_14 
REMARK    4  A    between atoms: N_14  and  C_15 
REMARK       I    between atoms: N_18  and  C_21 
ROOT
HETATM    1  N   UNL     1     -41.297 -50.055  13.264  1.00  0.00    -0.305 N 
HETATM    2  C   UNL     1     -41.518 -51.373  12.915  1.00  0.00     0.321 C 
HETATM    3  O   UNL     1     -41.748 -51.773  11.777  1.00  0.00    -0.247 OA
HETATM    4  N   UNL     1     -41.395 -52.253  13.974  1.00  0.00    -0.338 N 
HETATM    5  H   UNL     1     -41.408 -49.786  14.234  1.00  0.00     0.171 HD
HETATM    6  H   UNL     1     -41.799 -51.916  14.836  1.00  0.00     0.164 HD
ENDROOT
BRANCH   1   7
HETATM    7  C   UNL     1     -41.191 -48.987  12.331  1.00  0.00     0.087 C 
HETATM    8  C   UNL     1     -39.980 -48.324  12.107  1.00  0.00     0.169 C 
HETATM    9  N   UNL     1     -39.855 -47.212  11.336  1.00  0.00    -0.345 N 
HETATM   10  C   UNL     1     -40.947 -46.801  10.667  1.00  0.00     0.090 C 
ATOM     11  HN  UNL     1     -38.970 -46.710  11.268  1.00  0.00     0.167 HD
HETATM   12  C   UNL     1     -42.156 -47.461  10.712  1.00  0.00     0.019 C 
HETATM   13  C   UNL     1     -42.275 -48.561  11.562  1.00  0.00     0.035 C 
BRANCH   8  14
HETATM   14  O   UNL     1     -38.823 -48.859  12.655  1.00  0.00    -0.334 OA
BRANCH  14  15
HETATM   15  C   UNL     1     -38.063 -49.564  11.657  1.00  0.00     0.173 C 
HETATM   16  C   UNL     1     -37.546 -50.862  12.245  1.00  0.00     0.034 C 
ENDBRANCH  14  15
ENDBRANCH   8  14
ENDBRANCH   1   7
BRANCH   4  17
HETATM   17  C   UNL     1     -41.478 -53.701  13.717  1.00  0.00     0.089 C 
HETATM   18  C   UNL     1     -42.044 -54.470  14.917  1.00  0.00     0.045 C 
HETATM   19  C   UNL     1     -41.067 -54.550  16.095  1.00  0.00     0.127 C 
HETATM   20  N   UNL     1     -39.732 -54.987  15.682  1.00  0.00    -0.352 N 
HETATM   21  C   UNL     1     -39.173 -54.263  14.543  1.00  0.00     0.127 C 
HETATM   22  C   UNL     1     -38.875 -55.818  16.389  1.00  0.00     0.215 C 
HETATM   23  C   UNL     1     -40.118 -54.320  13.353  1.00  0.00     0.045 C 
HETATM   24  O   UNL     1     -37.726 -56.055  16.003  1.00  0.00    -0.274 OA
HETATM   25  C   UNL     1     -39.343 -56.487  17.656  1.00  0.00     0.117 C 
ENDBRANCH   4  17
TORSDOF 4
ENDMDL
