MODEL 1
REMARK VINA RESULT:      -6.3      0.000      0.000
REMARK  6 active torsions:
REMARK  status: ('A' for Active; 'I' for Inactive)
REMARK    1  A    between atoms: O_1  and  C_2 
REMARK    2  A    between atoms: C_2  and  C_3 
REMARK    3  A    between atoms: C_3  and  O_4 
REMARK    4  A    between atoms: O_4  and  C_5 
REMARK    5  A    between atoms: N_9  and  C_11 
REMARK    6  A    between atoms: C_13  and  C_18 
ROOT
HETATM    1  C   UNL     1     -40.748 -48.408  12.030  1.00  0.00     0.139 C 
HETATM    2  C   UNL     1     -41.368 -48.225  13.425  1.00  0.00     0.035 C 
HETATM    3  C   UNL     1     -42.868 -47.931  13.327  1.00  0.00     0.022 C 
HETATM    4  C   UNL     1     -43.122 -46.711  12.442  1.00  0.00     0.124 C 
HETATM    5  N   UNL     1     -42.512 -46.894  11.127  1.00  0.00    -0.365 N 
HETATM    6  C   UNL     1     -41.061 -47.159  11.164  1.00  0.00     0.156 C 
ENDROOT
BRANCH   5   7
HETATM    7  C   UNL     1     -43.205 -47.323  10.007  1.00  0.00     0.103 A 
HETATM    8  C   UNL     1     -44.557 -47.654  10.031  1.00  0.00     0.064 A 
HETATM    9  C   UNL     1     -45.229 -48.050   8.861  1.00  0.00     0.052 A 
HETATM   10  C   UNL     1     -44.515 -48.101   7.668  1.00  0.00     0.033 A 
HETATM   11  C   UNL     1     -43.183 -47.759   7.706  1.00  0.00     0.090 A 
HETATM   12  N   UNL     1     -42.539 -47.377   8.830  1.00  0.00    -0.352 N 
ATOM     13  HN  UNL     1     -41.551 -47.128   8.791  1.00  0.00     0.166 HD
BRANCH   9  14
HETATM   14  C   UNL     1     -46.686 -48.414   8.891  1.00  0.00     0.417 C 
HETATM   15  F   UNL     1     -47.140 -48.960   7.728  1.00  0.00    -0.166 F 
HETATM   16  F   UNL     1     -46.980 -49.318   9.867  1.00  0.00    -0.166 F 
HETATM   17  F   UNL     1     -47.485 -47.337   9.131  1.00  0.00    -0.166 F 
ENDBRANCH   9  14
ENDBRANCH   5   7
BRANCH   1  18
HETATM   18  O   UNL     1     -41.278 -49.637  11.505  1.00  0.00    -0.382 OA
BRANCH  18  19
HETATM   19  C   UNL     1     -40.436 -50.767  11.720  1.00  0.00     0.194 C 
BRANCH  19  20
HETATM   20  C   UNL     1     -41.306 -52.007  11.885  1.00  0.00     0.190 C 
BRANCH  20  21
HETATM   21  O   UNL     1     -40.610 -53.163  11.433  1.00  0.00    -0.399 OA
HETATM   22  H   UNL     1     -39.674 -52.911  11.360  1.00  0.00     0.209 HD
ENDBRANCH  20  21
ENDBRANCH  19  20
ENDBRANCH  18  19
ENDBRANCH   1  18
TORSDOF 6
ENDMDL
MODEL 2
REMARK VINA RESULT:      -5.8      3.181      5.075
REMARK  6 active torsions:
REMARK  status: ('A' for Active; 'I' for Inactive)
REMARK    1  A    between atoms: O_1  and  C_2 
REMARK    2  A    between atoms: C_2  and  C_3 
REMARK    3  A    between atoms: C_3  and  O_4 
REMARK    4  A    between atoms: O_4  and  C_5 
REMARK    5  A    between atoms: N_9  and  C_11 
REMARK    6  A    between atoms: C_13  and  C_18 
ROOT
HETATM    1  C   UNL     1     -42.659 -47.341  11.731  1.00  0.00     0.139 C 
HETATM    2  C   UNL     1     -41.167 -47.213  11.382  1.00  0.00     0.035 C 
HETATM    3  C   UNL     1     -40.455 -48.565  11.504  1.00  0.00     0.022 C 
HETATM    4  C   UNL     1     -40.650 -49.154  12.900  1.00  0.00     0.124 C 
HETATM    5  N   UNL     1     -42.072 -49.251  13.222  1.00  0.00    -0.365 N 
HETATM    6  C   UNL     1     -42.802 -47.971  13.142  1.00  0.00     0.156 C 
ENDROOT
BRANCH   5   7
HETATM    7  C   UNL     1     -42.816 -50.412  13.090  1.00  0.00     0.103 A 
HETATM    8  C   UNL     1     -44.185 -50.469  13.337  1.00  0.00     0.064 A 
HETATM    9  C   UNL     1     -44.907 -51.662  13.154  1.00  0.00     0.052 A 
HETATM   10  C   UNL     1     -44.225 -52.793  12.714  1.00  0.00     0.033 A 
HETATM   11  C   UNL     1     -42.875 -52.674  12.484  1.00  0.00     0.090 A 
HETATM   12  N   UNL     1     -42.182 -51.527  12.657  1.00  0.00    -0.352 N 
ATOM     13  HN  UNL     1     -41.182 -51.501  12.462  1.00  0.00     0.166 HD
BRANCH   9  14
HETATM   14  C   UNL     1     -46.383 -51.722  13.428  1.00  0.00     0.417 C 
HETATM   15  F   UNL     1     -47.152 -51.287  12.391  1.00  0.00    -0.166 F 
HETATM   16  F   UNL     1     -46.813 -52.985  13.705  1.00  0.00    -0.166 F 
HETATM   17  F   UNL     1     -46.744 -50.964  14.500  1.00  0.00    -0.166 F 
ENDBRANCH   9  14
ENDBRANCH   5   7
BRANCH   1  18
HETATM   18  O   UNL     1     -43.261 -48.112  10.678  1.00  0.00    -0.382 OA
BRANCH  18  19
HETATM   19  C   UNL     1     -44.136 -47.360   9.839  1.00  0.00     0.194 C 
BRANCH  19  20
HETATM   20  C   UNL     1     -43.568 -47.337   8.426  1.00  0.00     0.190 C 
BRANCH  20  21
HETATM   21  O   UNL     1     -42.847 -46.130   8.204  1.00  0.00    -0.399 OA
HETATM   22  H   UNL     1     -42.673 -45.746   9.079  1.00  0.00     0.209 HD
ENDBRANCH  20  21
ENDBRANCH  19  20
ENDBRANCH  18  19
ENDBRANCH   1  18
TORSDOF 6
ENDMDL
MODEL 3
REMARK VINA RESULT:      -5.7      4.749      6.274
REMARK  6 active torsions:
REMARK  status: ('A' for Active; 'I' for Inactive)
REMARK    1  A    between atoms: O_1  and  C_2 
REMARK    2  A    between atoms: C_2  and  C_3 
REMARK    3  A    between atoms: C_3  and  O_4 
REMARK    4  A    between atoms: O_4  and  C_5 
REMARK    5  A    between atoms: N_9  and  C_11 
REMARK    6  A    between atoms: C_13  and  C_18 
ROOT
HETATM    1  C   UNL     1     -39.812 -51.966  14.207  1.00  0.00     0.139 C 
HETATM    2  C   UNL     1     -39.008 -53.271  14.329  1.00  0.00     0.035 C 
HETATM    3  C   UNL     1     -39.917 -54.495  14.171  1.00  0.00     0.022 C 
HETATM    4  C   UNL     1     -41.061 -54.452  15.182  1.00  0.00     0.124 C 
HETATM    5  N   UNL     1     -41.803 -53.198  15.065  1.00  0.00    -0.365 N 
HETATM    6  C   UNL     1     -40.977 -51.987  15.232  1.00  0.00     0.156 C 
ENDROOT
BRANCH   5   7
HETATM    7  C   UNL     1     -42.986 -53.065  14.357  1.00  0.00     0.103 A 
HETATM    8  C   UNL     1     -44.132 -52.485  14.895  1.00  0.00     0.064 A 
HETATM    9  C   UNL     1     -45.301 -52.338  14.127  1.00  0.00     0.052 A 
HETATM   10  C   UNL     1     -45.291 -52.779  12.807  1.00  0.00     0.033 A 
HETATM   11  C   UNL     1     -44.129 -53.339  12.331  1.00  0.00     0.090 A 
HETATM   12  N   UNL     1     -43.006 -53.479  13.068  1.00  0.00    -0.352 N 
ATOM     13  HN  UNL     1     -42.173 -53.897  12.654  1.00  0.00     0.166 HD
BRANCH   9  14
HETATM   14  C   UNL     1     -46.538 -51.718  14.713  1.00  0.00     0.417 C 
HETATM   15  F   UNL     1     -47.403 -52.624  15.249  1.00  0.00    -0.166 F 
HETATM   16  F   UNL     1     -46.259 -50.835  15.711  1.00  0.00    -0.166 F 
HETATM   17  F   UNL     1     -47.256 -51.021  13.790  1.00  0.00    -0.166 F 
ENDBRANCH   9  14
ENDBRANCH   5   7
BRANCH   1  18
HETATM   18  O   UNL     1     -40.234 -51.872  12.837  1.00  0.00    -0.382 OA
BRANCH  18  19
HETATM   19  C   UNL     1     -40.813 -50.615  12.496  1.00  0.00     0.194 C 
BRANCH  19  20
HETATM   20  C   UNL     1     -39.891 -49.894  11.520  1.00  0.00     0.190 C 
BRANCH  20  21
HETATM   21  O   UNL     1     -40.444 -49.918  10.209  1.00  0.00    -0.399 OA
HETATM   22  H   UNL     1     -40.350 -50.829   9.885  1.00  0.00     0.209 HD
ENDBRANCH  20  21
ENDBRANCH  19  20
ENDBRANCH  18  19
ENDBRANCH   1  18
TORSDOF 6
ENDMDL
MODEL 4
REMARK VINA RESULT:      -5.7      4.218      5.375
REMARK  6 active torsions:
REMARK  status: ('A' for Active; 'I' for Inactive)
REMARK    1  A    between atoms: O_1  and  C_2 
REMARK    2  A    between atoms: C_2  and  C_3 
REMARK    3  A    between atoms: C_3  and  O_4 
REMARK    4  A    between atoms: O_4  and  C_5 
REMARK    5  A    between atoms: N_9  and  C_11 
REMARK    6  A    between atoms: C_13  and  C_18 
ROOT
HETATM    1  C   UNL     1     -39.850 -51.561  13.361  1.00  0.00     0.139 C 
HETATM    2  C   UNL     1     -39.699 -50.064  13.677  1.00  0.00     0.035 C 
HETATM    3  C   UNL     1     -41.068 -49.393  13.835  1.00  0.00     0.022 C 
HETATM    4  C   UNL     1     -41.923 -49.613  12.589  1.00  0.00     0.124 C 
HETATM    5  N   UNL     1     -42.042 -51.039  12.292  1.00  0.00    -0.365 N 
HETATM    6  C   UNL     1     -40.751 -51.729  12.108  1.00  0.00     0.156 C 
ENDROOT
BRANCH   5   7
HETATM    7  C   UNL     1     -43.128 -51.816  12.658  1.00  0.00     0.103 A 
HETATM    8  C   UNL     1     -44.162 -51.344  13.463  1.00  0.00     0.064 A 
HETATM    9  C   UNL     1     -45.264 -52.158  13.780  1.00  0.00     0.052 A 
HETATM   10  C   UNL     1     -45.307 -53.451  13.268  1.00  0.00     0.033 A 
HETATM   11  C   UNL     1     -44.259 -53.859  12.476  1.00  0.00     0.090 A 
HETATM   12  N   UNL     1     -43.202 -53.076  12.170  1.00  0.00    -0.352 N 
ATOM     13  HN  UNL     1     -42.458 -53.435  11.571  1.00  0.00     0.166 HD
BRANCH   9  14
HETATM   14  C   UNL     1     -46.375 -51.649  14.655  1.00  0.00     0.417 C 
HETATM   15  F   UNL     1     -47.323 -50.941  13.980  1.00  0.00    -0.166 F 
HETATM   16  F   UNL     1     -47.043 -52.653  15.289  1.00  0.00    -0.166 F 
HETATM   17  F   UNL     1     -45.925 -50.823  15.639  1.00  0.00    -0.166 F 
ENDBRANCH   9  14
ENDBRANCH   5   7
BRANCH   1  18
HETATM   18  O   UNL     1     -40.371 -52.179  14.549  1.00  0.00    -0.382 OA
BRANCH  18  19
HETATM   19  C   UNL     1     -40.410 -53.603  14.489  1.00  0.00     0.194 C 
BRANCH  19  20
HETATM   20  C   UNL     1     -38.982 -54.136  14.461  1.00  0.00     0.190 C 
BRANCH  20  21
HETATM   21  O   UNL     1     -38.796 -54.989  13.337  1.00  0.00    -0.399 OA
HETATM   22  H   UNL     1     -38.408 -54.441  12.635  1.00  0.00     0.209 HD
ENDBRANCH  20  21
ENDBRANCH  19  20
ENDBRANCH  18  19
ENDBRANCH   1  18
TORSDOF 6
ENDMDL
MODEL 5
REMARK VINA RESULT:      -5.6      2.644      4.197
REMARK  6 active torsions:
REMARK  status: ('A' for Active; 'I' for Inactive)
REMARK    1  A    between atoms: O_1  and  C_2 
REMARK    2  A    between atoms: C_2  and  C_3 
REMARK    3  A    between atoms: C_3  and  O_4 
REMARK    4  A    between atoms: O_4  and  C_5 
REMARK    5  A    between atoms: N_9  and  C_11 
REMARK    6  A    between atoms: C_13  and  C_18 
ROOT
HETATM    1  C   UNL     1     -39.688 -51.810  13.632  1.00  0.00     0.139 C 
HETATM    2  C   UNL     1     -40.623 -52.987  13.308  1.00  0.00     0.035 C 
HETATM    3  C   UNL     1     -41.745 -52.553  12.358  1.00  0.00     0.022 C 
HETATM    4  C   UNL     1     -42.520 -51.372  12.942  1.00  0.00     0.124 C 
HETATM    5  N   UNL     1     -41.614 -50.271  13.261  1.00  0.00    -0.365 N 
HETATM    6  C   UNL     1     -40.526 -50.630  14.191  1.00  0.00     0.156 C 
ENDROOT
BRANCH   5   7
HETATM    7  C   UNL     1     -41.404 -49.180  12.434  1.00  0.00     0.103 A 
HETATM    8  C   UNL     1     -42.286 -48.815  11.420  1.00  0.00     0.064 A 
HETATM    9  C   UNL     1     -42.051 -47.677  10.628  1.00  0.00     0.052 A 
HETATM   10  C   UNL     1     -40.916 -46.912  10.880  1.00  0.00     0.033 A 
HETATM   11  C   UNL     1     -40.086 -47.320  11.897  1.00  0.00     0.090 A 
HETATM   12  N   UNL     1     -40.312 -48.412  12.659  1.00  0.00    -0.352 N 
ATOM     13  HN  UNL     1     -39.661 -48.658  13.404  1.00  0.00     0.166 HD
BRANCH   9  14
HETATM   14  C   UNL     1     -43.000 -47.290   9.529  1.00  0.00     0.417 C 
HETATM   15  F   UNL     1     -42.906 -48.077   8.421  1.00  0.00    -0.166 F 
HETATM   16  F   UNL     1     -44.304 -47.351   9.919  1.00  0.00    -0.166 F 
HETATM   17  F   UNL     1     -42.801 -46.014   9.096  1.00  0.00    -0.166 F 
ENDBRANCH   9  14
ENDBRANCH   5   7
BRANCH   1  18
HETATM   18  O   UNL     1     -38.977 -51.507  12.421  1.00  0.00    -0.382 OA
BRANCH  18  19
HETATM   19  C   UNL     1     -37.705 -50.900  12.634  1.00  0.00     0.194 C 
BRANCH  19  20
HETATM   20  C   UNL     1     -37.346 -50.061  11.414  1.00  0.00     0.190 C 
BRANCH  20  21
HETATM   21  O   UNL     1     -38.461 -49.968  10.534  1.00  0.00    -0.399 OA
HETATM   22  H   UNL     1     -38.935 -50.813  10.597  1.00  0.00     0.209 HD
ENDBRANCH  20  21
ENDBRANCH  19  20
ENDBRANCH  18  19
ENDBRANCH   1  18
TORSDOF 6
ENDMDL
MODEL 6
REMARK VINA RESULT:      -5.6      4.887      6.613
REMARK  6 active torsions:
REMARK  status: ('A' for Active; 'I' for Inactive)
REMARK    1  A    between atoms: O_1  and  C_2 
REMARK    2  A    between atoms: C_2  and  C_3 
REMARK    3  A    between atoms: C_3  and  O_4 
REMARK    4  A    between atoms: O_4  and  C_5 
REMARK    5  A    between atoms: N_9  and  C_11 
REMARK    6  A    between atoms: C_13  and  C_18 
ROOT
HETATM    1  C   UNL     1     -41.155 -51.722  13.462  1.00  0.00     0.139 C 
HETATM    2  C   UNL     1     -40.674 -53.130  13.075  1.00  0.00     0.035 C 
HETATM    3  C   UNL     1     -41.822 -54.144  13.146  1.00  0.00     0.022 C 
HETATM    4  C   UNL     1     -42.462 -54.137  14.534  1.00  0.00     0.124 C 
HETATM    5  N   UNL     1     -42.896 -52.789  14.892  1.00  0.00    -0.365 N 
HETATM    6  C   UNL     1     -41.823 -51.777  14.861  1.00  0.00     0.156 C 
ENDROOT
BRANCH   5   7
HETATM    7  C   UNL     1     -44.197 -52.335  14.754  1.00  0.00     0.103 A 
HETATM    8  C   UNL     1     -45.009 -52.015  15.839  1.00  0.00     0.064 A 
HETATM    9  C   UNL     1     -46.313 -51.523  15.650  1.00  0.00     0.052 A 
HETATM   10  C   UNL     1     -46.780 -51.354  14.350  1.00  0.00     0.033 A 
HETATM   11  C   UNL     1     -45.931 -51.684  13.320  1.00  0.00     0.090 A 
HETATM   12  N   UNL     1     -44.678 -52.155  13.502  1.00  0.00    -0.352 N 
ATOM     13  HN  UNL     1     -44.094 -52.374  12.695  1.00  0.00     0.166 HD
BRANCH   9  14
HETATM   14  C   UNL     1     -47.190 -51.185  16.823  1.00  0.00     0.417 C 
HETATM   15  F   UNL     1     -48.458 -50.830  16.475  1.00  0.00    -0.166 F 
HETATM   16  F   UNL     1     -47.320 -52.223  17.695  1.00  0.00    -0.166 F 
HETATM   17  F   UNL     1     -46.701 -50.145  17.554  1.00  0.00    -0.166 F 
ENDBRANCH   9  14
ENDBRANCH   5   7
BRANCH   1  18
HETATM   18  O   UNL     1     -42.029 -51.285  12.408  1.00  0.00    -0.382 OA
BRANCH  18  19
HETATM   19  C   UNL     1     -41.901 -49.901  12.088  1.00  0.00     0.194 C 
BRANCH  19  20
HETATM   20  C   UNL     1     -40.508 -49.652  11.522  1.00  0.00     0.190 C 
BRANCH  20  21
HETATM   21  O   UNL     1     -40.478 -49.958  10.133  1.00  0.00    -0.399 OA
HETATM   22  H   UNL     1     -41.000 -49.271   9.686  1.00  0.00     0.209 HD
ENDBRANCH  20  21
ENDBRANCH  19  20
ENDBRANCH  18  19
ENDBRANCH   1  18
TORSDOF 6
ENDMDL
MODEL 7
REMARK VINA RESULT:      -5.6      6.247      7.642
REMARK  6 active torsions:
REMARK  status: ('A' for Active; 'I' for Inactive)
REMARK    1  A    between atoms: O_1  and  C_2 
REMARK    2  A    between atoms: C_2  and  C_3 
REMARK    3  A    between atoms: C_3  and  O_4 
REMARK    4  A    between atoms: O_4  and  C_5 
REMARK    5  A    between atoms: N_9  and  C_11 
REMARK    6  A    between atoms: C_13  and  C_18 
ROOT
HETATM    1  C   UNL     1     -40.423 -54.352  15.964  1.00  0.00     0.139 C 
HETATM    2  C   UNL     1     -40.237 -55.697  16.685  1.00  0.00     0.035 C 
HETATM    3  C   UNL     1     -41.561 -56.464  16.771  1.00  0.00     0.022 C 
HETATM    4  C   UNL     1     -42.634 -55.614  17.450  1.00  0.00     0.124 C 
HETATM    5  N   UNL     1     -42.785 -54.333  16.763  1.00  0.00    -0.365 N 
HETATM    6  C   UNL     1     -41.542 -53.543  16.673  1.00  0.00     0.156 C 
ENDROOT
BRANCH   5   7
HETATM    7  C   UNL     1     -43.770 -54.070  15.826  1.00  0.00     0.103 A 
HETATM    8  C   UNL     1     -44.690 -53.034  15.961  1.00  0.00     0.064 A 
HETATM    9  C   UNL     1     -45.651 -52.782  14.966  1.00  0.00     0.052 A 
HETATM   10  C   UNL     1     -45.664 -53.589  13.832  1.00  0.00     0.033 A 
HETATM   11  C   UNL     1     -44.729 -54.594  13.754  1.00  0.00     0.090 A 
HETATM   12  N   UNL     1     -43.804 -54.834  14.709  1.00  0.00    -0.352 N 
ATOM     13  HN  UNL     1     -43.132 -55.591  14.588  1.00  0.00     0.166 HD
BRANCH   9  14
HETATM   14  C   UNL     1     -46.648 -51.667  15.117  1.00  0.00     0.417 C 
HETATM   15  F   UNL     1     -47.816 -52.052  15.703  1.00  0.00    -0.166 F 
HETATM   16  F   UNL     1     -46.172 -50.640  15.876  1.00  0.00    -0.166 F 
HETATM   17  F   UNL     1     -46.996 -51.116  13.922  1.00  0.00    -0.166 F 
ENDBRANCH   9  14
ENDBRANCH   5   7
BRANCH   1  18
HETATM   18  O   UNL     1     -40.700 -54.660  14.588  1.00  0.00    -0.382 OA
BRANCH  18  19
HETATM   19  C   UNL     1     -40.090 -53.764  13.661  1.00  0.00     0.194 C 
BRANCH  19  20
HETATM   20  C   UNL     1     -41.137 -53.311  12.651  1.00  0.00     0.190 C 
BRANCH  20  21
HETATM   21  O   UNL     1     -40.596 -53.340  11.335  1.00  0.00    -0.399 OA
HETATM   22  H   UNL     1     -41.233 -53.826  10.785  1.00  0.00     0.209 HD
ENDBRANCH  20  21
ENDBRANCH  19  20
ENDBRANCH  18  19
ENDBRANCH   1  18
TORSDOF 6
ENDMDL
MODEL 8
REMARK VINA RESULT:      -5.6      5.783      8.041
REMARK  6 active torsions:
REMARK  status: ('A' for Active; 'I' for Inactive)
REMARK    1  A    between atoms: O_1  and  C_2 
REMARK    2  A    between atoms: C_2  and  C_3 
REMARK    3  A    between atoms: C_3  and  O_4 
REMARK    4  A    between atoms: O_4  and  C_5 
REMARK    5  A    between atoms: N_9  and  C_11 
REMARK    6  A    between atoms: C_13  and  C_18 
ROOT
HETATM    1  C   UNL     1     -45.561 -51.483  13.220  1.00  0.00     0.139 C 
HETATM    2  C   UNL     1     -46.810 -51.395  14.111  1.00  0.00     0.035 C 
HETATM    3  C   UNL     1     -46.676 -52.302  15.339  1.00  0.00     0.022 C 
HETATM    4  C   UNL     1     -46.396 -53.744  14.916  1.00  0.00     0.124 C 
HETATM    5  N   UNL     1     -45.218 -53.807  14.055  1.00  0.00    -0.365 N 
HETATM    6  C   UNL     1     -45.304 -52.967  12.845  1.00  0.00     0.156 C 
ENDROOT
BRANCH   5   7
HETATM    7  C   UNL     1     -43.951 -54.140  14.504  1.00  0.00     0.103 A 
HETATM    8  C   UNL     1     -42.797 -53.919  13.756  1.00  0.00     0.064 A 
HETATM    9  C   UNL     1     -41.527 -54.240  14.267  1.00  0.00     0.052 A 
HETATM   10  C   UNL     1     -41.441 -54.781  15.546  1.00  0.00     0.033 A 
HETATM   11  C   UNL     1     -42.614 -54.972  16.238  1.00  0.00     0.090 A 
HETATM   12  N   UNL     1     -43.834 -54.662  15.747  1.00  0.00    -0.352 N 
ATOM     13  HN  UNL     1     -44.667 -54.822  16.313  1.00  0.00     0.166 HD
BRANCH   9  14
HETATM   14  C   UNL     1     -40.284 -54.007  13.455  1.00  0.00     0.417 C 
HETATM   15  F   UNL     1     -39.578 -52.906  13.837  1.00  0.00    -0.166 F 
HETATM   16  F   UNL     1     -39.412 -55.051  13.522  1.00  0.00    -0.166 F 
HETATM   17  F   UNL     1     -40.554 -53.832  12.131  1.00  0.00    -0.166 F 
ENDBRANCH   9  14
ENDBRANCH   5   7
BRANCH   1  18
HETATM   18  O   UNL     1     -44.490 -50.867  13.953  1.00  0.00    -0.382 OA
BRANCH  18  19
HETATM   19  C   UNL     1     -43.689 -49.982  13.172  1.00  0.00     0.194 C 
BRANCH  19  20
HETATM   20  C   UNL     1     -42.274 -50.540  13.088  1.00  0.00     0.190 C 
BRANCH  20  21
HETATM   21  O   UNL     1     -42.019 -51.042  11.781  1.00  0.00    -0.399 OA
HETATM   22  H   UNL     1     -41.212 -51.579  11.843  1.00  0.00     0.209 HD
ENDBRANCH  20  21
ENDBRANCH  19  20
ENDBRANCH  18  19
ENDBRANCH   1  18
TORSDOF 6
ENDMDL
MODEL 9
REMARK VINA RESULT:      -5.5      5.236      7.063
REMARK  6 active torsions:
REMARK  status: ('A' for Active; 'I' for Inactive)
REMARK    1  A    between atoms: O_1  and  C_2 
REMARK    2  A    between atoms: C_2  and  C_3 
REMARK    3  A    between atoms: C_3  and  O_4 
REMARK    4  A    between atoms: O_4  and  C_5 
REMARK    5  A    between atoms: N_9  and  C_11 
REMARK    6  A    between atoms: C_13  and  C_18 
ROOT
HETATM    1  C   UNL     1     -43.730 -53.003  13.894  1.00  0.00     0.139 C 
HETATM    2  C   UNL     1     -43.038 -54.189  14.584  1.00  0.00     0.035 C 
HETATM    3  C   UNL     1     -41.514 -54.082  14.467  1.00  0.00     0.022 C 
HETATM    4  C   UNL     1     -41.092 -53.969  13.002  1.00  0.00     0.124 C 
HETATM    5  N   UNL     1     -41.773 -52.849  12.357  1.00  0.00    -0.365 N 
HETATM    6  C   UNL     1     -43.245 -52.914  12.422  1.00  0.00     0.156 C 
ENDROOT
BRANCH   5   7
HETATM    7  C   UNL     1     -41.202 -51.599  12.178  1.00  0.00     0.103 A 
HETATM    8  C   UNL     1     -39.830 -51.373  12.250  1.00  0.00     0.064 A 
HETATM    9  C   UNL     1     -39.293 -50.093  12.025  1.00  0.00     0.052 A 
HETATM   10  C   UNL     1     -40.161 -49.049  11.722  1.00  0.00     0.033 A 
HETATM   11  C   UNL     1     -41.505 -49.335  11.661  1.00  0.00     0.090 A 
HETATM   12  N   UNL     1     -42.021 -50.564  11.875  1.00  0.00    -0.352 N 
ATOM     13  HN  UNL     1     -43.028 -50.714  11.808  1.00  0.00     0.166 HD
BRANCH   9  14
HETATM   14  C   UNL     1     -37.812 -49.850  12.111  1.00  0.00     0.417 C 
HETATM   15  F   UNL     1     -37.471 -48.827  12.943  1.00  0.00    -0.166 F 
HETATM   16  F   UNL     1     -37.129 -50.939  12.561  1.00  0.00    -0.166 F 
HETATM   17  F   UNL     1     -37.266 -49.543  10.902  1.00  0.00    -0.166 F 
ENDBRANCH   9  14
ENDBRANCH   5   7
BRANCH   1  18
HETATM   18  O   UNL     1     -43.433 -51.839  14.683  1.00  0.00    -0.382 OA
BRANCH  18  19
HETATM   19  C   UNL     1     -44.465 -50.856  14.674  1.00  0.00     0.194 C 
BRANCH  19  20
HETATM   20  C   UNL     1     -45.781 -51.517  15.064  1.00  0.00     0.190 C 
BRANCH  20  21
HETATM   21  O   UNL     1     -46.784 -51.228  14.096  1.00  0.00    -0.399 OA
HETATM   22  H   UNL     1     -46.366 -50.665  13.424  1.00  0.00     0.209 HD
ENDBRANCH  20  21
ENDBRANCH  19  20
ENDBRANCH  18  19
ENDBRANCH   1  18
TORSDOF 6
ENDMDL
