MODEL 1
REMARK VINA RESULT:      -6.2      0.000      0.000
REMARK  3 active torsions:
REMARK  status: ('A' for Active; 'I' for Inactive)
REMARK       I    between atoms: N_1  and  C_2 
REMARK       I    between atoms: C_2  and  N_4 
REMARK       I    between atoms: N_4  and  C_5 
REMARK    1  A    between atoms: C_5  and  C_7 
REMARK    2  A    between atoms: C_7  and  N_8 
REMARK    3  A    between atoms: N_15  and  C_16 
ROOT
HETATM    1  N   UNL     1     -41.947 -48.737  11.904  1.00  0.00    -0.256 N 
HETATM    2  C   UNL     1     -40.587 -48.613  11.670  1.00  0.00     0.274 C 
HETATM    3  O   UNL     1     -40.054 -47.557  11.339  1.00  0.00    -0.266 OA
HETATM    4  C   UNL     1     -39.776 -49.840  11.846  1.00  0.00     0.128 C 
HETATM    5  C   UNL     1     -38.411 -49.841  11.476  1.00  0.00     0.106 C 
HETATM    6  N   UNL     1     -37.293 -49.911  11.171  1.00  0.00    -0.191 NA
HETATM    7  C   UNL     1     -40.368 -50.921  12.362  1.00  0.00     0.124 C 
HETATM    8  N   UNL     1     -41.700 -50.938  12.710  1.00  0.00    -0.303 N 
HETATM    9  C   UNL     1     -42.532 -49.836  12.519  1.00  0.00     0.332 C 
HETATM   10  O   UNL     1     -43.700 -49.792  12.912  1.00  0.00    -0.246 OA
ENDROOT
BRANCH   1  11
HETATM   11  C   UNL     1     -42.799 -47.591  11.598  1.00  0.00     0.240 C 
BRANCH  11  12
HETATM   12  C   UNL     1     -43.414 -47.672  10.202  1.00  0.00     0.244 C 
HETATM   13  N   UNL     1     -44.795 -47.554  10.174  1.00  0.00    -0.278 N 
HETATM   14  C   UNL     1     -45.631 -47.631   9.097  1.00  0.00     0.320 C 
HETATM   15  H   UNL     1     -45.293 -47.408  11.051  1.00  0.00     0.173 HD
HETATM   16  N   UNL     1     -45.062 -47.896   7.905  1.00  0.00    -0.352 N 
HETATM   17  O   UNL     1     -46.842 -47.475   9.212  1.00  0.00    -0.247 OA
HETATM   18  H   UNL     1     -45.638 -47.936   7.077  1.00  0.00     0.160 HD
HETATM   19  H   UNL     1     -44.049 -47.928   7.814  1.00  0.00     0.160 HD
HETATM   20  O   UNL     1     -42.730 -47.917   9.209  1.00  0.00    -0.271 OA
ENDBRANCH  11  12
ENDBRANCH   1  11
BRANCH   8  21
HETATM   21  C   UNL     1     -42.206 -52.106  13.395  1.00  0.00     0.094 A 
HETATM   22  C   UNL     1     -41.621 -53.486  13.219  1.00  0.00     0.028 A 
HETATM   23  C   UNL     1     -42.970 -53.173  12.649  1.00  0.00     0.028 A 
ENDBRANCH   8  21
TORSDOF 3
ENDMDL
MODEL 2
REMARK VINA RESULT:      -6.1      4.824      7.803
REMARK  3 active torsions:
REMARK  status: ('A' for Active; 'I' for Inactive)
REMARK       I    between atoms: N_1  and  C_2 
REMARK       I    between atoms: C_2  and  N_4 
REMARK       I    between atoms: N_4  and  C_5 
REMARK    1  A    between atoms: C_5  and  C_7 
REMARK    2  A    between atoms: C_7  and  N_8 
REMARK    3  A    between atoms: N_15  and  C_16 
ROOT
HETATM    1  N   UNL     1     -44.845 -54.065  14.697  1.00  0.00    -0.256 N 
HETATM    2  C   UNL     1     -45.337 -53.667  13.464  1.00  0.00     0.274 C 
HETATM    3  O   UNL     1     -45.012 -54.200  12.406  1.00  0.00    -0.266 OA
HETATM    4  C   UNL     1     -46.303 -52.545  13.474  1.00  0.00     0.128 C 
HETATM    5  C   UNL     1     -46.732 -51.974  12.253  1.00  0.00     0.106 C 
HETATM    6  N   UNL     1     -47.104 -51.450  11.286  1.00  0.00    -0.191 NA
HETATM    7  C   UNL     1     -46.751 -52.105  14.653  1.00  0.00     0.124 C 
HETATM    8  N   UNL     1     -46.328 -52.640  15.849  1.00  0.00    -0.303 N 
HETATM    9  C   UNL     1     -45.380 -53.660  15.913  1.00  0.00     0.332 C 
HETATM   10  O   UNL     1     -45.059 -54.223  16.962  1.00  0.00    -0.246 OA
ENDROOT
BRANCH   1  11
HETATM   11  C   UNL     1     -43.782 -55.065  14.717  1.00  0.00     0.240 C 
BRANCH  11  12
HETATM   12  C   UNL     1     -42.387 -54.441  14.718  1.00  0.00     0.244 C 
HETATM   13  N   UNL     1     -41.944 -54.022  13.473  1.00  0.00    -0.278 N 
HETATM   14  C   UNL     1     -40.737 -53.474  13.143  1.00  0.00     0.320 C 
HETATM   15  H   UNL     1     -42.558 -54.137  12.668  1.00  0.00     0.173 HD
HETATM   16  N   UNL     1     -39.833 -53.354  14.136  1.00  0.00    -0.352 N 
HETATM   17  O   UNL     1     -40.486 -53.117  11.997  1.00  0.00    -0.247 OA
HETATM   18  H   UNL     1     -38.938 -52.930  13.944  1.00  0.00     0.160 HD
HETATM   19  H   UNL     1     -40.092 -53.568  15.096  1.00  0.00     0.160 HD
HETATM   20  O   UNL     1     -41.696 -54.408  15.735  1.00  0.00    -0.271 OA
ENDBRANCH  11  12
ENDBRANCH   1  11
BRANCH   8  21
HETATM   21  C   UNL     1     -46.981 -52.195  17.060  1.00  0.00     0.094 A 
HETATM   22  C   UNL     1     -47.989 -51.071  17.090  1.00  0.00     0.028 A 
HETATM   23  C   UNL     1     -46.631 -50.867  17.687  1.00  0.00     0.028 A 
ENDBRANCH   8  21
TORSDOF 3
ENDMDL
MODEL 3
REMARK VINA RESULT:      -5.7      3.958      6.414
REMARK  3 active torsions:
REMARK  status: ('A' for Active; 'I' for Inactive)
REMARK       I    between atoms: N_1  and  C_2 
REMARK       I    between atoms: C_2  and  N_4 
REMARK       I    between atoms: N_4  and  C_5 
REMARK    1  A    between atoms: C_5  and  C_7 
REMARK    2  A    between atoms: C_7  and  N_8 
REMARK    3  A    between atoms: N_15  and  C_16 
ROOT
HETATM    1  N   UNL     1     -41.530 -53.240  12.909  1.00  0.00    -0.256 N 
HETATM    2  C   UNL     1     -42.860 -53.569  13.117  1.00  0.00     0.274 C 
HETATM    3  O   UNL     1     -43.753 -53.298  12.319  1.00  0.00    -0.266 OA
HETATM    4  C   UNL     1     -43.169 -54.285  14.375  1.00  0.00     0.128 C 
HETATM    5  C   UNL     1     -44.516 -54.518  14.741  1.00  0.00     0.106 C 
HETATM    6  N   UNL     1     -45.599 -54.720  15.105  1.00  0.00    -0.191 NA
HETATM    7  C   UNL     1     -42.151 -54.702  15.134  1.00  0.00     0.124 C 
HETATM    8  N   UNL     1     -40.837 -54.466  14.799  1.00  0.00    -0.303 N 
HETATM    9  C   UNL     1     -40.478 -53.750  13.657  1.00  0.00     0.332 C 
HETATM   10  O   UNL     1     -39.312 -53.611  13.283  1.00  0.00    -0.246 OA
ENDROOT
BRANCH   1  11
HETATM   11  C   UNL     1     -41.207 -52.404  11.756  1.00  0.00     0.240 C 
BRANCH  11  12
HETATM   12  C   UNL     1     -40.616 -51.053  12.156  1.00  0.00     0.244 C 
HETATM   13  N   UNL     1     -39.326 -50.832  11.700  1.00  0.00    -0.278 N 
HETATM   14  C   UNL     1     -38.519 -49.754  11.928  1.00  0.00     0.320 C 
HETATM   15  H   UNL     1     -38.875 -51.550  11.135  1.00  0.00     0.173 HD
HETATM   16  N   UNL     1     -39.010 -48.788  12.730  1.00  0.00    -0.352 N 
HETATM   17  O   UNL     1     -37.400 -49.674  11.434  1.00  0.00    -0.247 OA
HETATM   18  H   UNL     1     -38.459 -47.960  12.904  1.00  0.00     0.160 HD
HETATM   19  H   UNL     1     -39.973 -48.828  13.053  1.00  0.00     0.160 HD
HETATM   20  O   UNL     1     -41.219 -50.280  12.899  1.00  0.00    -0.271 OA
ENDBRANCH  11  12
ENDBRANCH   1  11
BRANCH   8  21
HETATM   21  C   UNL     1     -39.809 -55.084  15.607  1.00  0.00     0.094 A 
HETATM   22  C   UNL     1     -40.053 -55.588  17.009  1.00  0.00     0.028 A 
HETATM   23  C   UNL     1     -39.219 -54.363  16.795  1.00  0.00     0.028 A 
ENDBRANCH   8  21
TORSDOF 3
ENDMDL
MODEL 4
REMARK VINA RESULT:      -5.7      3.791      6.296
REMARK  3 active torsions:
REMARK  status: ('A' for Active; 'I' for Inactive)
REMARK       I    between atoms: N_1  and  C_2 
REMARK       I    between atoms: C_2  and  N_4 
REMARK       I    between atoms: N_4  and  C_5 
REMARK    1  A    between atoms: C_5  and  C_7 
REMARK    2  A    between atoms: C_7  and  N_8 
REMARK    3  A    between atoms: N_15  and  C_16 
ROOT
HETATM    1  N   UNL     1     -42.088 -52.561  13.096  1.00  0.00    -0.256 N 
HETATM    2  C   UNL     1     -41.839 -53.677  13.878  1.00  0.00     0.274 C 
HETATM    3  O   UNL     1     -40.779 -54.298  13.846  1.00  0.00    -0.266 OA
HETATM    4  C   UNL     1     -42.930 -54.102  14.784  1.00  0.00     0.128 C 
HETATM    5  C   UNL     1     -42.821 -55.318  15.498  1.00  0.00     0.106 C 
HETATM    6  N   UNL     1     -42.799 -56.314  16.093  1.00  0.00    -0.191 NA
HETATM    7  C   UNL     1     -43.998 -53.307  14.905  1.00  0.00     0.124 C 
HETATM    8  N   UNL     1     -44.124 -52.129  14.203  1.00  0.00    -0.303 N 
HETATM    9  C   UNL     1     -43.159 -51.700  13.293  1.00  0.00     0.332 C 
HETATM   10  O   UNL     1     -43.201 -50.605  12.727  1.00  0.00    -0.246 OA
ENDROOT
BRANCH   1  11
HETATM   11  C   UNL     1     -41.098 -52.201  12.086  1.00  0.00     0.240 C 
BRANCH  11  12
HETATM   12  C   UNL     1     -40.018 -51.265  12.627  1.00  0.00     0.244 C 
HETATM   13  N   UNL     1     -39.087 -50.856  11.686  1.00  0.00    -0.278 N 
HETATM   14  C   UNL     1     -37.988 -50.066  11.868  1.00  0.00     0.320 C 
HETATM   15  H   UNL     1     -39.185 -51.179  10.725  1.00  0.00     0.173 HD
HETATM   16  N   UNL     1     -37.738 -49.654  13.127  1.00  0.00    -0.352 N 
HETATM   17  O   UNL     1     -37.259 -49.754  10.933  1.00  0.00    -0.247 OA
HETATM   18  H   UNL     1     -36.952 -49.047  13.304  1.00  0.00     0.160 HD
HETATM   19  H   UNL     1     -38.405 -49.844  13.872  1.00  0.00     0.160 HD
HETATM   20  O   UNL     1     -39.947 -50.986  13.823  1.00  0.00    -0.271 OA
ENDBRANCH  11  12
ENDBRANCH   1  11
BRANCH   8  21
HETATM   21  C   UNL     1     -45.245 -51.271  14.514  1.00  0.00     0.094 A 
HETATM   22  C   UNL     1     -46.467 -51.746  15.264  1.00  0.00     0.028 A 
HETATM   23  C   UNL     1     -46.567 -51.433  13.803  1.00  0.00     0.028 A 
ENDBRANCH   8  21
TORSDOF 3
ENDMDL
MODEL 5
REMARK VINA RESULT:      -5.7      3.786      5.874
REMARK  3 active torsions:
REMARK  status: ('A' for Active; 'I' for Inactive)
REMARK       I    between atoms: N_1  and  C_2 
REMARK       I    between atoms: C_2  and  N_4 
REMARK       I    between atoms: N_4  and  C_5 
REMARK    1  A    between atoms: C_5  and  C_7 
REMARK    2  A    between atoms: C_7  and  N_8 
REMARK    3  A    between atoms: N_15  and  C_16 
ROOT
HETATM    1  N   UNL     1     -40.419 -46.487  11.801  1.00  0.00    -0.256 N 
HETATM    2  C   UNL     1     -39.887 -46.631  13.072  1.00  0.00     0.274 C 
HETATM    3  O   UNL     1     -39.545 -47.714  13.539  1.00  0.00    -0.266 OA
HETATM    4  C   UNL     1     -39.737 -45.390  13.866  1.00  0.00     0.128 C 
HETATM    5  C   UNL     1     -39.351 -45.465  15.225  1.00  0.00     0.106 C 
HETATM    6  N   UNL     1     -39.059 -45.463  16.348  1.00  0.00    -0.191 NA
HETATM    7  C   UNL     1     -39.967 -44.220  13.262  1.00  0.00     0.124 C 
HETATM    8  N   UNL     1     -40.360 -44.135  11.945  1.00  0.00    -0.303 N 
HETATM    9  C   UNL     1     -40.573 -45.265  11.158  1.00  0.00     0.332 C 
HETATM   10  O   UNL     1     -40.828 -45.215   9.953  1.00  0.00    -0.246 OA
ENDROOT
BRANCH   1  11
HETATM   11  C   UNL     1     -40.721 -47.699  11.047  1.00  0.00     0.240 C 
BRANCH  11  12
HETATM   12  C   UNL     1     -42.191 -47.788  10.639  1.00  0.00     0.244 C 
HETATM   13  N   UNL     1     -42.407 -47.818   9.270  1.00  0.00    -0.278 N 
HETATM   14  C   UNL     1     -43.597 -47.848   8.600  1.00  0.00     0.320 C 
HETATM   15  H   UNL     1     -41.603 -47.797   8.645  1.00  0.00     0.173 HD
HETATM   16  N   UNL     1     -44.717 -47.803   9.349  1.00  0.00    -0.352 N 
HETATM   17  O   UNL     1     -43.644 -47.905   7.376  1.00  0.00    -0.247 OA
HETATM   18  H   UNL     1     -45.618 -47.850   8.898  1.00  0.00     0.160 HD
HETATM   19  H   UNL     1     -44.659 -47.852  10.364  1.00  0.00     0.160 HD
HETATM   20  O   UNL     1     -43.096 -47.741  11.472  1.00  0.00    -0.271 OA
ENDBRANCH  11  12
ENDBRANCH   1  11
BRANCH   8  21
HETATM   21  C   UNL     1     -40.440 -42.821  11.346  1.00  0.00     0.094 A 
HETATM   22  C   UNL     1     -40.521 -41.548  12.153  1.00  0.00     0.028 A 
HETATM   23  C   UNL     1     -41.721 -42.024  11.394  1.00  0.00     0.028 A 
ENDBRANCH   8  21
TORSDOF 3
ENDMDL
MODEL 6
REMARK VINA RESULT:      -5.6      3.254      5.570
REMARK  3 active torsions:
REMARK  status: ('A' for Active; 'I' for Inactive)
REMARK       I    between atoms: N_1  and  C_2 
REMARK       I    between atoms: C_2  and  N_4 
REMARK       I    between atoms: N_4  and  C_5 
REMARK    1  A    between atoms: C_5  and  C_7 
REMARK    2  A    between atoms: C_7  and  N_8 
REMARK    3  A    between atoms: N_15  and  C_16 
ROOT
HETATM    1  N   UNL     1     -41.873 -51.707  14.831  1.00  0.00    -0.256 N 
HETATM    2  C   UNL     1     -41.694 -53.000  15.294  1.00  0.00     0.274 C 
HETATM    3  O   UNL     1     -40.594 -53.467  15.579  1.00  0.00    -0.266 OA
HETATM    4  C   UNL     1     -42.918 -53.820  15.442  1.00  0.00     0.128 C 
HETATM    5  C   UNL     1     -42.812 -55.194  15.757  1.00  0.00     0.106 C 
HETATM    6  N   UNL     1     -42.789 -56.331  15.992  1.00  0.00    -0.191 NA
HETATM    7  C   UNL     1     -44.103 -53.224  15.279  1.00  0.00     0.124 C 
HETATM    8  N   UNL     1     -44.220 -51.890  14.955  1.00  0.00    -0.303 N 
HETATM    9  C   UNL     1     -43.107 -51.076  14.747  1.00  0.00     0.332 C 
HETATM   10  O   UNL     1     -43.183 -49.861  14.555  1.00  0.00    -0.246 OA
ENDROOT
BRANCH   1  11
HETATM   11  C   UNL     1     -40.681 -50.919  14.530  1.00  0.00     0.240 C 
BRANCH  11  12
HETATM   12  C   UNL     1     -40.434 -50.775  13.029  1.00  0.00     0.244 C 
HETATM   13  N   UNL     1     -40.857 -49.570  12.490  1.00  0.00    -0.278 N 
HETATM   14  C   UNL     1     -40.818 -49.164  11.186  1.00  0.00     0.320 C 
HETATM   15  H   UNL     1     -41.273 -48.875  13.107  1.00  0.00     0.173 HD
HETATM   16  N   UNL     1     -40.349 -50.052  10.288  1.00  0.00    -0.352 N 
HETATM   17  O   UNL     1     -41.200 -48.049  10.850  1.00  0.00    -0.247 OA
HETATM   18  H   UNL     1     -40.277 -49.787   9.317  1.00  0.00     0.160 HD
HETATM   19  H   UNL     1     -39.950 -50.935  10.598  1.00  0.00     0.160 HD
HETATM   20  O   UNL     1     -39.983 -51.702  12.358  1.00  0.00    -0.271 OA
ENDBRANCH  11  12
ENDBRANCH   1  11
BRANCH   8  21
HETATM   21  C   UNL     1     -45.543 -51.308  14.946  1.00  0.00     0.094 A 
HETATM   22  C   UNL     1     -46.808 -52.132  14.975  1.00  0.00     0.028 A 
HETATM   23  C   UNL     1     -46.424 -51.405  13.723  1.00  0.00     0.028 A 
ENDBRANCH   8  21
TORSDOF 3
ENDMDL
MODEL 7
REMARK VINA RESULT:      -5.6      3.160      5.683
REMARK  3 active torsions:
REMARK  status: ('A' for Active; 'I' for Inactive)
REMARK       I    between atoms: N_1  and  C_2 
REMARK       I    between atoms: C_2  and  N_4 
REMARK       I    between atoms: N_4  and  C_5 
REMARK    1  A    between atoms: C_5  and  C_7 
REMARK    2  A    between atoms: C_7  and  N_8 
REMARK    3  A    between atoms: N_15  and  C_16 
ROOT
HETATM    1  N   UNL     1     -41.489 -53.219  12.954  1.00  0.00    -0.256 N 
HETATM    2  C   UNL     1     -42.831 -53.539  13.082  1.00  0.00     0.274 C 
HETATM    3  O   UNL     1     -43.681 -53.217  12.256  1.00  0.00    -0.266 OA
HETATM    4  C   UNL     1     -43.209 -54.312  14.287  1.00  0.00     0.128 C 
HETATM    5  C   UNL     1     -44.575 -54.543  14.575  1.00  0.00     0.106 C 
HETATM    6  N   UNL     1     -45.677 -54.747  14.877  1.00  0.00    -0.191 NA
HETATM    7  C   UNL     1     -42.234 -54.779  15.072  1.00  0.00     0.124 C 
HETATM    8  N   UNL     1     -40.902 -54.547  14.812  1.00  0.00    -0.303 N 
HETATM    9  C   UNL     1     -40.480 -53.781  13.726  1.00  0.00     0.332 C 
HETATM   10  O   UNL     1     -39.295 -53.640  13.415  1.00  0.00    -0.246 OA
ENDROOT
BRANCH   1  11
HETATM   11  C   UNL     1     -41.100 -52.333  11.861  1.00  0.00     0.240 C 
BRANCH  11  12
HETATM   12  C   UNL     1     -41.107 -50.860  12.267  1.00  0.00     0.244 C 
HETATM   13  N   UNL     1     -42.198 -50.141  11.802  1.00  0.00    -0.278 N 
HETATM   14  C   UNL     1     -42.463 -48.811  11.956  1.00  0.00     0.320 C 
HETATM   15  H   UNL     1     -42.908 -50.625  11.254  1.00  0.00     0.173 HD
HETATM   16  N   UNL     1     -41.537 -48.078  12.605  1.00  0.00    -0.352 N 
HETATM   17  O   UNL     1     -43.490 -48.306  11.516  1.00  0.00    -0.247 OA
HETATM   18  H   UNL     1     -41.704 -47.095  12.765  1.00  0.00     0.160 HD
HETATM   19  H   UNL     1     -40.739 -48.530  13.044  1.00  0.00     0.160 HD
HETATM   20  O   UNL     1     -40.166 -50.354  12.876  1.00  0.00    -0.271 OA
ENDBRANCH  11  12
ENDBRANCH   1  11
BRANCH   8  21
HETATM   21  C   UNL     1     -39.923 -55.218  15.637  1.00  0.00     0.094 A 
HETATM   22  C   UNL     1     -40.271 -55.916  16.930  1.00  0.00     0.028 A 
HETATM   23  C   UNL     1     -39.495 -54.635  16.963  1.00  0.00     0.028 A 
ENDBRANCH   8  21
TORSDOF 3
ENDMDL
MODEL 8
REMARK VINA RESULT:      -5.5      4.021      5.780
REMARK  3 active torsions:
REMARK  status: ('A' for Active; 'I' for Inactive)
REMARK       I    between atoms: N_1  and  C_2 
REMARK       I    between atoms: C_2  and  N_4 
REMARK       I    between atoms: N_4  and  C_5 
REMARK    1  A    between atoms: C_5  and  C_7 
REMARK    2  A    between atoms: C_7  and  N_8 
REMARK    3  A    between atoms: N_15  and  C_16 
ROOT
HETATM    1  N   UNL     1     -40.878 -52.348  12.813  1.00  0.00    -0.256 N 
HETATM    2  C   UNL     1     -40.459 -53.588  13.268  1.00  0.00     0.274 C 
HETATM    3  O   UNL     1     -40.962 -54.646  12.898  1.00  0.00    -0.266 OA
HETATM    4  C   UNL     1     -39.344 -53.587  14.242  1.00  0.00     0.128 C 
HETATM    5  C   UNL     1     -38.961 -54.792  14.875  1.00  0.00     0.106 C 
HETATM    6  N   UNL     1     -38.614 -55.744  15.443  1.00  0.00    -0.191 NA
HETATM    7  C   UNL     1     -38.722 -52.431  14.491  1.00  0.00     0.124 C 
HETATM    8  N   UNL     1     -39.097 -51.248  13.895  1.00  0.00    -0.303 N 
HETATM    9  C   UNL     1     -40.172 -51.169  13.011  1.00  0.00     0.332 C 
HETATM   10  O   UNL     1     -40.466 -50.146  12.390  1.00  0.00    -0.246 OA
ENDROOT
BRANCH   1  11
HETATM   11  C   UNL     1     -42.069 -52.299  11.969  1.00  0.00     0.240 C 
BRANCH  11  12
HETATM   12  C   UNL     1     -43.365 -52.379  12.775  1.00  0.00     0.244 C 
HETATM   13  N   UNL     1     -43.954 -53.634  12.792  1.00  0.00    -0.278 N 
HETATM   14  C   UNL     1     -45.128 -54.011  13.379  1.00  0.00     0.320 C 
HETATM   15  H   UNL     1     -43.496 -54.399  12.299  1.00  0.00     0.173 HD
HETATM   16  N   UNL     1     -45.839 -53.043  13.991  1.00  0.00    -0.352 N 
HETATM   17  O   UNL     1     -45.520 -55.172  13.343  1.00  0.00    -0.247 OA
HETATM   18  H   UNL     1     -46.700 -53.281  14.461  1.00  0.00     0.160 HD
HETATM   19  H   UNL     1     -45.453 -52.107  14.092  1.00  0.00     0.160 HD
HETATM   20  O   UNL     1     -43.873 -51.380  13.280  1.00  0.00    -0.271 OA
ENDBRANCH  11  12
ENDBRANCH   1  11
BRANCH   8  21
HETATM   21  C   UNL     1     -38.269 -50.084  14.118  1.00  0.00     0.094 A 
HETATM   22  C   UNL     1     -37.265 -49.987  15.241  1.00  0.00     0.028 A 
HETATM   23  C   UNL     1     -38.517 -49.168  15.292  1.00  0.00     0.028 A 
ENDBRANCH   8  21
TORSDOF 3
ENDMDL
MODEL 9
REMARK VINA RESULT:      -5.4      2.602      3.387
REMARK  3 active torsions:
REMARK  status: ('A' for Active; 'I' for Inactive)
REMARK       I    between atoms: N_1  and  C_2 
REMARK       I    between atoms: C_2  and  N_4 
REMARK       I    between atoms: N_4  and  C_5 
REMARK    1  A    between atoms: C_5  and  C_7 
REMARK    2  A    between atoms: C_7  and  N_8 
REMARK    3  A    between atoms: N_15  and  C_16 
ROOT
HETATM    1  N   UNL     1     -39.795 -50.241  12.124  1.00  0.00    -0.256 N 
HETATM    2  C   UNL     1     -39.026 -49.396  12.908  1.00  0.00     0.274 C 
HETATM    3  O   UNL     1     -38.847 -48.210  12.644  1.00  0.00    -0.266 OA
HETATM    4  C   UNL     1     -38.418 -49.996  14.117  1.00  0.00     0.128 C 
HETATM    5  C   UNL     1     -37.494 -49.249  14.886  1.00  0.00     0.106 C 
HETATM    6  N   UNL     1     -36.714 -48.695  15.544  1.00  0.00    -0.191 NA
HETATM    7  C   UNL     1     -38.770 -51.240  14.454  1.00  0.00     0.124 C 
HETATM    8  N   UNL     1     -39.655 -51.983  13.705  1.00  0.00    -0.303 N 
HETATM    9  C   UNL     1     -40.221 -51.499  12.527  1.00  0.00     0.332 C 
HETATM   10  O   UNL     1     -41.089 -52.104  11.893  1.00  0.00    -0.246 OA
ENDROOT
BRANCH   1  11
HETATM   11  C   UNL     1     -40.287 -49.727  10.849  1.00  0.00     0.240 C 
BRANCH  11  12
HETATM   12  C   UNL     1     -41.402 -48.696  11.021  1.00  0.00     0.244 C 
HETATM   13  N   UNL     1     -41.134 -47.461  10.452  1.00  0.00    -0.278 N 
HETATM   14  C   UNL     1     -41.904 -46.332  10.476  1.00  0.00     0.320 C 
HETATM   15  H   UNL     1     -40.253 -47.327   9.960  1.00  0.00     0.173 HD
HETATM   16  N   UNL     1     -43.056 -46.398  11.172  1.00  0.00    -0.352 N 
HETATM   17  O   UNL     1     -41.557 -45.307   9.900  1.00  0.00    -0.247 OA
HETATM   18  H   UNL     1     -43.669 -45.597  11.195  1.00  0.00     0.160 HD
HETATM   19  H   UNL     1     -43.371 -47.283  11.563  1.00  0.00     0.160 HD
HETATM   20  O   UNL     1     -42.404 -48.936  11.692  1.00  0.00    -0.271 OA
ENDBRANCH  11  12
ENDBRANCH   1  11
BRANCH   8  21
HETATM   21  C   UNL     1     -40.083 -53.260  14.232  1.00  0.00     0.094 A 
HETATM   22  C   UNL     1     -39.368 -53.972  15.354  1.00  0.00     0.028 A 
HETATM   23  C   UNL     1     -39.291 -54.516  13.961  1.00  0.00     0.028 A 
ENDBRANCH   8  21
TORSDOF 3
ENDMDL
