MODEL 1
REMARK VINA RESULT:      -6.0      0.000      0.000
REMARK  5 active torsions:
REMARK  status: ('A' for Active; 'I' for Inactive)
REMARK    1  A    between atoms: O_2  and  C_3 
REMARK    2  A    between atoms: C_3  and  C_4 
REMARK    3  A    between atoms: C_4  and  N_5 
REMARK    4  A    between atoms: C_7  and  N_8 
REMARK       I    between atoms: N_8  and  C_9 
REMARK       I    between atoms: C_9  and  N_11 
REMARK    5  A    between atoms: N_11  and  C_12 
ROOT
HETATM    1  N   UNL     1     -41.512 -49.515  10.947  1.00  0.00    -0.306 N 
HETATM    2  C   UNL     1     -42.271 -50.065  11.960  1.00  0.00     0.321 C 
HETATM    3  O   UNL     1     -43.005 -49.451  12.724  1.00  0.00    -0.247 OA
HETATM    4  N   UNL     1     -42.150 -51.439  12.029  1.00  0.00    -0.337 N 
HETATM    5  H   UNL     1     -41.021 -50.129  10.315  1.00  0.00     0.171 HD
HETATM    6  H   UNL     1     -41.361 -51.886  11.586  1.00  0.00     0.164 HD
ENDROOT
BRANCH   1   7
HETATM    7  C   UNL     1     -41.455 -48.157  10.688  1.00  0.00     0.070 A 
HETATM    8  C   UNL     1     -40.513 -47.263  11.135  1.00  0.00     0.141 A 
HETATM    9  N   UNL     1     -40.856 -46.047  10.634  1.00  0.00    -0.299 N 
HETATM   10  N   UNL     1     -41.973 -46.076   9.879  1.00  0.00    -0.308 N 
HETATM   11  C   UNL     1     -42.335 -47.365   9.915  1.00  0.00     0.138 A 
ATOM     12  HN  UNL     1     -42.430 -45.303   9.396  1.00  0.00     0.186 HD
BRANCH   9  13
HETATM   13  C   UNL     1     -40.130 -44.815  10.851  1.00  0.00     0.174 C 
BRANCH  13  14
HETATM   14  C   UNL     1     -40.968 -43.767  11.562  1.00  0.00     0.188 C 
BRANCH  14  15
HETATM   15  O   UNL     1     -41.729 -43.053  10.584  1.00  0.00    -0.394 OA
HETATM   16  C   UNL     1     -43.022 -42.722  11.073  1.00  0.00     0.201 C 
ENDBRANCH  14  15
ENDBRANCH  13  14
ENDBRANCH   9  13
ENDBRANCH   1   7
BRANCH   4  17
HETATM   17  C   UNL     1     -42.893 -52.176  13.007  1.00  0.00     0.095 A 
HETATM   18  C   UNL     1     -42.679 -53.652  13.203  1.00  0.00     0.015 A 
HETATM   19  C   UNL     1     -42.833 -54.246  14.575  1.00  0.00     0.007 C 
HETATM   20  C   UNL     1     -43.940 -53.154  12.542  1.00  0.00     0.015 A 
HETATM   21  C   UNL     1     -43.997 -55.244  14.640  1.00  0.00     0.000 C 
HETATM   22  C   UNL     1     -45.173 -54.916  13.704  1.00  0.00     0.000 C 
HETATM   23  C   UNL     1     -45.202 -53.442  13.300  1.00  0.00     0.007 C 
ENDBRANCH   4  17
TORSDOF 5
ENDMDL
MODEL 2
REMARK VINA RESULT:      -5.3      2.305      8.661
REMARK  5 active torsions:
REMARK  status: ('A' for Active; 'I' for Inactive)
REMARK    1  A    between atoms: O_2  and  C_3 
REMARK    2  A    between atoms: C_3  and  C_4 
REMARK    3  A    between atoms: C_4  and  N_5 
REMARK    4  A    between atoms: C_7  and  N_8 
REMARK       I    between atoms: N_8  and  C_9 
REMARK       I    between atoms: C_9  and  N_11 
REMARK    5  A    between atoms: N_11  and  C_12 
ROOT
HETATM    1  N   UNL     1     -41.262 -50.753  11.367  1.00  0.00    -0.306 N 
HETATM    2  C   UNL     1     -40.684 -49.605  11.866  1.00  0.00     0.321 C 
HETATM    3  O   UNL     1     -40.215 -49.464  12.990  1.00  0.00    -0.247 OA
HETATM    4  N   UNL     1     -40.650 -48.581  10.940  1.00  0.00    -0.337 N 
HETATM    5  H   UNL     1     -41.524 -50.786  10.394  1.00  0.00     0.171 HD
HETATM    6  H   UNL     1     -41.262 -48.622  10.140  1.00  0.00     0.164 HD
ENDROOT
BRANCH   1   7
HETATM    7  C   UNL     1     -41.424 -51.910  12.109  1.00  0.00     0.070 A 
HETATM    8  C   UNL     1     -42.591 -52.401  12.641  1.00  0.00     0.141 A 
HETATM    9  N   UNL     1     -42.274 -53.555  13.287  1.00  0.00    -0.299 N 
HETATM   10  N   UNL     1     -40.963 -53.863  13.217  1.00  0.00    -0.308 N 
HETATM   11  C   UNL     1     -40.448 -52.857  12.498  1.00  0.00     0.138 A 
ATOM     12  HN  UNL     1     -40.481 -54.669  13.615  1.00  0.00     0.186 HD
BRANCH   9  13
HETATM   13  C   UNL     1     -43.208 -54.408  13.987  1.00  0.00     0.174 C 
BRANCH  13  14
HETATM   14  C   UNL     1     -44.602 -54.353  13.387  1.00  0.00     0.188 C 
BRANCH  14  15
HETATM   15  O   UNL     1     -45.438 -55.275  14.093  1.00  0.00    -0.394 OA
HETATM   16  C   UNL     1     -46.514 -54.609  14.741  1.00  0.00     0.201 C 
ENDBRANCH  14  15
ENDBRANCH  13  14
ENDBRANCH   9  13
ENDBRANCH   1   7
BRANCH   4  17
HETATM   17  C   UNL     1     -40.056 -47.323  11.284  1.00  0.00     0.095 A 
HETATM   18  C   UNL     1     -40.826 -46.277  12.043  1.00  0.00     0.015 A 
HETATM   19  C   UNL     1     -40.100 -45.376  13.003  1.00  0.00     0.007 C 
HETATM   20  C   UNL     1     -40.526 -46.078  10.579  1.00  0.00     0.015 A 
HETATM   21  C   UNL     1     -40.150 -43.908  12.558  1.00  0.00     0.000 C 
HETATM   22  C   UNL     1     -40.180 -43.701  11.034  1.00  0.00     0.000 C 
HETATM   23  C   UNL     1     -39.636 -44.911  10.273  1.00  0.00     0.007 C 
ENDBRANCH   4  17
TORSDOF 5
ENDMDL
MODEL 3
REMARK VINA RESULT:      -5.2      1.840      2.166
REMARK  5 active torsions:
REMARK  status: ('A' for Active; 'I' for Inactive)
REMARK    1  A    between atoms: O_2  and  C_3 
REMARK    2  A    between atoms: C_3  and  C_4 
REMARK    3  A    between atoms: C_4  and  N_5 
REMARK    4  A    between atoms: C_7  and  N_8 
REMARK       I    between atoms: N_8  and  C_9 
REMARK       I    between atoms: C_9  and  N_11 
REMARK    5  A    between atoms: N_11  and  C_12 
ROOT
HETATM    1  N   UNL     1     -43.431 -48.611  11.805  1.00  0.00    -0.306 N 
HETATM    2  C   UNL     1     -43.277 -49.786  12.510  1.00  0.00     0.321 C 
HETATM    3  O   UNL     1     -42.236 -50.197  13.008  1.00  0.00    -0.247 OA
HETATM    4  N   UNL     1     -44.461 -50.487  12.639  1.00  0.00    -0.337 N 
HETATM    5  H   UNL     1     -44.357 -48.324  11.526  1.00  0.00     0.171 HD
HETATM    6  H   UNL     1     -45.225 -50.280  12.013  1.00  0.00     0.164 HD
ENDROOT
BRANCH   1   7
HETATM    7  C   UNL     1     -42.387 -47.744  11.531  1.00  0.00     0.070 A 
HETATM    8  C   UNL     1     -42.149 -46.520  12.104  1.00  0.00     0.141 A 
HETATM    9  N   UNL     1     -41.018 -46.029  11.529  1.00  0.00    -0.299 N 
HETATM   10  N   UNL     1     -40.487 -46.856  10.606  1.00  0.00    -0.308 N 
HETATM   11  C   UNL     1     -41.326 -47.900  10.609  1.00  0.00     0.138 A 
ATOM     12  HN  UNL     1     -39.649 -46.718  10.041  1.00  0.00     0.186 HD
BRANCH   9  13
HETATM   13  C   UNL     1     -40.399 -44.761  11.845  1.00  0.00     0.174 C 
BRANCH  13  14
HETATM   14  C   UNL     1     -39.278 -44.902  12.859  1.00  0.00     0.188 C 
BRANCH  14  15
HETATM   15  O   UNL     1     -39.241 -43.719  13.664  1.00  0.00    -0.394 OA
HETATM   16  C   UNL     1     -40.550 -43.299  14.028  1.00  0.00     0.201 C 
ENDBRANCH  14  15
ENDBRANCH  13  14
ENDBRANCH   9  13
ENDBRANCH   1   7
BRANCH   4  17
HETATM   17  C   UNL     1     -44.488 -51.720  13.368  1.00  0.00     0.095 A 
HETATM   18  C   UNL     1     -45.029 -52.981  12.752  1.00  0.00     0.015 A 
HETATM   19  C   UNL     1     -44.430 -54.306  13.132  1.00  0.00     0.007 C 
HETATM   20  C   UNL     1     -45.815 -52.268  13.824  1.00  0.00     0.015 A 
HETATM   21  C   UNL     1     -45.441 -55.205  13.855  1.00  0.00     0.000 C 
HETATM   22  C   UNL     1     -46.476 -54.450  14.706  1.00  0.00     0.000 C 
HETATM   23  C   UNL     1     -46.000 -53.048  15.090  1.00  0.00     0.007 C 
ENDBRANCH   4  17
TORSDOF 5
ENDMDL
MODEL 4
REMARK VINA RESULT:      -4.8      2.772      8.832
REMARK  5 active torsions:
REMARK  status: ('A' for Active; 'I' for Inactive)
REMARK    1  A    between atoms: O_2  and  C_3 
REMARK    2  A    between atoms: C_3  and  C_4 
REMARK    3  A    between atoms: C_4  and  N_5 
REMARK    4  A    between atoms: C_7  and  N_8 
REMARK       I    between atoms: N_8  and  C_9 
REMARK       I    between atoms: C_9  and  N_11 
REMARK    5  A    between atoms: N_11  and  C_12 
ROOT
HETATM    1  N   UNL     1     -40.730 -50.867  11.454  1.00  0.00    -0.306 N 
HETATM    2  C   UNL     1     -41.086 -49.588  11.831  1.00  0.00     0.321 C 
HETATM    3  O   UNL     1     -41.756 -49.286  12.812  1.00  0.00    -0.247 OA
HETATM    4  N   UNL     1     -40.577 -48.624  10.983  1.00  0.00    -0.337 N 
HETATM    5  H   UNL     1     -40.092 -50.990  10.683  1.00  0.00     0.171 HD
HETATM    6  H   UNL     1     -40.269 -48.893  10.061  1.00  0.00     0.164 HD
ENDROOT
BRANCH   1   7
HETATM    7  C   UNL     1     -41.132 -52.002  12.137  1.00  0.00     0.070 A 
HETATM    8  C   UNL     1     -40.466 -52.643  13.152  1.00  0.00     0.141 A 
HETATM    9  N   UNL     1     -41.231 -53.706  13.515  1.00  0.00    -0.299 N 
HETATM   10  N   UNL     1     -42.370 -53.813  12.801  1.00  0.00    -0.308 N 
HETATM   11  C   UNL     1     -42.305 -52.772  11.961  1.00  0.00     0.138 A 
ATOM     12  HN  UNL     1     -43.105 -54.516  12.882  1.00  0.00     0.186 HD
BRANCH   9  13
HETATM   13  C   UNL     1     -40.910 -54.654  14.559  1.00  0.00     0.174 C 
BRANCH  13  14
HETATM   14  C   UNL     1     -39.420 -54.713  14.847  1.00  0.00     0.188 C 
BRANCH  14  15
HETATM   15  O   UNL     1     -39.228 -55.323  16.127  1.00  0.00    -0.394 OA
HETATM   16  C   UNL     1     -37.870 -55.696  16.325  1.00  0.00     0.201 C 
ENDBRANCH  14  15
ENDBRANCH  13  14
ENDBRANCH   9  13
ENDBRANCH   1   7
BRANCH   4  17
HETATM   17  C   UNL     1     -40.827 -47.237  11.244  1.00  0.00     0.095 A 
HETATM   18  C   UNL     1     -39.876 -46.170  10.773  1.00  0.00     0.015 A 
HETATM   19  C   UNL     1     -40.415 -44.826  10.371  1.00  0.00     0.007 C 
HETATM   20  C   UNL     1     -39.958 -46.514  12.239  1.00  0.00     0.015 A 
HETATM   21  C   UNL     1     -39.911 -43.708  11.294  1.00  0.00     0.000 C 
HETATM   22  C   UNL     1     -39.669 -44.142  12.750  1.00  0.00     0.000 C 
HETATM   23  C   UNL     1     -40.450 -45.404  13.118  1.00  0.00     0.007 C 
ENDBRANCH   4  17
TORSDOF 5
ENDMDL
MODEL 5
REMARK VINA RESULT:      -4.7      2.591      9.062
REMARK  5 active torsions:
REMARK  status: ('A' for Active; 'I' for Inactive)
REMARK    1  A    between atoms: O_2  and  C_3 
REMARK    2  A    between atoms: C_3  and  C_4 
REMARK    3  A    between atoms: C_4  and  N_5 
REMARK    4  A    between atoms: C_7  and  N_8 
REMARK       I    between atoms: N_8  and  C_9 
REMARK       I    between atoms: C_9  and  N_11 
REMARK    5  A    between atoms: N_11  and  C_12 
ROOT
HETATM    1  N   UNL     1     -39.860 -47.762  12.633  1.00  0.00    -0.306 N 
HETATM    2  C   UNL     1     -40.647 -46.632  12.548  1.00  0.00     0.321 C 
HETATM    3  O   UNL     1     -41.841 -46.604  12.274  1.00  0.00    -0.247 OA
HETATM    4  N   UNL     1     -39.949 -45.476  12.839  1.00  0.00    -0.337 N 
HETATM    5  H   UNL     1     -38.912 -47.675  12.964  1.00  0.00     0.171 HD
HETATM    6  H   UNL     1     -38.941 -45.487  12.798  1.00  0.00     0.164 HD
ENDROOT
BRANCH   1   7
HETATM    7  C   UNL     1     -40.328 -49.038  12.370  1.00  0.00     0.070 A 
HETATM    8  C   UNL     1     -40.978 -49.881  13.237  1.00  0.00     0.141 A 
HETATM    9  N   UNL     1     -41.247 -51.022  12.549  1.00  0.00    -0.299 N 
HETATM   10  N   UNL     1     -40.815 -50.990  11.272  1.00  0.00    -0.308 N 
HETATM   11  C   UNL     1     -40.254 -49.778  11.168  1.00  0.00     0.138 A 
ATOM     12  HN  UNL     1     -40.896 -51.714  10.558  1.00  0.00     0.186 HD
BRANCH   9  13
HETATM   13  C   UNL     1     -41.932 -52.180  13.079  1.00  0.00     0.174 C 
BRANCH  13  14
HETATM   14  C   UNL     1     -41.172 -53.469  12.821  1.00  0.00     0.188 C 
BRANCH  14  15
HETATM   15  O   UNL     1     -39.771 -53.203  12.941  1.00  0.00    -0.394 OA
HETATM   16  C   UNL     1     -39.258 -53.676  14.180  1.00  0.00     0.201 C 
ENDBRANCH  14  15
ENDBRANCH  13  14
ENDBRANCH   9  13
ENDBRANCH   1   7
BRANCH   4  17
HETATM   17  C   UNL     1     -40.621 -44.210  12.827  1.00  0.00     0.095 A 
HETATM   18  C   UNL     1     -40.546 -43.297  11.634  1.00  0.00     0.015 A 
HETATM   19  C   UNL     1     -41.725 -42.430  11.291  1.00  0.00     0.007 C 
HETATM   20  C   UNL     1     -39.802 -42.949  12.898  1.00  0.00     0.015 A 
HETATM   21  C   UNL     1     -41.393 -40.937  11.418  1.00  0.00     0.000 C 
HETATM   22  C   UNL     1     -40.362 -40.602  12.510  1.00  0.00     0.000 C 
HETATM   23  C   UNL     1     -40.267 -41.695  13.575  1.00  0.00     0.007 C 
ENDBRANCH   4  17
TORSDOF 5
ENDMDL
MODEL 6
REMARK VINA RESULT:      -4.7      7.227     11.704
REMARK  5 active torsions:
REMARK  status: ('A' for Active; 'I' for Inactive)
REMARK    1  A    between atoms: O_2  and  C_3 
REMARK    2  A    between atoms: C_3  and  C_4 
REMARK    3  A    between atoms: C_4  and  N_5 
REMARK    4  A    between atoms: C_7  and  N_8 
REMARK       I    between atoms: N_8  and  C_9 
REMARK       I    between atoms: C_9  and  N_11 
REMARK    5  A    between atoms: N_11  and  C_12 
ROOT
HETATM    1  N   UNL     1     -40.742 -55.798  16.948  1.00  0.00    -0.306 N 
HETATM    2  C   UNL     1     -41.911 -55.868  16.220  1.00  0.00     0.321 C 
HETATM    3  O   UNL     1     -42.731 -56.779  16.259  1.00  0.00    -0.247 OA
HETATM    4  N   UNL     1     -42.107 -54.759  15.421  1.00  0.00    -0.337 N 
HETATM    5  H   UNL     1     -40.192 -54.953  16.910  1.00  0.00     0.171 HD
HETATM    6  H   UNL     1     -41.321 -54.167  15.201  1.00  0.00     0.164 HD
ENDROOT
BRANCH   1   7
HETATM    7  C   UNL     1     -40.318 -56.796  17.809  1.00  0.00     0.070 A 
HETATM    8  C   UNL     1     -39.401 -57.784  17.550  1.00  0.00     0.141 A 
HETATM    9  N   UNL     1     -39.301 -58.533  18.681  1.00  0.00    -0.299 N 
HETATM   10  N   UNL     1     -40.097 -58.101  19.679  1.00  0.00    -0.308 N 
HETATM   11  C   UNL     1     -40.717 -57.042  19.143  1.00  0.00     0.138 A 
ATOM     12  HN  UNL     1     -40.202 -58.488  20.617  1.00  0.00     0.186 HD
BRANCH   9  13
HETATM   13  C   UNL     1     -38.437 -59.680  18.853  1.00  0.00     0.174 C 
BRANCH  13  14
HETATM   14  C   UNL     1     -38.518 -60.258  20.255  1.00  0.00     0.188 C 
BRANCH  14  15
HETATM   15  O   UNL     1     -39.638 -61.146  20.317  1.00  0.00    -0.394 OA
HETATM   16  C   UNL     1     -39.820 -61.661  21.630  1.00  0.00     0.201 C 
ENDBRANCH  14  15
ENDBRANCH  13  14
ENDBRANCH   9  13
ENDBRANCH   1   7
BRANCH   4  17
HETATM   17  C   UNL     1     -43.289 -54.655  14.616  1.00  0.00     0.095 A 
HETATM   18  C   UNL     1     -43.637 -53.378  13.900  1.00  0.00     0.015 A 
HETATM   19  C   UNL     1     -44.344 -53.443  12.576  1.00  0.00     0.007 C 
HETATM   20  C   UNL     1     -44.432 -53.806  15.108  1.00  0.00     0.015 A 
HETATM   21  C   UNL     1     -45.744 -52.817  12.644  1.00  0.00     0.000 C 
HETATM   22  C   UNL     1     -46.444 -52.963  14.006  1.00  0.00     0.000 C 
HETATM   23  C   UNL     1     -45.873 -54.115  14.833  1.00  0.00     0.007 C 
ENDBRANCH   4  17
TORSDOF 5
ENDMDL
MODEL 7
REMARK VINA RESULT:      -4.7     15.789     16.676
REMARK  5 active torsions:
REMARK  status: ('A' for Active; 'I' for Inactive)
REMARK    1  A    between atoms: O_2  and  C_3 
REMARK    2  A    between atoms: C_3  and  C_4 
REMARK    3  A    between atoms: C_4  and  N_5 
REMARK    4  A    between atoms: C_7  and  N_8 
REMARK       I    between atoms: N_8  and  C_9 
REMARK       I    between atoms: C_9  and  N_11 
REMARK    5  A    between atoms: N_11  and  C_12 
ROOT
HETATM    1  N   UNL     1     -48.675 -53.577  -1.228  1.00  0.00    -0.306 N 
HETATM    2  C   UNL     1     -48.919 -54.089  -2.486  1.00  0.00     0.321 C 
HETATM    3  O   UNL     1     -49.318 -53.457  -3.456  1.00  0.00    -0.247 OA
HETATM    4  N   UNL     1     -48.635 -55.438  -2.574  1.00  0.00    -0.337 N 
HETATM    5  H   UNL     1     -48.253 -54.170  -0.531  1.00  0.00     0.171 HD
HETATM    6  H   UNL     1     -48.570 -55.982  -1.727  1.00  0.00     0.164 HD
ENDROOT
BRANCH   1   7
HETATM    7  C   UNL     1     -48.898 -52.253  -0.888  1.00  0.00     0.070 A 
HETATM    8  C   UNL     1     -50.026 -51.719  -0.318  1.00  0.00     0.141 A 
HETATM    9  N   UNL     1     -49.797 -50.387  -0.164  1.00  0.00    -0.299 N 
HETATM   10  N   UNL     1     -48.579 -50.002  -0.598  1.00  0.00    -0.308 N 
HETATM   11  C   UNL     1     -48.035 -51.143  -1.040  1.00  0.00     0.138 A 
ATOM     12  HN  UNL     1     -48.172 -49.067  -0.592  1.00  0.00     0.186 HD
BRANCH   9  13
HETATM   13  C   UNL     1     -50.723 -49.437   0.409  1.00  0.00     0.174 C 
BRANCH  13  14
HETATM   14  C   UNL     1     -50.309 -48.992   1.800  1.00  0.00     0.188 C 
BRANCH  14  15
HETATM   15  O   UNL     1     -49.123 -48.197   1.689  1.00  0.00    -0.394 OA
HETATM   16  C   UNL     1     -49.426 -46.868   1.283  1.00  0.00     0.201 C 
ENDBRANCH  14  15
ENDBRANCH  13  14
ENDBRANCH   9  13
ENDBRANCH   1   7
BRANCH   4  17
HETATM   17  C   UNL     1     -48.805 -56.126  -3.819  1.00  0.00     0.095 A 
HETATM   18  C   UNL     1     -49.908 -57.129  -4.014  1.00  0.00     0.015 A 
HETATM   19  C   UNL     1     -50.545 -57.275  -5.368  1.00  0.00     0.007 C 
HETATM   20  C   UNL     1     -48.479 -57.595  -3.891  1.00  0.00     0.015 A 
HETATM   21  C   UNL     1     -50.295 -58.664  -5.971  1.00  0.00     0.000 C 
HETATM   22  C   UNL     1     -48.953 -59.303  -5.574  1.00  0.00     0.000 C 
HETATM   23  C   UNL     1     -47.929 -58.264  -5.114  1.00  0.00     0.007 C 
ENDBRANCH   4  17
TORSDOF 5
ENDMDL
MODEL 8
REMARK VINA RESULT:      -4.6      2.266      3.105
REMARK  5 active torsions:
REMARK  status: ('A' for Active; 'I' for Inactive)
REMARK    1  A    between atoms: O_2  and  C_3 
REMARK    2  A    between atoms: C_3  and  C_4 
REMARK    3  A    between atoms: C_4  and  N_5 
REMARK    4  A    between atoms: C_7  and  N_8 
REMARK       I    between atoms: N_8  and  C_9 
REMARK       I    between atoms: C_9  and  N_11 
REMARK    5  A    between atoms: N_11  and  C_12 
ROOT
HETATM    1  N   UNL     1     -41.147 -48.950  13.178  1.00  0.00    -0.306 N 
HETATM    2  C   UNL     1     -41.392 -50.302  13.056  1.00  0.00     0.321 C 
HETATM    3  O   UNL     1     -41.750 -50.881  12.037  1.00  0.00    -0.247 OA
HETATM    4  N   UNL     1     -41.164 -50.992  14.231  1.00  0.00    -0.337 N 
HETATM    5  H   UNL     1     -40.760 -48.599  14.040  1.00  0.00     0.171 HD
HETATM    6  H   UNL     1     -41.134 -50.483  15.101  1.00  0.00     0.164 HD
ENDROOT
BRANCH   1   7
HETATM    7  C   UNL     1     -41.319 -48.048  12.142  1.00  0.00     0.070 A 
HETATM    8  C   UNL     1     -42.468 -47.377  11.806  1.00  0.00     0.141 A 
HETATM    9  N   UNL     1     -42.171 -46.603  10.728  1.00  0.00    -0.299 N 
HETATM   10  N   UNL     1     -40.889 -46.717  10.326  1.00  0.00    -0.308 N 
HETATM   11  C   UNL     1     -40.373 -47.601  11.191  1.00  0.00     0.138 A 
ATOM     12  HN  UNL     1     -40.424 -46.245   9.551  1.00  0.00     0.186 HD
BRANCH   9  13
HETATM   13  C   UNL     1     -43.093 -45.721  10.048  1.00  0.00     0.174 C 
BRANCH  13  14
HETATM   14  C   UNL     1     -43.343 -46.142   8.611  1.00  0.00     0.188 C 
BRANCH  14  15
HETATM   15  O   UNL     1     -43.668 -47.535   8.595  1.00  0.00    -0.394 OA
HETATM   16  C   UNL     1     -45.066 -47.743   8.751  1.00  0.00     0.201 C 
ENDBRANCH  14  15
ENDBRANCH  13  14
ENDBRANCH   9  13
ENDBRANCH   1   7
BRANCH   4  17
HETATM   17  C   UNL     1     -41.342 -52.413  14.274  1.00  0.00     0.095 A 
HETATM   18  C   UNL     1     -42.633 -53.024  14.746  1.00  0.00     0.015 A 
HETATM   19  C   UNL     1     -43.104 -54.316  14.140  1.00  0.00     0.007 C 
HETATM   20  C   UNL     1     -41.402 -53.099  15.614  1.00  0.00     0.015 A 
HETATM   21  C   UNL     1     -43.148 -55.451  15.173  1.00  0.00     0.000 C 
HETATM   22  C   UNL     1     -42.080 -55.352  16.276  1.00  0.00     0.000 C 
HETATM   23  C   UNL     1     -40.890 -54.487  15.858  1.00  0.00     0.007 C 
ENDBRANCH   4  17
TORSDOF 5
ENDMDL
MODEL 9
REMARK VINA RESULT:      -4.6      2.355      8.244
REMARK  5 active torsions:
REMARK  status: ('A' for Active; 'I' for Inactive)
REMARK    1  A    between atoms: O_2  and  C_3 
REMARK    2  A    between atoms: C_3  and  C_4 
REMARK    3  A    between atoms: C_4  and  N_5 
REMARK    4  A    between atoms: C_7  and  N_8 
REMARK       I    between atoms: N_8  and  C_9 
REMARK       I    between atoms: C_9  and  N_11 
REMARK    5  A    between atoms: N_11  and  C_12 
ROOT
HETATM    1  N   UNL     1     -41.713 -49.668  13.195  1.00  0.00    -0.306 N 
HETATM    2  C   UNL     1     -41.639 -48.579  12.351  1.00  0.00     0.321 C 
HETATM    3  O   UNL     1     -42.137 -48.498  11.234  1.00  0.00    -0.247 OA
HETATM    4  N   UNL     1     -40.945 -47.522  12.907  1.00  0.00    -0.337 N 
HETATM    5  H   UNL     1     -41.351 -49.586  14.133  1.00  0.00     0.171 HD
HETATM    6  H   UNL     1     -40.330 -47.695  13.688  1.00  0.00     0.164 HD
ENDROOT
BRANCH   1   7
HETATM    7  C   UNL     1     -42.344 -50.853  12.858  1.00  0.00     0.070 A 
HETATM    8  C   UNL     1     -43.615 -51.245  13.195  1.00  0.00     0.141 A 
HETATM    9  N   UNL     1     -43.805 -52.476  12.650  1.00  0.00    -0.299 N 
HETATM   10  N   UNL     1     -42.735 -52.928  11.966  1.00  0.00    -0.308 N 
HETATM   11  C   UNL     1     -41.845 -51.935  12.096  1.00  0.00     0.138 A 
ATOM     12  HN  UNL     1     -42.629 -53.812  11.469  1.00  0.00     0.186 HD
BRANCH   9  13
HETATM   13  C   UNL     1     -45.016 -53.261  12.752  1.00  0.00     0.174 C 
BRANCH  13  14
HETATM   14  C   UNL     1     -46.268 -52.405  12.681  1.00  0.00     0.188 C 
BRANCH  14  15
HETATM   15  O   UNL     1     -46.805 -52.495  11.358  1.00  0.00    -0.394 OA
HETATM   16  C   UNL     1     -47.557 -51.334  11.023  1.00  0.00     0.201 C 
ENDBRANCH  14  15
ENDBRANCH  13  14
ENDBRANCH   9  13
ENDBRANCH   1   7
BRANCH   4  17
HETATM   17  C   UNL     1     -40.796 -46.299  12.175  1.00  0.00     0.095 A 
HETATM   18  C   UNL     1     -40.466 -45.007  12.872  1.00  0.00     0.015 A 
HETATM   19  C   UNL     1     -39.623 -43.982  12.169  1.00  0.00     0.007 C 
HETATM   20  C   UNL     1     -41.851 -45.233  12.318  1.00  0.00     0.015 A 
HETATM   21  C   UNL     1     -40.399 -42.684  11.906  1.00  0.00     0.000 C 
HETATM   22  C   UNL     1     -41.905 -42.879  11.661  1.00  0.00     0.000 C 
HETATM   23  C   UNL     1     -42.242 -44.301  11.210  1.00  0.00     0.007 C 
ENDBRANCH   4  17
TORSDOF 5
ENDMDL
