MODEL 1
REMARK VINA RESULT:      -6.3      0.000      0.000
REMARK  6 active torsions:
REMARK  status: ('A' for Active; 'I' for Inactive)
REMARK    1  A    between atoms: S_2  and  C_5 
REMARK    2  A    between atoms: C_5  and  C_6 
REMARK    3  A    between atoms: C_6  and  N_7 
REMARK    4  A    between atoms: C_11  and  C_12 
REMARK    5  A    between atoms: C_12  and  N_13 
REMARK    6  A    between atoms: N_13  and  C_14 
ROOT
HETATM    1  N   UNL     1     -41.914 -53.455  12.600  1.00  0.00     0.093 N 
HETATM    2  C   UNL     1     -40.876 -54.266  13.302  1.00  0.00     0.298 C 
HETATM    3  C   UNL     1     -39.710 -53.487  13.973  1.00  0.00     0.198 C 
HETATM    4  O   UNL     1     -39.192 -52.409  13.168  1.00  0.00    -0.381 OA
HETATM    5  C   UNL     1     -40.289 -51.579  12.752  1.00  0.00     0.163 C 
HETATM    6  C   UNL     1     -41.197 -52.409  11.830  1.00  0.00     0.305 C 
ENDROOT
BRANCH   5   7
HETATM    7  C   UNL     1     -39.849 -50.263  12.124  1.00  0.00     0.127 C 
BRANCH   7   8
HETATM    8  N   UNL     1     -40.422 -50.028  10.800  1.00  0.00    -0.275 NA
HETATM    9  H   UNL     1     -39.733 -50.207  10.070  1.00  0.00     0.129 HD
BRANCH   8  10
HETATM   10  C   UNL     1     -40.898 -48.701  10.692  1.00  0.00     0.094 A 
HETATM   11  C   UNL     1     -40.361 -47.731  11.523  1.00  0.00     0.045 A 
HETATM   12  C   UNL     1     -40.787 -46.413  11.388  1.00  0.00     0.022 A 
HETATM   13  C   UNL     1     -41.731 -46.122  10.423  1.00  0.00     0.107 A 
HETATM   14  N   UNL     1     -42.240 -47.065   9.615  1.00  0.00    -0.311 N 
HETATM   15  N   UNL     1     -41.809 -48.354   9.751  1.00  0.00    -0.290 N 
ATOM     16  HN  UNL     1     -42.938 -46.824   8.911  1.00  0.00     0.186 HD
ATOM     17  HN  UNL     1     -42.182 -49.072   9.131  1.00  0.00     0.188 HD
ENDBRANCH   8  10
ENDBRANCH   7   8
ENDBRANCH   5   7
BRANCH   1  18
HETATM   18  C   UNL     1     -42.899 -52.896  13.557  1.00  0.00     0.287 C 
BRANCH  18  19
HETATM   19  C   UNL     1     -43.636 -53.929  14.425  1.00  0.00     0.170 C 
BRANCH  19  20
HETATM   20  S   UNL     1     -45.245 -54.248  13.709  1.00  0.00     0.142 S 
HETATM   21  C   UNL     1     -46.384 -53.296  14.691  1.00  0.00     0.161 C 
HETATM   22  O   UNL     1     -45.551 -55.645  13.931  1.00  0.00    -0.228 OA
HETATM   23  O   UNL     1     -45.257 -53.684  12.374  1.00  0.00    -0.228 OA
ENDBRANCH  19  20
ENDBRANCH  18  19
ENDBRANCH   1  18
TORSDOF 6
ENDMDL
MODEL 2
REMARK VINA RESULT:      -5.8      3.619      6.735
REMARK  6 active torsions:
REMARK  status: ('A' for Active; 'I' for Inactive)
REMARK    1  A    between atoms: S_2  and  C_5 
REMARK    2  A    between atoms: C_5  and  C_6 
REMARK    3  A    between atoms: C_6  and  N_7 
REMARK    4  A    between atoms: C_11  and  C_12 
REMARK    5  A    between atoms: C_12  and  N_13 
REMARK    6  A    between atoms: N_13  and  C_14 
ROOT
HETATM    1  N   UNL     1     -40.521 -49.001  12.692  1.00  0.00     0.093 N 
HETATM    2  C   UNL     1     -39.034 -49.138  12.728  1.00  0.00     0.298 C 
HETATM    3  C   UNL     1     -38.435 -50.454  12.156  1.00  0.00     0.198 C 
HETATM    4  O   UNL     1     -39.161 -51.638  12.542  1.00  0.00    -0.381 OA
HETATM    5  C   UNL     1     -40.551 -51.445  12.236  1.00  0.00     0.163 C 
HETATM    6  C   UNL     1     -41.084 -50.305  13.119  1.00  0.00     0.305 C 
ENDROOT
BRANCH   5   7
HETATM    7  C   UNL     1     -41.379 -52.719  12.346  1.00  0.00     0.127 C 
BRANCH   7   8
HETATM    8  N   UNL     1     -42.666 -52.640  11.658  1.00  0.00    -0.275 NA
HETATM    9  H   UNL     1     -42.906 -51.672  11.448  1.00  0.00     0.129 HD
BRANCH   8  10
HETATM   10  C   UNL     1     -43.687 -53.225  12.443  1.00  0.00     0.094 A 
HETATM   11  C   UNL     1     -43.333 -54.138  13.424  1.00  0.00     0.045 A 
HETATM   12  C   UNL     1     -44.325 -54.680  14.234  1.00  0.00     0.022 A 
HETATM   13  C   UNL     1     -45.632 -54.280  14.030  1.00  0.00     0.107 A 
HETATM   14  N   UNL     1     -45.966 -53.389  13.085  1.00  0.00    -0.311 N 
HETATM   15  N   UNL     1     -44.983 -52.858  12.300  1.00  0.00    -0.290 N 
ATOM     16  HN  UNL     1     -46.940 -53.112  12.954  1.00  0.00     0.186 HD
ATOM     17  HN  UNL     1     -45.230 -52.169  11.589  1.00  0.00     0.188 HD
ENDBRANCH   8  10
ENDBRANCH   7   8
ENDBRANCH   5   7
BRANCH   1  18
HETATM   18  C   UNL     1     -40.990 -48.577  11.352  1.00  0.00     0.287 C 
BRANCH  18  19
HETATM   19  C   UNL     1     -40.711 -47.111  10.987  1.00  0.00     0.170 C 
BRANCH  19  20
HETATM   20  S   UNL     1     -42.268 -46.232  10.884  1.00  0.00     0.142 S 
HETATM   21  C   UNL     1     -43.452 -47.452  10.356  1.00  0.00     0.161 C 
HETATM   22  O   UNL     1     -42.149 -45.260   9.818  1.00  0.00    -0.228 OA
HETATM   23  O   UNL     1     -42.639 -45.828  12.225  1.00  0.00    -0.228 OA
ENDBRANCH  19  20
ENDBRANCH  18  19
ENDBRANCH   1  18
TORSDOF 6
ENDMDL
MODEL 3
REMARK VINA RESULT:      -5.8      3.857      7.134
REMARK  6 active torsions:
REMARK  status: ('A' for Active; 'I' for Inactive)
REMARK    1  A    between atoms: S_2  and  C_5 
REMARK    2  A    between atoms: C_5  and  C_6 
REMARK    3  A    between atoms: C_6  and  N_7 
REMARK    4  A    between atoms: C_11  and  C_12 
REMARK    5  A    between atoms: C_12  and  N_13 
REMARK    6  A    between atoms: N_13  and  C_14 
ROOT
HETATM    1  N   UNL     1     -39.326 -48.780  13.049  1.00  0.00     0.093 N 
HETATM    2  C   UNL     1     -37.908 -49.246  13.007  1.00  0.00     0.298 C 
HETATM    3  C   UNL     1     -37.620 -50.553  12.215  1.00  0.00     0.198 C 
HETATM    4  O   UNL     1     -38.592 -51.594  12.439  1.00  0.00    -0.381 OA
HETATM    5  C   UNL     1     -39.904 -51.052  12.219  1.00  0.00     0.163 C 
HETATM    6  C   UNL     1     -40.166 -49.979  13.288  1.00  0.00     0.305 C 
ENDROOT
BRANCH   5   7
HETATM    7  C   UNL     1     -40.996 -52.112  12.161  1.00  0.00     0.127 C 
BRANCH   7   8
HETATM    8  N   UNL     1     -40.482 -53.473  12.026  1.00  0.00    -0.275 NA
HETATM    9  H   UNL     1     -41.141 -54.061  11.518  1.00  0.00     0.129 HD
BRANCH   8  10
HETATM   10  C   UNL     1     -40.222 -54.036  13.298  1.00  0.00     0.094 A 
HETATM   11  C   UNL     1     -41.263 -54.134  14.207  1.00  0.00     0.045 A 
HETATM   12  C   UNL     1     -41.029 -54.732  15.441  1.00  0.00     0.022 A 
HETATM   13  C   UNL     1     -39.762 -55.211  15.711  1.00  0.00     0.107 A 
HETATM   14  N   UNL     1     -38.761 -55.120  14.822  1.00  0.00    -0.311 N 
HETATM   15  N   UNL     1     -39.004 -54.538  13.611  1.00  0.00    -0.290 N 
ATOM     16  HN  UNL     1     -37.833 -55.480  15.047  1.00  0.00     0.186 HD
ATOM     17  HN  UNL     1     -38.250 -54.479  12.926  1.00  0.00     0.188 HD
ENDBRANCH   8  10
ENDBRANCH   7   8
ENDBRANCH   5   7
BRANCH   1  18
HETATM   18  C   UNL     1     -39.691 -48.054  11.809  1.00  0.00     0.287 C 
BRANCH  18  19
HETATM   19  C   UNL     1     -40.171 -46.607  12.007  1.00  0.00     0.170 C 
BRANCH  19  20
HETATM   20  S   UNL     1     -41.665 -46.356  11.053  1.00  0.00     0.142 S 
HETATM   21  C   UNL     1     -41.997 -47.931  10.292  1.00  0.00     0.161 C 
HETATM   22  O   UNL     1     -41.351 -45.425   9.990  1.00  0.00    -0.228 OA
HETATM   23  O   UNL     1     -42.746 -46.092  11.981  1.00  0.00    -0.228 OA
ENDBRANCH  19  20
ENDBRANCH  18  19
ENDBRANCH   1  18
TORSDOF 6
ENDMDL
MODEL 4
REMARK VINA RESULT:      -5.7      4.154      6.584
REMARK  6 active torsions:
REMARK  status: ('A' for Active; 'I' for Inactive)
REMARK    1  A    between atoms: S_2  and  C_5 
REMARK    2  A    between atoms: C_5  and  C_6 
REMARK    3  A    between atoms: C_6  and  N_7 
REMARK    4  A    between atoms: C_11  and  C_12 
REMARK    5  A    between atoms: C_12  and  N_13 
REMARK    6  A    between atoms: N_13  and  C_14 
ROOT
HETATM    1  N   UNL     1     -41.516 -46.227  13.947  1.00  0.00     0.093 N 
HETATM    2  C   UNL     1     -40.628 -45.169  14.517  1.00  0.00     0.298 C 
HETATM    3  C   UNL     1     -39.163 -45.126  13.996  1.00  0.00     0.198 C 
HETATM    4  O   UNL     1     -38.552 -46.426  13.871  1.00  0.00    -0.381 OA
HETATM    5  C   UNL     1     -39.423 -47.270  13.101  1.00  0.00     0.163 C 
HETATM    6  C   UNL     1     -40.720 -47.477  13.900  1.00  0.00     0.305 C 
ENDROOT
BRANCH   5   7
HETATM    7  C   UNL     1     -38.774 -48.580  12.672  1.00  0.00     0.127 C 
BRANCH   7   8
HETATM    8  N   UNL     1     -39.393 -49.178  11.491  1.00  0.00    -0.275 NA
HETATM    9  H   UNL     1     -40.152 -48.593  11.144  1.00  0.00     0.129 HD
BRANCH   8  10
HETATM   10  C   UNL     1     -39.885 -50.471  11.788  1.00  0.00     0.094 A 
HETATM   11  C   UNL     1     -39.512 -51.067  12.981  1.00  0.00     0.045 A 
HETATM   12  C   UNL     1     -40.031 -52.317  13.305  1.00  0.00     0.022 A 
HETATM   13  C   UNL     1     -40.907 -52.914  12.419  1.00  0.00     0.107 A 
HETATM   14  N   UNL     1     -41.270 -52.327  11.269  1.00  0.00    -0.311 N 
HETATM   15  N   UNL     1     -40.760 -51.097  10.965  1.00  0.00    -0.290 N 
ATOM     16  HN  UNL     1     -41.918 -52.791  10.631  1.00  0.00     0.186 HD
ATOM     17  HN  UNL     1     -41.044 -50.639  10.099  1.00  0.00     0.188 HD
ENDBRANCH   8  10
ENDBRANCH   7   8
ENDBRANCH   5   7
BRANCH   1  18
HETATM   18  C   UNL     1     -42.047 -45.827  12.622  1.00  0.00     0.287 C 
BRANCH  18  19
HETATM   19  C   UNL     1     -42.987 -46.844  11.954  1.00  0.00     0.170 C 
BRANCH  19  20
HETATM   20  S   UNL     1     -42.554 -46.983  10.222  1.00  0.00     0.142 S 
HETATM   21  C   UNL     1     -44.102 -47.231   9.378  1.00  0.00     0.161 C 
HETATM   22  O   UNL     1     -41.780 -48.196  10.063  1.00  0.00    -0.228 OA
HETATM   23  O   UNL     1     -42.032 -45.702   9.790  1.00  0.00    -0.228 OA
ENDBRANCH  19  20
ENDBRANCH  18  19
ENDBRANCH   1  18
TORSDOF 6
ENDMDL
MODEL 5
REMARK VINA RESULT:      -5.7      3.975      6.607
REMARK  6 active torsions:
REMARK  status: ('A' for Active; 'I' for Inactive)
REMARK    1  A    between atoms: S_2  and  C_5 
REMARK    2  A    between atoms: C_5  and  C_6 
REMARK    3  A    between atoms: C_6  and  N_7 
REMARK    4  A    between atoms: C_11  and  C_12 
REMARK    5  A    between atoms: C_12  and  N_13 
REMARK    6  A    between atoms: N_13  and  C_14 
ROOT
HETATM    1  N   UNL     1     -41.555 -48.178  11.918  1.00  0.00     0.093 N 
HETATM    2  C   UNL     1     -40.063 -48.187  11.851  1.00  0.00     0.298 C 
HETATM    3  C   UNL     1     -39.383 -49.541  11.504  1.00  0.00     0.198 C 
HETATM    4  O   UNL     1     -39.964 -50.674  12.181  1.00  0.00    -0.381 OA
HETATM    5  C   UNL     1     -41.384 -50.659  11.964  1.00  0.00     0.163 C 
HETATM    6  C   UNL     1     -41.961 -49.406  12.644  1.00  0.00     0.305 C 
ENDROOT
BRANCH   5   7
HETATM    7  C   UNL     1     -42.078 -51.944  12.399  1.00  0.00     0.127 C 
BRANCH   7   8
HETATM    8  N   UNL     1     -42.843 -51.804  13.637  1.00  0.00    -0.275 NA
HETATM    9  H   UNL     1     -42.566 -52.512  14.316  1.00  0.00     0.129 HD
BRANCH   8  10
HETATM   10  C   UNL     1     -44.230 -51.906  13.379  1.00  0.00     0.094 A 
HETATM   11  C   UNL     1     -45.116 -51.310  14.261  1.00  0.00     0.045 A 
HETATM   12  C   UNL     1     -46.480 -51.361  13.989  1.00  0.00     0.022 A 
HETATM   13  C   UNL     1     -46.897 -52.005  12.840  1.00  0.00     0.107 A 
HETATM   14  N   UNL     1     -46.032 -52.573  11.986  1.00  0.00    -0.311 N 
HETATM   15  N   UNL     1     -44.695 -52.509  12.260  1.00  0.00    -0.290 N 
ATOM     16  HN  UNL     1     -46.367 -53.044  11.145  1.00  0.00     0.186 HD
ATOM     17  HN  UNL     1     -44.032 -52.927  11.606  1.00  0.00     0.188 HD
ENDBRANCH   8  10
ENDBRANCH   7   8
ENDBRANCH   5   7
BRANCH   1  18
HETATM   18  C   UNL     1     -42.154 -48.080  10.566  1.00  0.00     0.287 C 
BRANCH  18  19
HETATM   19  C   UNL     1     -43.595 -47.547  10.518  1.00  0.00     0.170 C 
BRANCH  19  20
HETATM   20  S   UNL     1     -43.839 -46.671   8.976  1.00  0.00     0.142 S 
HETATM   21  C   UNL     1     -43.491 -47.869   7.706  1.00  0.00     0.161 C 
HETATM   22  O   UNL     1     -42.819 -45.648   8.890  1.00  0.00    -0.228 OA
HETATM   23  O   UNL     1     -45.245 -46.335   8.872  1.00  0.00    -0.228 OA
ENDBRANCH  19  20
ENDBRANCH  18  19
ENDBRANCH   1  18
TORSDOF 6
ENDMDL
MODEL 6
REMARK VINA RESULT:      -5.7      3.790      6.356
REMARK  6 active torsions:
REMARK  status: ('A' for Active; 'I' for Inactive)
REMARK    1  A    between atoms: S_2  and  C_5 
REMARK    2  A    between atoms: C_5  and  C_6 
REMARK    3  A    between atoms: C_6  and  N_7 
REMARK    4  A    between atoms: C_11  and  C_12 
REMARK    5  A    between atoms: C_12  and  N_13 
REMARK    6  A    between atoms: N_13  and  C_14 
ROOT
HETATM    1  N   UNL     1     -39.108 -48.969  13.426  1.00  0.00     0.093 N 
HETATM    2  C   UNL     1     -37.846 -49.026  12.629  1.00  0.00     0.298 C 
HETATM    3  C   UNL     1     -37.534 -50.364  11.902  1.00  0.00     0.198 C 
HETATM    4  O   UNL     1     -37.797 -51.535  12.701  1.00  0.00    -0.381 OA
HETATM    5  C   UNL     1     -39.135 -51.447  13.218  1.00  0.00     0.163 C 
HETATM    6  C   UNL     1     -39.202 -50.246  14.175  1.00  0.00     0.305 C 
ENDROOT
BRANCH   5   7
HETATM    7  C   UNL     1     -39.626 -52.741  13.853  1.00  0.00     0.127 C 
BRANCH   7   8
HETATM    8  N   UNL     1     -40.132 -53.712  12.884  1.00  0.00    -0.275 NA
HETATM    9  H   UNL     1     -39.783 -53.505  11.949  1.00  0.00     0.129 HD
BRANCH   8  10
HETATM   10  C   UNL     1     -41.547 -53.716  12.876  1.00  0.00     0.094 A 
HETATM   11  C   UNL     1     -42.217 -54.354  13.907  1.00  0.00     0.045 A 
HETATM   12  C   UNL     1     -43.608 -54.319  13.933  1.00  0.00     0.022 A 
HETATM   13  C   UNL     1     -44.268 -53.642  12.927  1.00  0.00     0.107 A 
HETATM   14  N   UNL     1     -43.612 -53.018  11.936  1.00  0.00    -0.311 N 
HETATM   15  N   UNL     1     -42.247 -53.053  11.925  1.00  0.00    -0.290 N 
ATOM     16  HN  UNL     1     -44.124 -52.526  11.204  1.00  0.00     0.186 HD
ATOM     17  HN  UNL     1     -41.743 -52.568  11.182  1.00  0.00     0.188 HD
ENDBRANCH   8  10
ENDBRANCH   7   8
ENDBRANCH   5   7
BRANCH   1  18
HETATM   18  C   UNL     1     -40.283 -48.718  12.558  1.00  0.00     0.287 C 
BRANCH  18  19
HETATM   19  C   UNL     1     -40.095 -47.629  11.490  1.00  0.00     0.170 C 
BRANCH  19  20
HETATM   20  S   UNL     1     -41.704 -47.093  10.918  1.00  0.00     0.142 S 
HETATM   21  C   UNL     1     -42.715 -47.027  12.382  1.00  0.00     0.161 C 
HETATM   22  O   UNL     1     -42.239 -48.143  10.076  1.00  0.00    -0.228 OA
HETATM   23  O   UNL     1     -41.573 -45.736  10.427  1.00  0.00    -0.228 OA
ENDBRANCH  19  20
ENDBRANCH  18  19
ENDBRANCH   1  18
TORSDOF 6
ENDMDL
MODEL 7
REMARK VINA RESULT:      -5.6      4.091      7.020
REMARK  6 active torsions:
REMARK  status: ('A' for Active; 'I' for Inactive)
REMARK    1  A    between atoms: S_2  and  C_5 
REMARK    2  A    between atoms: C_5  and  C_6 
REMARK    3  A    between atoms: C_6  and  N_7 
REMARK    4  A    between atoms: C_11  and  C_12 
REMARK    5  A    between atoms: C_12  and  N_13 
REMARK    6  A    between atoms: N_13  and  C_14 
ROOT
HETATM    1  N   UNL     1     -39.944 -47.439  13.899  1.00  0.00     0.093 N 
HETATM    2  C   UNL     1     -38.680 -47.876  14.565  1.00  0.00     0.298 C 
HETATM    3  C   UNL     1     -37.826 -48.942  13.822  1.00  0.00     0.198 C 
HETATM    4  O   UNL     1     -38.604 -50.009  13.244  1.00  0.00    -0.381 OA
HETATM    5  C   UNL     1     -39.649 -49.434  12.443  1.00  0.00     0.163 C 
HETATM    6  C   UNL     1     -40.598 -48.662  13.374  1.00  0.00     0.305 C 
ENDROOT
BRANCH   5   7
HETATM    7  C   UNL     1     -40.371 -50.450  11.567  1.00  0.00     0.127 C 
BRANCH   7   8
HETATM    8  N   UNL     1     -40.014 -51.835  11.865  1.00  0.00    -0.275 NA
HETATM    9  H   UNL     1     -39.563 -52.273  11.062  1.00  0.00     0.129 HD
BRANCH   8  10
HETATM   10  C   UNL     1     -41.160 -52.578  12.232  1.00  0.00     0.094 A 
HETATM   11  C   UNL     1     -41.063 -53.478  13.280  1.00  0.00     0.045 A 
HETATM   12  C   UNL     1     -42.199 -54.175  13.681  1.00  0.00     0.022 A 
HETATM   13  C   UNL     1     -43.386 -53.937  13.016  1.00  0.00     0.107 A 
HETATM   14  N   UNL     1     -43.475 -53.056  12.007  1.00  0.00    -0.311 N 
HETATM   15  N   UNL     1     -42.355 -52.373  11.627  1.00  0.00    -0.290 N 
ATOM     16  HN  UNL     1     -44.364 -52.900  11.532  1.00  0.00     0.186 HD
ATOM     17  HN  UNL     1     -42.420 -51.692  10.870  1.00  0.00     0.188 HD
ENDBRANCH   8  10
ENDBRANCH   7   8
ENDBRANCH   5   7
BRANCH   1  18
HETATM   18  C   UNL     1     -39.678 -46.428  12.848  1.00  0.00     0.287 C 
BRANCH  18  19
HETATM   19  C   UNL     1     -40.836 -45.461  12.554  1.00  0.00     0.170 C 
BRANCH  19  20
HETATM   20  S   UNL     1     -41.012 -45.290  10.780  1.00  0.00     0.142 S 
HETATM   21  C   UNL     1     -42.025 -46.667  10.282  1.00  0.00     0.161 C 
HETATM   22  O   UNL     1     -39.704 -45.485  10.192  1.00  0.00    -0.228 OA
HETATM   23  O   UNL     1     -41.773 -44.084  10.523  1.00  0.00    -0.228 OA
ENDBRANCH  19  20
ENDBRANCH  18  19
ENDBRANCH   1  18
TORSDOF 6
ENDMDL
MODEL 8
REMARK VINA RESULT:      -5.4      2.942      4.582
REMARK  6 active torsions:
REMARK  status: ('A' for Active; 'I' for Inactive)
REMARK    1  A    between atoms: S_2  and  C_5 
REMARK    2  A    between atoms: C_5  and  C_6 
REMARK    3  A    between atoms: C_6  and  N_7 
REMARK    4  A    between atoms: C_11  and  C_12 
REMARK    5  A    between atoms: C_12  and  N_13 
REMARK    6  A    between atoms: N_13  and  C_14 
ROOT
HETATM    1  N   UNL     1     -43.129 -53.839  15.093  1.00  0.00     0.093 N 
HETATM    2  C   UNL     1     -44.460 -54.227  14.537  1.00  0.00     0.298 C 
HETATM    3  C   UNL     1     -44.613 -54.194  12.990  1.00  0.00     0.198 C 
HETATM    4  O   UNL     1     -44.014 -53.037  12.372  1.00  0.00    -0.381 OA
HETATM    5  C   UNL     1     -42.656 -52.924  12.829  1.00  0.00     0.163 C 
HETATM    6  C   UNL     1     -42.681 -52.642  14.341  1.00  0.00     0.305 C 
ENDROOT
BRANCH   5   7
HETATM    7  C   UNL     1     -41.836 -51.904  12.049  1.00  0.00     0.127 C 
BRANCH   7   8
HETATM    8  N   UNL     1     -40.425 -52.263  11.925  1.00  0.00    -0.275 NA
HETATM    9  H   UNL     1     -40.178 -52.996  12.588  1.00  0.00     0.129 HD
BRANCH   8  10
HETATM   10  C   UNL     1     -39.603 -51.131  12.136  1.00  0.00     0.094 A 
HETATM   11  C   UNL     1     -38.961 -50.993  13.356  1.00  0.00     0.045 A 
HETATM   12  C   UNL     1     -38.111 -49.910  13.555  1.00  0.00     0.022 A 
HETATM   13  C   UNL     1     -37.937 -49.012  12.520  1.00  0.00     0.107 A 
HETATM   14  N   UNL     1     -38.556 -49.156  11.338  1.00  0.00    -0.311 N 
HETATM   15  N   UNL     1     -39.382 -50.227  11.152  1.00  0.00    -0.290 N 
ATOM     16  HN  UNL     1     -38.412 -48.476  10.591  1.00  0.00     0.186 HD
ATOM     17  HN  UNL     1     -39.844 -50.350  10.251  1.00  0.00     0.188 HD
ENDBRANCH   8  10
ENDBRANCH   7   8
ENDBRANCH   5   7
BRANCH   1  18
HETATM   18  C   UNL     1     -42.166 -54.964  15.019  1.00  0.00     0.287 C 
BRANCH  18  19
HETATM   19  C   UNL     1     -41.099 -54.994  16.125  1.00  0.00     0.170 C 
BRANCH  19  20
HETATM   20  S   UNL     1     -39.483 -54.809  15.377  1.00  0.00     0.142 S 
HETATM   21  C   UNL     1     -38.745 -53.421  16.212  1.00  0.00     0.161 C 
HETATM   22  O   UNL     1     -39.684 -54.421  13.997  1.00  0.00    -0.228 OA
HETATM   23  O   UNL     1     -38.699 -55.979  15.718  1.00  0.00    -0.228 OA
ENDBRANCH  19  20
ENDBRANCH  18  19
ENDBRANCH   1  18
TORSDOF 6
ENDMDL
MODEL 9
REMARK VINA RESULT:      -5.4      2.769      4.305
REMARK  6 active torsions:
REMARK  status: ('A' for Active; 'I' for Inactive)
REMARK    1  A    between atoms: S_2  and  C_5 
REMARK    2  A    between atoms: C_5  and  C_6 
REMARK    3  A    between atoms: C_6  and  N_7 
REMARK    4  A    between atoms: C_11  and  C_12 
REMARK    5  A    between atoms: C_12  and  N_13 
REMARK    6  A    between atoms: N_13  and  C_14 
ROOT
HETATM    1  N   UNL     1     -45.244 -50.927  14.367  1.00  0.00     0.093 N 
HETATM    2  C   UNL     1     -46.394 -51.490  13.598  1.00  0.00     0.298 C 
HETATM    3  C   UNL     1     -46.181 -52.878  12.931  1.00  0.00     0.198 C 
HETATM    4  O   UNL     1     -44.897 -53.024  12.291  1.00  0.00    -0.381 OA
HETATM    5  C   UNL     1     -43.872 -52.662  13.231  1.00  0.00     0.163 C 
HETATM    6  C   UNL     1     -44.025 -51.168  13.556  1.00  0.00     0.305 C 
ENDROOT
BRANCH   5   7
HETATM    7  C   UNL     1     -42.468 -53.029  12.767  1.00  0.00     0.127 C 
BRANCH   7   8
HETATM    8  N   UNL     1     -42.080 -52.384  11.514  1.00  0.00    -0.275 NA
HETATM    9  H   UNL     1     -41.895 -53.079  10.792  1.00  0.00     0.129 HD
BRANCH   8  10
HETATM   10  C   UNL     1     -40.935 -51.576  11.704  1.00  0.00     0.094 A 
HETATM   11  C   UNL     1     -40.129 -51.811  12.806  1.00  0.00     0.045 A 
HETATM   12  C   UNL     1     -38.974 -51.054  12.973  1.00  0.00     0.022 A 
HETATM   13  C   UNL     1     -38.672 -50.097  12.025  1.00  0.00     0.107 A 
HETATM   14  N   UNL     1     -39.452 -49.881  10.955  1.00  0.00    -0.311 N 
HETATM   15  N   UNL     1     -40.580 -50.634  10.798  1.00  0.00    -0.290 N 
ATOM     16  HN  UNL     1     -39.207 -49.165  10.270  1.00  0.00     0.186 HD
ATOM     17  HN  UNL     1     -41.169 -50.484   9.978  1.00  0.00     0.188 HD
ENDBRANCH   8  10
ENDBRANCH   7   8
ENDBRANCH   5   7
BRANCH   1  18
HETATM   18  C   UNL     1     -45.162 -51.516  15.725  1.00  0.00     0.287 C 
BRANCH  18  19
HETATM   19  C   UNL     1     -46.242 -52.557  16.059  1.00  0.00     0.170 C 
BRANCH  19  20
HETATM   20  S   UNL     1     -45.445 -54.084  16.546  1.00  0.00     0.142 S 
HETATM   21  C   UNL     1     -43.791 -53.613  17.008  1.00  0.00     0.161 C 
HETATM   22  O   UNL     1     -45.340 -54.916  15.366  1.00  0.00    -0.228 OA
HETATM   23  O   UNL     1     -46.102 -54.566  17.744  1.00  0.00    -0.228 OA
ENDBRANCH  19  20
ENDBRANCH  18  19
ENDBRANCH   1  18
TORSDOF 6
ENDMDL
