MODEL 1
REMARK VINA RESULT:      -5.1      0.000      0.000
REMARK  6 active torsions:
REMARK  status: ('A' for Active; 'I' for Inactive)
REMARK    1  A    between atoms: C_8  and  C_9 
REMARK    2  A    between atoms: C_9  and  C_10 
REMARK       I    between atoms: C_10  and  N_12 
REMARK    3  A    between atoms: N_12  and  C_13 
REMARK    4  A    between atoms: C_13  and  C_14 
REMARK    5  A    between atoms: C_14  and  S_15 
REMARK    6  A    between atoms: S_15  and  C_16 
ROOT
HETATM    1  C   UNL     1     -43.127 -54.152  16.636  1.00  0.00     0.222 C 
HETATM    2  O   UNL     1     -42.244 -53.398  17.043  1.00  0.00    -0.273 OA
HETATM    3  N   UNL     1     -44.370 -54.223  17.236  1.00  0.00    -0.360 N 
HETATM    4  H   UNL     1     -44.966 -55.017  17.033  1.00  0.00     0.162 HD
ENDROOT
BRANCH   1   5
HETATM    5  C   UNL     1     -42.910 -55.080  15.455  1.00  0.00     0.146 C 
BRANCH   5   6
HETATM    6  C   UNL     1     -43.312 -54.526  14.128  1.00  0.00     0.006 A 
HETATM    7  C   UNL     1     -42.546 -53.879  13.109  1.00  0.00     0.038 A 
HETATM    8  C   UNL     1     -41.099 -53.552  13.066  1.00  0.00     0.071 C 
HETATM    9  N   UNL     1     -43.306 -53.563  12.053  1.00  0.00    -0.265 N 
HETATM   10  O   UNL     1     -44.569 -54.021  12.342  1.00  0.00    -0.242 OA
ATOM     11  HN  UNL     1     -43.008 -53.079  11.207  1.00  0.00     0.194 HD
HETATM   12  C   UNL     1     -44.573 -54.604  13.565  1.00  0.00     0.081 A 
HETATM   13  C   UNL     1     -45.861 -55.187  13.994  1.00  0.00     0.079 C 
ENDBRANCH   5   6
ENDBRANCH   1   5
BRANCH   3  14
HETATM   14  C   UNL     1     -44.606 -53.519  18.491  1.00  0.00     0.132 C 
BRANCH  14  15
HETATM   15  C   UNL     1     -45.685 -52.429  18.415  1.00  0.00     0.094 C 
BRANCH  15  16
HETATM   16  S   UNL     1     -44.942 -50.830  17.924  1.00  0.00    -0.163 SA
BRANCH  16  17
HETATM   17  C   UNL     1     -45.414 -50.679  16.166  1.00  0.00     0.047 C 
HETATM   18  C   UNL     1     -46.675 -51.429  15.740  1.00  0.00     0.015 C 
HETATM   19  C   UNL     1     -46.592 -51.493  14.209  1.00  0.00     0.001 C 
HETATM   20  C   UNL     1     -45.189 -51.008  13.833  1.00  0.00     0.001 C 
HETATM   21  C   UNL     1     -44.384 -51.109  15.126  1.00  0.00     0.015 C 
ENDBRANCH  16  17
ENDBRANCH  15  16
ENDBRANCH  14  15
ENDBRANCH   3  14
TORSDOF 6
ENDMDL
MODEL 2
REMARK VINA RESULT:      -5.0      5.371      7.153
REMARK  6 active torsions:
REMARK  status: ('A' for Active; 'I' for Inactive)
REMARK    1  A    between atoms: C_8  and  C_9 
REMARK    2  A    between atoms: C_9  and  C_10 
REMARK       I    between atoms: C_10  and  N_12 
REMARK    3  A    between atoms: N_12  and  C_13 
REMARK    4  A    between atoms: C_13  and  C_14 
REMARK    5  A    between atoms: C_14  and  S_15 
REMARK    6  A    between atoms: S_15  and  C_16 
ROOT
HETATM    1  C   UNL     1     -42.235 -48.905  11.497  1.00  0.00     0.222 C 
HETATM    2  O   UNL     1     -43.072 -48.493  12.300  1.00  0.00    -0.273 OA
HETATM    3  N   UNL     1     -41.752 -50.199  11.534  1.00  0.00    -0.360 N 
HETATM    4  H   UNL     1     -40.902 -50.418  11.028  1.00  0.00     0.162 HD
ENDROOT
BRANCH   1   5
HETATM    5  C   UNL     1     -41.653 -48.013  10.416  1.00  0.00     0.146 C 
BRANCH   5   6
HETATM    6  C   UNL     1     -42.520 -46.871   9.997  1.00  0.00     0.006 A 
HETATM    7  C   UNL     1     -42.712 -45.578  10.574  1.00  0.00     0.038 A 
HETATM    8  C   UNL     1     -42.105 -44.973  11.785  1.00  0.00     0.071 C 
HETATM    9  N   UNL     1     -43.569 -44.844   9.852  1.00  0.00    -0.265 N 
HETATM   10  O   UNL     1     -43.928 -45.624   8.778  1.00  0.00    -0.242 OA
ATOM     11  HN  UNL     1     -43.891 -43.899  10.058  1.00  0.00     0.194 HD
HETATM   12  C   UNL     1     -43.298 -46.821   8.855  1.00  0.00     0.081 A 
HETATM   13  C   UNL     1     -43.554 -47.753   7.738  1.00  0.00     0.079 C 
ENDBRANCH   5   6
ENDBRANCH   1   5
BRANCH   3  14
HETATM   14  C   UNL     1     -42.102 -51.067  12.652  1.00  0.00     0.132 C 
BRANCH  14  15
HETATM   15  C   UNL     1     -41.904 -52.565  12.381  1.00  0.00     0.094 C 
BRANCH  15  16
HETATM   16  S   UNL     1     -43.236 -53.539  13.172  1.00  0.00    -0.163 SA
BRANCH  16  17
HETATM   17  C   UNL     1     -44.614 -52.346  13.273  1.00  0.00     0.047 C 
HETATM   18  C   UNL     1     -45.207 -52.117  14.662  1.00  0.00     0.015 C 
HETATM   19  C   UNL     1     -46.563 -51.447  14.400  1.00  0.00     0.001 C 
HETATM   20  C   UNL     1     -46.808 -51.541  12.891  1.00  0.00     0.001 C 
HETATM   21  C   UNL     1     -45.841 -52.621  12.409  1.00  0.00     0.015 C 
ENDBRANCH  16  17
ENDBRANCH  15  16
ENDBRANCH  14  15
ENDBRANCH   3  14
TORSDOF 6
ENDMDL
MODEL 3
REMARK VINA RESULT:      -5.0      5.443      7.265
REMARK  6 active torsions:
REMARK  status: ('A' for Active; 'I' for Inactive)
REMARK    1  A    between atoms: C_8  and  C_9 
REMARK    2  A    between atoms: C_9  and  C_10 
REMARK       I    between atoms: C_10  and  N_12 
REMARK    3  A    between atoms: N_12  and  C_13 
REMARK    4  A    between atoms: C_13  and  C_14 
REMARK    5  A    between atoms: C_14  and  S_15 
REMARK    6  A    between atoms: S_15  and  C_16 
ROOT
HETATM    1  C   UNL     1     -42.220 -48.704  11.627  1.00  0.00     0.222 C 
HETATM    2  O   UNL     1     -42.374 -47.965  12.599  1.00  0.00    -0.273 OA
HETATM    3  N   UNL     1     -42.235 -50.081  11.738  1.00  0.00    -0.360 N 
HETATM    4  H   UNL     1     -41.863 -50.637  10.977  1.00  0.00     0.162 HD
ENDROOT
BRANCH   1   5
HETATM    5  C   UNL     1     -41.979 -48.156  10.233  1.00  0.00     0.146 C 
BRANCH   5   6
HETATM    6  C   UNL     1     -42.679 -46.874   9.923  1.00  0.00     0.006 A 
HETATM    7  C   UNL     1     -43.976 -46.620   9.380  1.00  0.00     0.038 A 
HETATM    8  C   UNL     1     -45.032 -47.568   8.947  1.00  0.00     0.071 C 
HETATM    9  N   UNL     1     -44.220 -45.306   9.291  1.00  0.00    -0.265 N 
HETATM   10  O   UNL     1     -43.109 -44.677   9.801  1.00  0.00    -0.242 OA
ATOM     11  HN  UNL     1     -45.060 -44.862   8.920  1.00  0.00     0.194 HD
HETATM   12  C   UNL     1     -42.199 -45.603  10.187  1.00  0.00     0.081 A 
HETATM   13  C   UNL     1     -40.964 -45.073  10.800  1.00  0.00     0.079 C 
ENDBRANCH   5   6
ENDBRANCH   1   5
BRANCH   3  14
HETATM   14  C   UNL     1     -42.263 -50.697  13.059  1.00  0.00     0.132 C 
BRANCH  14  15
HETATM   15  C   UNL     1     -42.089 -52.223  13.052  1.00  0.00     0.094 C 
BRANCH  15  16
HETATM   16  S   UNL     1     -43.628 -53.038  12.490  1.00  0.00    -0.163 SA
BRANCH  16  17
HETATM   17  C   UNL     1     -44.856 -52.500  13.730  1.00  0.00     0.047 C 
HETATM   18  C   UNL     1     -45.729 -53.597  14.335  1.00  0.00     0.015 C 
HETATM   19  C   UNL     1     -46.907 -52.850  14.976  1.00  0.00     0.001 C 
HETATM   20  C   UNL     1     -46.800 -51.395  14.507  1.00  0.00     0.001 C 
HETATM   21  C   UNL     1     -45.870 -51.445  13.298  1.00  0.00     0.015 C 
ENDBRANCH  16  17
ENDBRANCH  15  16
ENDBRANCH  14  15
ENDBRANCH   3  14
TORSDOF 6
ENDMDL
MODEL 4
REMARK VINA RESULT:      -4.9      3.913      6.179
REMARK  6 active torsions:
REMARK  status: ('A' for Active; 'I' for Inactive)
REMARK    1  A    between atoms: C_8  and  C_9 
REMARK    2  A    between atoms: C_9  and  C_10 
REMARK       I    between atoms: C_10  and  N_12 
REMARK    3  A    between atoms: N_12  and  C_13 
REMARK    4  A    between atoms: C_13  and  C_14 
REMARK    5  A    between atoms: C_14  and  S_15 
REMARK    6  A    between atoms: S_15  and  C_16 
ROOT
HETATM    1  C   UNL     1     -43.121 -49.396  13.585  1.00  0.00     0.222 C 
HETATM    2  O   UNL     1     -42.530 -48.512  14.206  1.00  0.00    -0.273 OA
HETATM    3  N   UNL     1     -43.262 -49.362  12.211  1.00  0.00    -0.360 N 
HETATM    4  H   UNL     1     -43.954 -49.961  11.776  1.00  0.00     0.162 HD
ENDROOT
BRANCH   1   5
HETATM    5  C   UNL     1     -43.759 -50.580  14.286  1.00  0.00     0.146 C 
BRANCH   5   6
HETATM    6  C   UNL     1     -44.024 -51.767  13.418  1.00  0.00     0.006 A 
HETATM    7  C   UNL     1     -43.149 -52.785  12.928  1.00  0.00     0.038 A 
HETATM    8  C   UNL     1     -41.691 -52.970  13.131  1.00  0.00     0.071 C 
HETATM    9  N   UNL     1     -43.813 -53.689  12.197  1.00  0.00    -0.265 N 
HETATM   10  O   UNL     1     -45.133 -53.302  12.219  1.00  0.00    -0.242 OA
ATOM     11  HN  UNL     1     -43.420 -54.499  11.719  1.00  0.00     0.194 HD
HETATM   12  C   UNL     1     -45.262 -52.170  12.953  1.00  0.00     0.081 A 
HETATM   13  C   UNL     1     -46.640 -51.658  13.104  1.00  0.00     0.079 C 
ENDBRANCH   5   6
ENDBRANCH   1   5
BRANCH   3  14
HETATM   14  C   UNL     1     -42.857 -48.171  11.473  1.00  0.00     0.132 C 
BRANCH  14  15
HETATM   15  C   UNL     1     -41.571 -48.339  10.651  1.00  0.00     0.094 C 
BRANCH  15  16
HETATM   16  S   UNL     1     -40.113 -47.842  11.638  1.00  0.00    -0.163 SA
BRANCH  16  17
HETATM   17  C   UNL     1     -39.266 -49.429  11.951  1.00  0.00     0.047 C 
HETATM   18  C   UNL     1     -39.380 -49.985  13.369  1.00  0.00     0.015 C 
HETATM   19  C   UNL     1     -38.266 -51.037  13.465  1.00  0.00     0.001 C 
HETATM   20  C   UNL     1     -37.408 -50.873  12.207  1.00  0.00     0.001 C 
HETATM   21  C   UNL     1     -37.768 -49.490  11.671  1.00  0.00     0.015 C 
ENDBRANCH  16  17
ENDBRANCH  15  16
ENDBRANCH  14  15
ENDBRANCH   3  14
TORSDOF 6
ENDMDL
MODEL 5
REMARK VINA RESULT:      -4.8      4.281      5.884
REMARK  6 active torsions:
REMARK  status: ('A' for Active; 'I' for Inactive)
REMARK    1  A    between atoms: C_8  and  C_9 
REMARK    2  A    between atoms: C_9  and  C_10 
REMARK       I    between atoms: C_10  and  N_12 
REMARK    3  A    between atoms: N_12  and  C_13 
REMARK    4  A    between atoms: C_13  and  C_14 
REMARK    5  A    between atoms: C_14  and  S_15 
REMARK    6  A    between atoms: S_15  and  C_16 
ROOT
HETATM    1  C   UNL     1     -42.604 -52.053  12.754  1.00  0.00     0.222 C 
HETATM    2  O   UNL     1     -42.431 -51.856  13.956  1.00  0.00    -0.273 OA
HETATM    3  N   UNL     1     -41.936 -51.330  11.784  1.00  0.00    -0.360 N 
HETATM    4  H   UNL     1     -42.284 -51.348  10.833  1.00  0.00     0.162 HD
ENDROOT
BRANCH   1   5
HETATM    5  C   UNL     1     -43.585 -53.091  12.244  1.00  0.00     0.146 C 
BRANCH   5   6
HETATM    6  C   UNL     1     -44.759 -53.349  13.131  1.00  0.00     0.006 A 
HETATM    7  C   UNL     1     -46.086 -52.818  13.111  1.00  0.00     0.038 A 
HETATM    8  C   UNL     1     -46.705 -51.831  12.193  1.00  0.00     0.071 C 
HETATM    9  N   UNL     1     -46.838 -53.347  14.085  1.00  0.00    -0.265 N 
HETATM   10  O   UNL     1     -46.035 -54.253  14.737  1.00  0.00    -0.242 OA
ATOM     11  HN  UNL     1     -47.809 -53.123  14.299  1.00  0.00     0.194 HD
HETATM   12  C   UNL     1     -44.806 -54.265  14.167  1.00  0.00     0.081 A 
HETATM   13  C   UNL     1     -43.844 -55.229  14.737  1.00  0.00     0.079 C 
ENDBRANCH   5   6
ENDBRANCH   1   5
BRANCH   3  14
HETATM   14  C   UNL     1     -41.125 -50.181  12.173  1.00  0.00     0.132 C 
BRANCH  14  15
HETATM   15  C   UNL     1     -40.696 -49.282  11.004  1.00  0.00     0.094 C 
BRANCH  15  16
HETATM   16  S   UNL     1     -41.300 -47.573  11.260  1.00  0.00    -0.163 SA
BRANCH  16  17
HETATM   17  C   UNL     1     -42.702 -47.453  10.096  1.00  0.00     0.047 C 
HETATM   18  C   UNL     1     -42.896 -46.101   9.412  1.00  0.00     0.015 C 
HETATM   19  C   UNL     1     -44.328 -46.145   8.862  1.00  0.00     0.001 C 
HETATM   20  C   UNL     1     -44.980 -47.397   9.456  1.00  0.00     0.001 C 
HETATM   21  C   UNL     1     -44.091 -47.773  10.639  1.00  0.00     0.015 C 
ENDBRANCH  16  17
ENDBRANCH  15  16
ENDBRANCH  14  15
ENDBRANCH   3  14
TORSDOF 6
ENDMDL
MODEL 6
REMARK VINA RESULT:      -4.7      3.965      6.205
REMARK  6 active torsions:
REMARK  status: ('A' for Active; 'I' for Inactive)
REMARK    1  A    between atoms: C_8  and  C_9 
REMARK    2  A    between atoms: C_9  and  C_10 
REMARK       I    between atoms: C_10  and  N_12 
REMARK    3  A    between atoms: N_12  and  C_13 
REMARK    4  A    between atoms: C_13  and  C_14 
REMARK    5  A    between atoms: C_14  and  S_15 
REMARK    6  A    between atoms: S_15  and  C_16 
ROOT
HETATM    1  C   UNL     1     -42.688 -51.542  13.009  1.00  0.00     0.222 C 
HETATM    2  O   UNL     1     -42.634 -51.188  14.186  1.00  0.00    -0.273 OA
HETATM    3  N   UNL     1     -42.378 -50.689  11.967  1.00  0.00    -0.360 N 
HETATM    4  H   UNL     1     -42.671 -50.936  11.029  1.00  0.00     0.162 HD
ENDROOT
BRANCH   1   5
HETATM    5  C   UNL     1     -43.120 -52.941  12.610  1.00  0.00     0.146 C 
BRANCH   5   6
HETATM    6  C   UNL     1     -44.295 -53.481  13.357  1.00  0.00     0.006 A 
HETATM    7  C   UNL     1     -45.693 -53.215  13.227  1.00  0.00     0.038 A 
HETATM    8  C   UNL     1     -46.409 -52.302  12.302  1.00  0.00     0.071 C 
HETATM    9  N   UNL     1     -46.412 -53.947  14.089  1.00  0.00    -0.265 N 
HETATM   10  O   UNL     1     -45.509 -54.726  14.773  1.00  0.00    -0.242 OA
ATOM     11  HN  UNL     1     -47.423 -53.929  14.212  1.00  0.00     0.194 HD
HETATM   12  C   UNL     1     -44.255 -54.461  14.333  1.00  0.00     0.081 A 
HETATM   13  C   UNL     1     -43.176 -55.261  14.949  1.00  0.00     0.079 C 
ENDBRANCH   5   6
ENDBRANCH   1   5
BRANCH   3  14
HETATM   14  C   UNL     1     -42.145 -49.275  12.240  1.00  0.00     0.132 C 
BRANCH  14  15
HETATM   15  C   UNL     1     -41.369 -48.535  11.140  1.00  0.00     0.094 C 
BRANCH  15  16
HETATM   16  S   UNL     1     -39.804 -47.861  11.809  1.00  0.00    -0.163 SA
BRANCH  16  17
HETATM   17  C   UNL     1     -38.938 -49.350  12.413  1.00  0.00     0.047 C 
HETATM   18  C   UNL     1     -38.357 -49.266  13.823  1.00  0.00     0.015 C 
HETATM   19  C   UNL     1     -37.354 -50.426  13.901  1.00  0.00     0.001 C 
HETATM   20  C   UNL     1     -37.214 -50.971  12.477  1.00  0.00     0.001 C 
HETATM   21  C   UNL     1     -37.767 -49.865  11.582  1.00  0.00     0.015 C 
ENDBRANCH  16  17
ENDBRANCH  15  16
ENDBRANCH  14  15
ENDBRANCH   3  14
TORSDOF 6
ENDMDL
MODEL 7
REMARK VINA RESULT:      -4.6      3.746      5.934
REMARK  6 active torsions:
REMARK  status: ('A' for Active; 'I' for Inactive)
REMARK    1  A    between atoms: C_8  and  C_9 
REMARK    2  A    between atoms: C_9  and  C_10 
REMARK       I    between atoms: C_10  and  N_12 
REMARK    3  A    between atoms: N_12  and  C_13 
REMARK    4  A    between atoms: C_13  and  C_14 
REMARK    5  A    between atoms: C_14  and  S_15 
REMARK    6  A    between atoms: S_15  and  C_16 
ROOT
HETATM    1  C   UNL     1     -43.488 -51.640  12.810  1.00  0.00     0.222 C 
HETATM    2  O   UNL     1     -44.344 -51.093  13.504  1.00  0.00    -0.273 OA
HETATM    3  N   UNL     1     -42.412 -50.950  12.285  1.00  0.00    -0.360 N 
HETATM    4  H   UNL     1     -41.881 -51.370  11.531  1.00  0.00     0.162 HD
ENDROOT
BRANCH   1   5
HETATM    5  C   UNL     1     -43.561 -53.114  12.458  1.00  0.00     0.146 C 
BRANCH   5   6
HETATM    6  C   UNL     1     -43.330 -54.053  13.596  1.00  0.00     0.006 A 
HETATM    7  C   UNL     1     -42.153 -54.338  14.355  1.00  0.00     0.038 A 
HETATM    8  C   UNL     1     -40.782 -53.783  14.233  1.00  0.00     0.071 C 
HETATM    9  N   UNL     1     -42.397 -55.236  15.317  1.00  0.00    -0.265 N 
HETATM   10  O   UNL     1     -43.737 -55.533  15.231  1.00  0.00    -0.242 OA
ATOM     11  HN  UNL     1     -41.726 -55.623  15.979  1.00  0.00     0.194 HD
HETATM   12  C   UNL     1     -44.295 -54.824  14.220  1.00  0.00     0.081 A 
HETATM   13  C   UNL     1     -45.750 -55.006  14.035  1.00  0.00     0.079 C 
ENDBRANCH   5   6
ENDBRANCH   1   5
BRANCH   3  14
HETATM   14  C   UNL     1     -42.362 -49.497  12.403  1.00  0.00     0.132 C 
BRANCH  14  15
HETATM   15  C   UNL     1     -41.699 -48.785  11.215  1.00  0.00     0.094 C 
BRANCH  15  16
HETATM   16  S   UNL     1     -40.094 -48.063  11.718  1.00  0.00    -0.163 SA
BRANCH  16  17
HETATM   17  C   UNL     1     -39.109 -49.529  12.179  1.00  0.00     0.047 C 
HETATM   18  C   UNL     1     -38.754 -49.664  13.658  1.00  0.00     0.015 C 
HETATM   19  C   UNL     1     -37.609 -50.687  13.692  1.00  0.00     0.001 C 
HETATM   20  C   UNL     1     -37.187 -50.911  12.237  1.00  0.00     0.001 C 
HETATM   21  C   UNL     1     -37.768 -49.720  11.478  1.00  0.00     0.015 C 
ENDBRANCH  16  17
ENDBRANCH  15  16
ENDBRANCH  14  15
ENDBRANCH   3  14
TORSDOF 6
ENDMDL
MODEL 8
REMARK VINA RESULT:      -4.6      5.086      6.494
REMARK  6 active torsions:
REMARK  status: ('A' for Active; 'I' for Inactive)
REMARK    1  A    between atoms: C_8  and  C_9 
REMARK    2  A    between atoms: C_9  and  C_10 
REMARK       I    between atoms: C_10  and  N_12 
REMARK    3  A    between atoms: N_12  and  C_13 
REMARK    4  A    between atoms: C_13  and  C_14 
REMARK    5  A    between atoms: C_14  and  S_15 
REMARK    6  A    between atoms: S_15  and  C_16 
ROOT
HETATM    1  C   UNL     1     -42.728 -51.622  12.868  1.00  0.00     0.222 C 
HETATM    2  O   UNL     1     -42.850 -51.207  14.020  1.00  0.00    -0.273 OA
HETATM    3  N   UNL     1     -41.975 -50.955  11.921  1.00  0.00    -0.360 N 
HETATM    4  H   UNL     1     -42.102 -51.188  10.943  1.00  0.00     0.162 HD
ENDROOT
BRANCH   1   5
HETATM    5  C   UNL     1     -43.416 -52.888  12.394  1.00  0.00     0.146 C 
BRANCH   5   6
HETATM    6  C   UNL     1     -44.610 -53.301  13.190  1.00  0.00     0.006 A 
HETATM    7  C   UNL     1     -45.980 -52.904  13.102  1.00  0.00     0.038 A 
HETATM    8  C   UNL     1     -46.638 -51.942  12.184  1.00  0.00     0.071 C 
HETATM    9  N   UNL     1     -46.734 -53.548  14.001  1.00  0.00    -0.265 N 
HETATM   10  O   UNL     1     -45.886 -54.399  14.670  1.00  0.00    -0.242 OA
ATOM     11  HN  UNL     1     -47.735 -53.432  14.159  1.00  0.00     0.194 HD
HETATM   12  C   UNL     1     -44.629 -54.264  14.183  1.00  0.00     0.081 A 
HETATM   13  C   UNL     1     -43.611 -55.153  14.779  1.00  0.00     0.079 C 
ENDBRANCH   5   6
ENDBRANCH   1   5
BRANCH   3  14
HETATM   14  C   UNL     1     -41.441 -49.633  12.225  1.00  0.00     0.132 C 
BRANCH  14  15
HETATM   15  C   UNL     1     -40.985 -48.833  10.996  1.00  0.00     0.094 C 
BRANCH  15  16
HETATM   16  S   UNL     1     -42.329 -47.734  10.416  1.00  0.00    -0.163 SA
BRANCH  16  17
HETATM   17  C   UNL     1     -41.548 -46.084  10.432  1.00  0.00     0.047 C 
HETATM   18  C   UNL     1     -40.055 -46.048  10.757  1.00  0.00     0.015 C 
HETATM   19  C   UNL     1     -39.772 -44.585  11.123  1.00  0.00     0.001 C 
HETATM   20  C   UNL     1     -41.135 -43.896  11.236  1.00  0.00     0.001 C 
HETATM   21  C   UNL     1     -42.136 -45.040  11.376  1.00  0.00     0.015 C 
ENDBRANCH  16  17
ENDBRANCH  15  16
ENDBRANCH  14  15
ENDBRANCH   3  14
TORSDOF 6
ENDMDL
MODEL 9
REMARK VINA RESULT:      -4.6      5.738      7.791
REMARK  6 active torsions:
REMARK  status: ('A' for Active; 'I' for Inactive)
REMARK    1  A    between atoms: C_8  and  C_9 
REMARK    2  A    between atoms: C_9  and  C_10 
REMARK       I    between atoms: C_10  and  N_12 
REMARK    3  A    between atoms: N_12  and  C_13 
REMARK    4  A    between atoms: C_13  and  C_14 
REMARK    5  A    between atoms: C_14  and  S_15 
REMARK    6  A    between atoms: S_15  and  C_16 
ROOT
HETATM    1  C   UNL     1     -42.094 -48.070  11.798  1.00  0.00     0.222 C 
HETATM    2  O   UNL     1     -41.908 -47.564  12.904  1.00  0.00    -0.273 OA
HETATM    3  N   UNL     1     -42.670 -49.317  11.646  1.00  0.00    -0.360 N 
HETATM    4  H   UNL     1     -42.577 -49.794  10.757  1.00  0.00     0.162 HD
ENDROOT
BRANCH   1   5
HETATM    5  C   UNL     1     -41.683 -47.372  10.516  1.00  0.00     0.146 C 
BRANCH   5   6
HETATM    6  C   UNL     1     -42.603 -46.288  10.058  1.00  0.00     0.006 A 
HETATM    7  C   UNL     1     -43.806 -46.341   9.287  1.00  0.00     0.038 A 
HETATM    8  C   UNL     1     -44.509 -47.505   8.695  1.00  0.00     0.071 C 
HETATM    9  N   UNL     1     -44.337 -45.123   9.127  1.00  0.00    -0.265 N 
HETATM   10  O   UNL     1     -43.518 -44.256   9.812  1.00  0.00    -0.242 OA
ATOM     11  HN  UNL     1     -45.179 -44.885   8.603  1.00  0.00     0.194 HD
HETATM   12  C   UNL     1     -42.496 -44.946  10.375  1.00  0.00     0.081 A 
HETATM   13  C   UNL     1     -41.553 -44.148  11.185  1.00  0.00     0.079 C 
ENDBRANCH   5   6
ENDBRANCH   1   5
BRANCH   3  14
HETATM   14  C   UNL     1     -42.916 -50.146  12.821  1.00  0.00     0.132 C 
BRANCH  14  15
HETATM   15  C   UNL     1     -41.732 -51.033  13.232  1.00  0.00     0.094 C 
BRANCH  15  16
HETATM   16  S   UNL     1     -41.586 -52.465  12.102  1.00  0.00    -0.163 SA
BRANCH  16  17
HETATM   17  C   UNL     1     -42.552 -53.761  12.952  1.00  0.00     0.047 C 
HETATM   18  C   UNL     1     -44.056 -53.765  12.683  1.00  0.00     0.015 C 
HETATM   19  C   UNL     1     -44.650 -54.624  13.808  1.00  0.00     0.001 C 
HETATM   20  C   UNL     1     -43.516 -54.871  14.807  1.00  0.00     0.001 C 
HETATM   21  C   UNL     1     -42.468 -53.811  14.474  1.00  0.00     0.015 C 
ENDBRANCH  16  17
ENDBRANCH  15  16
ENDBRANCH  14  15
ENDBRANCH   3  14
TORSDOF 6
ENDMDL
