MODEL 1
REMARK VINA RESULT:      -6.4      0.000      0.000
REMARK  5 active torsions:
REMARK  status: ('A' for Active; 'I' for Inactive)
REMARK    1  A    between atoms: C_2  and  O_4 
REMARK    2  A    between atoms: C_2  and  C_5 
REMARK    3  A    between atoms: C_5  and  N_6 
REMARK       I    between atoms: N_6  and  C_7 
REMARK       I    between atoms: C_7  and  N_9 
REMARK    4  A    between atoms: N_9  and  C_10 
REMARK    5  A    between atoms: C_15  and  N_16 
ROOT
HETATM    1  C   UNL     1     -42.248 -50.784  13.418  1.00  0.00     0.111 C 
HETATM    2  C   UNL     1     -40.771 -50.989  13.802  1.00  0.00     0.027 C 
HETATM    3  C   UNL     1     -40.089 -52.020  12.904  1.00  0.00     0.002 C 
HETATM    4  C   UNL     1     -40.830 -53.355  12.902  1.00  0.00     0.002 C 
HETATM    5  C   UNL     1     -42.323 -53.200  12.612  1.00  0.00     0.029 C 
HETATM    6  C   UNL     1     -42.970 -52.152  13.533  1.00  0.00     0.130 C 
ENDROOT
BRANCH   1   7
HETATM    7  N   UNL     1     -42.388 -50.225  12.069  1.00  0.00    -0.336 N 
HETATM    8  C   UNL     1     -42.418 -48.881  11.816  1.00  0.00     0.316 C 
HETATM    9  N   UNL     1     -42.622 -48.645  10.484  1.00  0.00    -0.340 N 
HETATM   10  O   UNL     1     -42.275 -48.010  12.663  1.00  0.00    -0.247 OA
HETATM   11  H   UNL     1     -42.351 -49.392   9.859  1.00  0.00     0.164 HD
HETATM   12  H   UNL     1     -43.022 -50.751  11.467  1.00  0.00     0.164 HD
BRANCH   9  13
HETATM   13  C   UNL     1     -42.535 -47.305   9.938  1.00  0.00     0.161 C 
BRANCH  13  14
HETATM   14  C   UNL     1     -43.616 -47.032   8.873  1.00  0.00     0.066 C 
HETATM   15  C   UNL     1     -44.999 -47.305   9.471  1.00  0.00     0.047 C 
HETATM   16  C   UNL     1     -43.402 -47.884   7.619  1.00  0.00     0.047 C 
BRANCH  14  17
HETATM   17  O   UNL     1     -43.557 -45.647   8.497  1.00  0.00    -0.389 OA
HETATM   18  H   UNL     1     -42.663 -45.474   8.153  1.00  0.00     0.210 HD
ENDBRANCH  14  17
ENDBRANCH  13  14
ENDBRANCH   9  13
ENDBRANCH   1   7
BRANCH   6  19
HETATM   19  N   UNL     1     -44.408 -52.035  13.308  1.00  0.00    -0.297 N 
HETATM   20  C   UNL     1     -45.297 -51.319  14.059  1.00  0.00     0.112 A 
HETATM   21  C   UNL     1     -46.521 -51.471  13.452  1.00  0.00     0.037 A 
HETATM   22  C   UNL     1     -46.271 -52.302  12.346  1.00  0.00     0.108 A 
HETATM   23  N   UNL     1     -44.986 -52.651  12.251  1.00  0.00    -0.310 N 
ATOM     24  HN  UNL     1     -44.544 -53.243  11.548  1.00  0.00     0.186 HD
ENDBRANCH   6  19
TORSDOF 5
ENDMDL
MODEL 2
REMARK VINA RESULT:      -6.2      2.430      5.794
REMARK  5 active torsions:
REMARK  status: ('A' for Active; 'I' for Inactive)
REMARK    1  A    between atoms: C_2  and  O_4 
REMARK    2  A    between atoms: C_2  and  C_5 
REMARK    3  A    between atoms: C_5  and  N_6 
REMARK       I    between atoms: N_6  and  C_7 
REMARK       I    between atoms: C_7  and  N_9 
REMARK    4  A    between atoms: N_9  and  C_10 
REMARK    5  A    between atoms: C_15  and  N_16 
ROOT
HETATM    1  C   UNL     1     -41.217 -49.270  11.100  1.00  0.00     0.111 C 
HETATM    2  C   UNL     1     -39.844 -49.282  11.796  1.00  0.00     0.027 C 
HETATM    3  C   UNL     1     -39.797 -48.310  12.974  1.00  0.00     0.002 C 
HETATM    4  C   UNL     1     -40.173 -46.890  12.559  1.00  0.00     0.002 C 
HETATM    5  C   UNL     1     -41.490 -46.830  11.784  1.00  0.00     0.029 C 
HETATM    6  C   UNL     1     -41.498 -47.825  10.611  1.00  0.00     0.130 C 
ENDROOT
BRANCH   1   7
HETATM    7  N   UNL     1     -42.284 -49.742  11.990  1.00  0.00    -0.336 N 
HETATM    8  C   UNL     1     -42.423 -51.051  12.361  1.00  0.00     0.316 C 
HETATM    9  N   UNL     1     -43.535 -51.217  13.140  1.00  0.00    -0.340 N 
HETATM   10  O   UNL     1     -41.654 -51.950  12.047  1.00  0.00    -0.247 OA
HETATM   11  H   UNL     1     -43.857 -50.392  13.628  1.00  0.00     0.164 HD
HETATM   12  H   UNL     1     -43.181 -49.280  11.842  1.00  0.00     0.164 HD
BRANCH   9  13
HETATM   13  C   UNL     1     -43.814 -52.482  13.790  1.00  0.00     0.161 C 
BRANCH  13  14
HETATM   14  C   UNL     1     -44.796 -53.355  12.984  1.00  0.00     0.066 C 
HETATM   15  C   UNL     1     -45.940 -52.483  12.460  1.00  0.00     0.047 C 
HETATM   16  C   UNL     1     -45.351 -54.507  13.826  1.00  0.00     0.047 C 
BRANCH  14  17
HETATM   17  O   UNL     1     -44.104 -53.911  11.855  1.00  0.00    -0.389 OA
HETATM   18  H   UNL     1     -44.257 -54.872  11.861  1.00  0.00     0.210 HD
ENDBRANCH  14  17
ENDBRANCH  13  14
ENDBRANCH   9  13
ENDBRANCH   1   7
BRANCH   6  19
HETATM   19  N   UNL     1     -42.725 -47.739   9.826  1.00  0.00    -0.297 N 
HETATM   20  C   UNL     1     -43.959 -47.363  10.278  1.00  0.00     0.112 A 
HETATM   21  C   UNL     1     -44.793 -47.394   9.185  1.00  0.00     0.037 A 
HETATM   22  C   UNL     1     -43.972 -47.806   8.120  1.00  0.00     0.108 A 
HETATM   23  N   UNL     1     -42.711 -48.020   8.503  1.00  0.00    -0.310 N 
ATOM     24  HN  UNL     1     -41.922 -48.323   7.931  1.00  0.00     0.186 HD
ENDBRANCH   6  19
TORSDOF 5
ENDMDL
MODEL 3
REMARK VINA RESULT:      -6.1      3.028      4.965
REMARK  5 active torsions:
REMARK  status: ('A' for Active; 'I' for Inactive)
REMARK    1  A    between atoms: C_2  and  O_4 
REMARK    2  A    between atoms: C_2  and  C_5 
REMARK    3  A    between atoms: C_5  and  N_6 
REMARK       I    between atoms: N_6  and  C_7 
REMARK       I    between atoms: C_7  and  N_9 
REMARK    4  A    between atoms: N_9  and  C_10 
REMARK    5  A    between atoms: C_15  and  N_16 
ROOT
HETATM    1  C   UNL     1     -44.615 -53.009  12.970  1.00  0.00     0.111 C 
HETATM    2  C   UNL     1     -45.929 -52.610  12.273  1.00  0.00     0.027 C 
HETATM    3  C   UNL     1     -46.568 -51.384  12.925  1.00  0.00     0.002 C 
HETATM    4  C   UNL     1     -46.797 -51.587  14.421  1.00  0.00     0.002 C 
HETATM    5  C   UNL     1     -45.543 -52.071  15.150  1.00  0.00     0.029 C 
HETATM    6  C   UNL     1     -44.930 -53.301  14.460  1.00  0.00     0.130 C 
ENDROOT
BRANCH   1   7
HETATM    7  N   UNL     1     -43.591 -51.967  12.841  1.00  0.00    -0.336 N 
HETATM    8  C   UNL     1     -42.261 -52.241  12.681  1.00  0.00     0.316 C 
HETATM    9  N   UNL     1     -41.529 -51.086  12.653  1.00  0.00    -0.340 N 
HETATM   10  O   UNL     1     -41.791 -53.365  12.569  1.00  0.00    -0.247 OA
HETATM   11  H   UNL     1     -42.032 -50.254  12.378  1.00  0.00     0.164 HD
HETATM   12  H   UNL     1     -43.753 -51.151  13.433  1.00  0.00     0.164 HD
BRANCH   9  13
HETATM   13  C   UNL     1     -40.115 -51.102  12.334  1.00  0.00     0.161 C 
BRANCH  13  14
HETATM   14  C   UNL     1     -39.678 -49.857  11.536  1.00  0.00     0.066 C 
HETATM   15  C   UNL     1     -38.152 -49.837  11.420  1.00  0.00     0.047 C 
HETATM   16  C   UNL     1     -40.178 -48.564  12.187  1.00  0.00     0.047 C 
BRANCH  14  17
HETATM   17  O   UNL     1     -40.227 -49.939  10.211  1.00  0.00    -0.389 OA
HETATM   18  H   UNL     1     -39.512 -50.226   9.615  1.00  0.00     0.210 HD
ENDBRANCH  14  17
ENDBRANCH  13  14
ENDBRANCH   9  13
ENDBRANCH   1   7
BRANCH   6  19
HETATM   19  N   UNL     1     -43.765 -53.810  15.178  1.00  0.00    -0.297 N 
HETATM   20  C   UNL     1     -43.131 -53.215  16.233  1.00  0.00     0.112 A 
HETATM   21  C   UNL     1     -42.121 -54.070  16.604  1.00  0.00     0.037 A 
HETATM   22  C   UNL     1     -42.219 -55.150  15.711  1.00  0.00     0.108 A 
HETATM   23  N   UNL     1     -43.218 -55.000  14.837  1.00  0.00    -0.310 N 
ATOM     24  HN  UNL     1     -43.502 -55.632  14.089  1.00  0.00     0.186 HD
ENDBRANCH   6  19
TORSDOF 5
ENDMDL
MODEL 4
REMARK VINA RESULT:      -5.8      2.794      5.850
REMARK  5 active torsions:
REMARK  status: ('A' for Active; 'I' for Inactive)
REMARK    1  A    between atoms: C_2  and  O_4 
REMARK    2  A    between atoms: C_2  and  C_5 
REMARK    3  A    between atoms: C_5  and  N_6 
REMARK       I    between atoms: N_6  and  C_7 
REMARK       I    between atoms: C_7  and  N_9 
REMARK    4  A    between atoms: N_9  and  C_10 
REMARK    5  A    between atoms: C_15  and  N_16 
ROOT
HETATM    1  C   UNL     1     -39.548 -50.132  11.799  1.00  0.00     0.111 C 
HETATM    2  C   UNL     1     -38.126 -50.553  12.215  1.00  0.00     0.027 C 
HETATM    3  C   UNL     1     -37.751 -50.002  13.590  1.00  0.00     0.002 C 
HETATM    4  C   UNL     1     -37.900 -48.484  13.658  1.00  0.00     0.002 C 
HETATM    5  C   UNL     1     -39.267 -48.002  13.170  1.00  0.00     0.029 C 
HETATM    6  C   UNL     1     -39.607 -48.582  11.787  1.00  0.00     0.130 C 
ENDROOT
BRANCH   1   7
HETATM    7  N   UNL     1     -40.566 -50.692  12.694  1.00  0.00    -0.336 N 
HETATM    8  C   UNL     1     -41.101 -51.940  12.529  1.00  0.00     0.316 C 
HETATM    9  N   UNL     1     -42.071 -52.177  13.464  1.00  0.00    -0.340 N 
HETATM   10  O   UNL     1     -40.754 -52.738  11.670  1.00  0.00    -0.247 OA
HETATM   11  H   UNL     1     -42.005 -51.633  14.314  1.00  0.00     0.164 HD
HETATM   12  H   UNL     1     -41.255 -50.011  13.015  1.00  0.00     0.164 HD
BRANCH   9  13
HETATM   13  C   UNL     1     -42.677 -53.487  13.601  1.00  0.00     0.161 C 
BRANCH  13  14
HETATM   14  C   UNL     1     -44.161 -53.496  13.181  1.00  0.00     0.066 C 
HETATM   15  C   UNL     1     -44.857 -52.256  13.747  1.00  0.00     0.047 C 
HETATM   16  C   UNL     1     -44.873 -54.767  13.652  1.00  0.00     0.047 C 
BRANCH  14  17
HETATM   17  O   UNL     1     -44.238 -53.438  11.748  1.00  0.00    -0.389 OA
HETATM   18  H   UNL     1     -44.789 -52.670  11.515  1.00  0.00     0.210 HD
ENDBRANCH  14  17
ENDBRANCH  13  14
ENDBRANCH   9  13
ENDBRANCH   1   7
BRANCH   6  19
HETATM   19  N   UNL     1     -40.884 -48.084  11.282  1.00  0.00    -0.297 N 
HETATM   20  C   UNL     1     -41.708 -47.182  11.894  1.00  0.00     0.112 A 
HETATM   21  C   UNL     1     -42.766 -46.989  11.037  1.00  0.00     0.037 A 
HETATM   22  C   UNL     1     -42.494 -47.822   9.938  1.00  0.00     0.108 A 
HETATM   23  N   UNL     1     -41.349 -48.494  10.080  1.00  0.00    -0.310 N 
ATOM     24  HN  UNL     1     -40.925 -49.160   9.434  1.00  0.00     0.186 HD
ENDBRANCH   6  19
TORSDOF 5
ENDMDL
MODEL 5
REMARK VINA RESULT:      -5.2      2.682      6.164
REMARK  5 active torsions:
REMARK  status: ('A' for Active; 'I' for Inactive)
REMARK    1  A    between atoms: C_2  and  O_4 
REMARK    2  A    between atoms: C_2  and  C_5 
REMARK    3  A    between atoms: C_5  and  N_6 
REMARK       I    between atoms: N_6  and  C_7 
REMARK       I    between atoms: C_7  and  N_9 
REMARK    4  A    between atoms: N_9  and  C_10 
REMARK    5  A    between atoms: C_15  and  N_16 
ROOT
HETATM    1  C   UNL     1     -40.777 -47.303  12.316  1.00  0.00     0.111 C 
HETATM    2  C   UNL     1     -40.013 -46.593  13.448  1.00  0.00     0.027 C 
HETATM    3  C   UNL     1     -40.889 -46.389  14.684  1.00  0.00     0.002 C 
HETATM    4  C   UNL     1     -42.176 -45.636  14.354  1.00  0.00     0.002 C 
HETATM    5  C   UNL     1     -42.933 -46.249  13.175  1.00  0.00     0.029 C 
HETATM    6  C   UNL     1     -42.015 -46.441  11.955  1.00  0.00     0.130 C 
ENDROOT
BRANCH   1   7
HETATM    7  N   UNL     1     -41.174 -48.663  12.695  1.00  0.00    -0.336 N 
HETATM    8  C   UNL     1     -41.081 -49.733  11.848  1.00  0.00     0.316 C 
HETATM    9  N   UNL     1     -41.578 -50.862  12.438  1.00  0.00    -0.340 N 
HETATM   10  O   UNL     1     -40.611 -49.688  10.719  1.00  0.00    -0.247 OA
HETATM   11  H   UNL     1     -41.579 -50.865  13.449  1.00  0.00     0.164 HD
HETATM   12  H   UNL     1     -42.005 -48.703  13.286  1.00  0.00     0.164 HD
BRANCH   9  13
HETATM   13  C   UNL     1     -41.447 -52.160  11.805  1.00  0.00     0.161 C 
BRANCH  13  14
HETATM   14  C   UNL     1     -41.137 -53.280  12.818  1.00  0.00     0.066 C 
HETATM   15  C   UNL     1     -42.428 -53.695  13.528  1.00  0.00     0.047 C 
HETATM   16  C   UNL     1     -40.085 -52.841  13.841  1.00  0.00     0.047 C 
BRANCH  14  17
HETATM   17  O   UNL     1     -40.631 -54.421  12.107  1.00  0.00    -0.389 OA
HETATM   18  H   UNL     1     -40.647 -55.178  12.719  1.00  0.00     0.210 HD
ENDBRANCH  14  17
ENDBRANCH  13  14
ENDBRANCH   9  13
ENDBRANCH   1   7
BRANCH   6  19
HETATM   19  N   UNL     1     -42.738 -46.971  10.803  1.00  0.00    -0.297 N 
HETATM   20  C   UNL     1     -44.055 -47.334  10.760  1.00  0.00     0.112 A 
HETATM   21  C   UNL     1     -44.299 -47.736   9.468  1.00  0.00     0.037 A 
HETATM   22  C   UNL     1     -43.068 -47.585   8.807  1.00  0.00     0.108 A 
HETATM   23  N   UNL     1     -42.110 -47.121   9.614  1.00  0.00    -0.310 N 
ATOM     24  HN  UNL     1     -41.135 -46.926   9.387  1.00  0.00     0.186 HD
ENDBRANCH   6  19
TORSDOF 5
ENDMDL
MODEL 6
REMARK VINA RESULT:      -5.1      3.190      5.020
REMARK  5 active torsions:
REMARK  status: ('A' for Active; 'I' for Inactive)
REMARK    1  A    between atoms: C_2  and  O_4 
REMARK    2  A    between atoms: C_2  and  C_5 
REMARK    3  A    between atoms: C_5  and  N_6 
REMARK       I    between atoms: N_6  and  C_7 
REMARK       I    between atoms: C_7  and  N_9 
REMARK    4  A    between atoms: N_9  and  C_10 
REMARK    5  A    between atoms: C_15  and  N_16 
ROOT
HETATM    1  C   UNL     1     -44.965 -51.471  13.185  1.00  0.00     0.111 C 
HETATM    2  C   UNL     1     -46.484 -51.488  13.435  1.00  0.00     0.027 C 
HETATM    3  C   UNL     1     -46.826 -52.063  14.809  1.00  0.00     0.002 C 
HETATM    4  C   UNL     1     -46.237 -53.457  15.008  1.00  0.00     0.002 C 
HETATM    5  C   UNL     1     -44.743 -53.517  14.686  1.00  0.00     0.029 C 
HETATM    6  C   UNL     1     -44.441 -52.926  13.299  1.00  0.00     0.130 C 
ENDROOT
BRANCH   1   7
HETATM    7  N   UNL     1     -44.268 -50.584  14.121  1.00  0.00    -0.336 N 
HETATM    8  C   UNL     1     -43.355 -49.646  13.724  1.00  0.00     0.316 C 
HETATM    9  N   UNL     1     -42.816 -49.007  14.807  1.00  0.00    -0.340 N 
HETATM   10  O   UNL     1     -43.067 -49.404  12.560  1.00  0.00    -0.247 OA
HETATM   11  H   UNL     1     -43.379 -49.014  15.646  1.00  0.00     0.164 HD
HETATM   12  H   UNL     1     -44.011 -51.030  15.002  1.00  0.00     0.164 HD
BRANCH   9  13
HETATM   13  C   UNL     1     -41.942 -47.862  14.644  1.00  0.00     0.161 C 
BRANCH  13  14
HETATM   14  C   UNL     1     -40.452 -48.258  14.611  1.00  0.00     0.066 C 
HETATM   15  C   UNL     1     -40.208 -49.402  15.598  1.00  0.00     0.047 C 
HETATM   16  C   UNL     1     -39.544 -47.070  14.941  1.00  0.00     0.047 C 
BRANCH  14  17
HETATM   17  O   UNL     1     -40.126 -48.726  13.293  1.00  0.00    -0.389 OA
HETATM   18  H   UNL     1     -39.749 -47.975  12.800  1.00  0.00     0.210 HD
ENDBRANCH  14  17
ENDBRANCH  13  14
ENDBRANCH   9  13
ENDBRANCH   1   7
BRANCH   6  19
HETATM   19  N   UNL     1     -43.027 -53.030  12.953  1.00  0.00    -0.297 N 
HETATM   20  C   UNL     1     -42.059 -53.690  13.658  1.00  0.00     0.112 A 
HETATM   21  C   UNL     1     -40.898 -53.549  12.937  1.00  0.00     0.037 A 
HETATM   22  C   UNL     1     -41.262 -52.785  11.816  1.00  0.00     0.108 A 
HETATM   23  N   UNL     1     -42.558 -52.463  11.818  1.00  0.00    -0.310 N 
ATOM     24  HN  UNL     1     -43.073 -51.917  11.127  1.00  0.00     0.186 HD
ENDBRANCH   6  19
TORSDOF 5
ENDMDL
MODEL 7
REMARK VINA RESULT:      -5.1      2.881      6.302
REMARK  5 active torsions:
REMARK  status: ('A' for Active; 'I' for Inactive)
REMARK    1  A    between atoms: C_2  and  O_4 
REMARK    2  A    between atoms: C_2  and  C_5 
REMARK    3  A    between atoms: C_5  and  N_6 
REMARK       I    between atoms: N_6  and  C_7 
REMARK       I    between atoms: C_7  and  N_9 
REMARK    4  A    between atoms: N_9  and  C_10 
REMARK    5  A    between atoms: C_15  and  N_16 
ROOT
HETATM    1  C   UNL     1     -41.349 -47.897  13.284  1.00  0.00     0.111 C 
HETATM    2  C   UNL     1     -42.234 -46.644  13.406  1.00  0.00     0.027 C 
HETATM    3  C   UNL     1     -42.667 -46.119  12.037  1.00  0.00     0.002 C 
HETATM    4  C   UNL     1     -41.472 -45.843  11.128  1.00  0.00     0.002 C 
HETATM    5  C   UNL     1     -40.509 -47.028  11.041  1.00  0.00     0.029 C 
HETATM    6  C   UNL     1     -40.103 -47.527  12.438  1.00  0.00     0.130 C 
ENDROOT
BRANCH   1   7
HETATM    7  N   UNL     1     -42.076 -49.023  12.688  1.00  0.00    -0.336 N 
HETATM    8  C   UNL     1     -42.113 -50.270  13.250  1.00  0.00     0.316 C 
HETATM    9  N   UNL     1     -42.806 -51.139  12.452  1.00  0.00    -0.340 N 
HETATM   10  O   UNL     1     -41.603 -50.566  14.322  1.00  0.00    -0.247 OA
HETATM   11  H   UNL     1     -43.475 -50.718  11.822  1.00  0.00     0.164 HD
HETATM   12  H   UNL     1     -42.029 -49.054  11.670  1.00  0.00     0.164 HD
BRANCH   9  13
HETATM   13  C   UNL     1     -43.122 -52.480  12.902  1.00  0.00     0.161 C 
BRANCH  13  14
HETATM   14  C   UNL     1     -44.640 -52.706  13.058  1.00  0.00     0.066 C 
HETATM   15  C   UNL     1     -45.243 -51.559  13.873  1.00  0.00     0.047 C 
HETATM   16  C   UNL     1     -44.944 -54.050  13.727  1.00  0.00     0.047 C 
BRANCH  14  17
HETATM   17  O   UNL     1     -45.247 -52.698  11.757  1.00  0.00    -0.389 OA
HETATM   18  H   UNL     1     -46.194 -52.888  11.874  1.00  0.00     0.210 HD
ENDBRANCH  14  17
ENDBRANCH  13  14
ENDBRANCH   9  13
ENDBRANCH   1   7
BRANCH   6  19
HETATM   19  N   UNL     1     -39.138 -48.621  12.371  1.00  0.00    -0.297 N 
HETATM   20  C   UNL     1     -38.446 -49.164  13.416  1.00  0.00     0.112 A 
HETATM   21  C   UNL     1     -37.692 -50.185  12.887  1.00  0.00     0.037 A 
HETATM   22  C   UNL     1     -37.992 -50.176  11.513  1.00  0.00     0.108 A 
HETATM   23  N   UNL     1     -38.872 -49.225  11.190  1.00  0.00    -0.310 N 
ATOM     24  HN  UNL     1     -39.253 -49.005  10.270  1.00  0.00     0.186 HD
ENDBRANCH   6  19
TORSDOF 5
ENDMDL
MODEL 8
REMARK VINA RESULT:      -5.0      3.745      5.938
REMARK  5 active torsions:
REMARK  status: ('A' for Active; 'I' for Inactive)
REMARK    1  A    between atoms: C_2  and  O_4 
REMARK    2  A    between atoms: C_2  and  C_5 
REMARK    3  A    between atoms: C_5  and  N_6 
REMARK       I    between atoms: N_6  and  C_7 
REMARK       I    between atoms: C_7  and  N_9 
REMARK    4  A    between atoms: N_9  and  C_10 
REMARK    5  A    between atoms: C_15  and  N_16 
ROOT
HETATM    1  C   UNL     1     -39.816 -53.176  14.130  1.00  0.00     0.111 C 
HETATM    2  C   UNL     1     -39.119 -54.186  15.060  1.00  0.00     0.027 C 
HETATM    3  C   UNL     1     -39.092 -53.699  16.508  1.00  0.00     0.002 C 
HETATM    4  C   UNL     1     -38.445 -52.321  16.635  1.00  0.00     0.002 C 
HETATM    5  C   UNL     1     -39.041 -51.298  15.667  1.00  0.00     0.029 C 
HETATM    6  C   UNL     1     -39.053 -51.829  14.224  1.00  0.00     0.130 C 
ENDROOT
BRANCH   1   7
HETATM    7  N   UNL     1     -41.232 -53.006  14.471  1.00  0.00    -0.336 N 
HETATM    8  C   UNL     1     -42.249 -53.551  13.736  1.00  0.00     0.316 C 
HETATM    9  N   UNL     1     -43.464 -53.180  14.243  1.00  0.00    -0.340 N 
HETATM   10  O   UNL     1     -42.094 -54.276  12.763  1.00  0.00    -0.247 OA
HETATM   11  H   UNL     1     -43.471 -52.917  15.219  1.00  0.00     0.164 HD
HETATM   12  H   UNL     1     -41.463 -52.080  14.833  1.00  0.00     0.164 HD
BRANCH   9  13
HETATM   13  C   UNL     1     -44.695 -53.755  13.738  1.00  0.00     0.161 C 
BRANCH  13  14
HETATM   14  C   UNL     1     -45.778 -52.689  13.476  1.00  0.00     0.066 C 
HETATM   15  C   UNL     1     -45.113 -51.326  13.276  1.00  0.00     0.047 C 
HETATM   16  C   UNL     1     -46.793 -52.622  14.621  1.00  0.00     0.047 C 
BRANCH  14  17
HETATM   17  O   UNL     1     -46.479 -53.027  12.268  1.00  0.00    -0.389 OA
HETATM   18  H   UNL     1     -47.027 -53.809  12.456  1.00  0.00     0.210 HD
ENDBRANCH  14  17
ENDBRANCH  13  14
ENDBRANCH   9  13
ENDBRANCH   1   7
BRANCH   6  19
HETATM   19  N   UNL     1     -39.565 -50.840  13.280  1.00  0.00    -0.297 N 
HETATM   20  C   UNL     1     -39.919 -49.549  13.559  1.00  0.00     0.112 A 
HETATM   21  C   UNL     1     -40.303 -48.991  12.363  1.00  0.00     0.037 A 
HETATM   22  C   UNL     1     -40.154 -50.023  11.421  1.00  0.00     0.108 A 
HETATM   23  N   UNL     1     -39.706 -51.154  11.971  1.00  0.00    -0.310 N 
ATOM     24  HN  UNL     1     -39.515 -52.045  11.513  1.00  0.00     0.186 HD
ENDBRANCH   6  19
TORSDOF 5
ENDMDL
MODEL 9
REMARK VINA RESULT:      -4.9      4.406      6.991
REMARK  5 active torsions:
REMARK  status: ('A' for Active; 'I' for Inactive)
REMARK    1  A    between atoms: C_2  and  O_4 
REMARK    2  A    between atoms: C_2  and  C_5 
REMARK    3  A    between atoms: C_5  and  N_6 
REMARK       I    between atoms: N_6  and  C_7 
REMARK       I    between atoms: C_7  and  N_9 
REMARK    4  A    between atoms: N_9  and  C_10 
REMARK    5  A    between atoms: C_15  and  N_16 
ROOT
HETATM    1  C   UNL     1     -42.351 -53.789  13.414  1.00  0.00     0.111 C 
HETATM    2  C   UNL     1     -40.925 -53.969  12.862  1.00  0.00     0.027 C 
HETATM    3  C   UNL     1     -40.054 -52.743  13.131  1.00  0.00     0.002 C 
HETATM    4  C   UNL     1     -40.682 -51.464  12.582  1.00  0.00     0.002 C 
HETATM    5  C   UNL     1     -42.133 -51.280  13.029  1.00  0.00     0.029 C 
HETATM    6  C   UNL     1     -42.973 -52.536  12.744  1.00  0.00     0.130 C 
ENDROOT
BRANCH   1   7
HETATM    7  N   UNL     1     -42.359 -53.665  14.875  1.00  0.00    -0.336 N 
HETATM    8  C   UNL     1     -43.166 -54.415  15.685  1.00  0.00     0.316 C 
HETATM    9  N   UNL     1     -43.014 -54.048  16.994  1.00  0.00    -0.340 N 
HETATM   10  O   UNL     1     -43.917 -55.299  15.294  1.00  0.00    -0.247 OA
HETATM   11  H   UNL     1     -42.136 -53.604  17.226  1.00  0.00     0.164 HD
HETATM   12  H   UNL     1     -42.250 -52.707  15.210  1.00  0.00     0.164 HD
BRANCH   9  13
HETATM   13  C   UNL     1     -43.641 -54.800  18.063  1.00  0.00     0.161 C 
BRANCH  13  14
HETATM   14  C   UNL     1     -45.026 -54.239  18.443  1.00  0.00     0.066 C 
HETATM   15  C   UNL     1     -44.985 -52.710  18.400  1.00  0.00     0.047 C 
HETATM   16  C   UNL     1     -45.470 -54.720  19.827  1.00  0.00     0.047 C 
BRANCH  14  17
HETATM   17  O   UNL     1     -45.990 -54.688  17.477  1.00  0.00    -0.389 OA
HETATM   18  H   UNL     1     -46.064 -53.997  16.794  1.00  0.00     0.210 HD
ENDBRANCH  14  17
ENDBRANCH  13  14
ENDBRANCH   9  13
ENDBRANCH   1   7
BRANCH   6  19
HETATM   19  N   UNL     1     -44.374 -52.354  13.112  1.00  0.00    -0.297 N 
HETATM   20  C   UNL     1     -44.957 -51.206  13.569  1.00  0.00     0.112 A 
HETATM   21  C   UNL     1     -46.289 -51.496  13.745  1.00  0.00     0.037 A 
HETATM   22  C   UNL     1     -46.413 -52.846  13.374  1.00  0.00     0.108 A 
HETATM   23  N   UNL     1     -45.251 -53.377  12.987  1.00  0.00    -0.310 N 
ATOM     24  HN  UNL     1     -45.067 -54.330  12.673  1.00  0.00     0.186 HD
ENDBRANCH   6  19
TORSDOF 5
ENDMDL
