MODEL 1
REMARK VINA RESULT:      -6.1      0.000      0.000
REMARK  5 active torsions:
REMARK  status: ('A' for Active; 'I' for Inactive)
REMARK       I    between atoms: C_2  and  N_4 
REMARK    1  A    between atoms: N_4  and  C_5 
REMARK    2  A    between atoms: C_5  and  C_6 
REMARK       I    between atoms: C_6  and  N_8 
REMARK    3  A    between atoms: N_8  and  C_9 
REMARK    4  A    between atoms: C_9  and  C_10 
REMARK    5  A    between atoms: C_16  and  N_17 
ROOT
HETATM    1  C   UNL     1     -43.561 -51.283  13.081  1.00  0.00    -0.002 A 
HETATM    2  C   UNL     1     -44.902 -51.714  13.124  1.00  0.00     0.013 A 
HETATM    3  C   UNL     1     -45.220 -53.053  12.951  1.00  0.00     0.018 A 
HETATM    4  C   UNL     1     -44.184 -53.923  12.699  1.00  0.00     0.089 A 
HETATM    5  N   UNL     1     -42.889 -53.552  12.670  1.00  0.00    -0.356 N 
ATOM      6  HN  UNL     1     -42.162 -54.242  12.483  1.00  0.00     0.166 HD
HETATM    7  C   UNL     1     -42.559 -52.252  12.891  1.00  0.00     0.090 A 
ENDROOT
BRANCH   1   8
HETATM    8  C   UNL     1     -43.293 -49.814  13.293  1.00  0.00     0.164 C 
BRANCH   8   9
HETATM    9  N   UNL     1     -43.577 -49.039  12.095  1.00  0.00    -0.355 N 
HETATM   10  C   UNL     1     -42.599 -48.285  11.476  1.00  0.00     0.235 C 
HETATM   11  O   UNL     1     -41.458 -48.170  11.913  1.00  0.00    -0.272 OA
HETATM   12  H   UNL     1     -44.542 -48.778  11.913  1.00  0.00     0.162 HD
BRANCH  10  13
HETATM   13  C   UNL     1     -43.056 -47.594  10.189  1.00  0.00     0.225 C 
BRANCH  13  14
HETATM   14  N   UNL     1     -44.443 -47.870   9.863  1.00  0.00    -0.353 N 
HETATM   15  C   UNL     1     -45.211 -46.945   9.200  1.00  0.00     0.213 C 
HETATM   16  C   UNL     1     -46.643 -47.364   9.014  1.00  0.00     0.117 C 
HETATM   17  O   UNL     1     -44.769 -45.872   8.805  1.00  0.00    -0.274 OA
HETATM   18  H   UNL     1     -44.818 -48.790  10.061  1.00  0.00     0.162 HD
ENDBRANCH  13  14
ENDBRANCH  10  13
ENDBRANCH   8   9
ENDBRANCH   1   8
BRANCH   7  19
HETATM   19  N   UNL     1     -41.207 -51.968  13.100  1.00  0.00    -0.265 NA
HETATM   20  C   UNL     1     -40.458 -53.071  13.750  1.00  0.00     0.123 C 
HETATM   21  C   UNL     1     -39.091 -52.542  14.216  1.00  0.00     0.182 C 
HETATM   22  O   UNL     1     -38.342 -51.957  13.136  1.00  0.00    -0.389 OA
HETATM   23  C   UNL     1     -39.101 -50.905  12.511  1.00  0.00     0.182 C 
HETATM   24  C   UNL     1     -40.437 -51.440  11.959  1.00  0.00     0.123 C 
ENDBRANCH   7  19
TORSDOF 5
ENDMDL
MODEL 2
REMARK VINA RESULT:      -5.9      2.586      5.946
REMARK  5 active torsions:
REMARK  status: ('A' for Active; 'I' for Inactive)
REMARK       I    between atoms: C_2  and  N_4 
REMARK    1  A    between atoms: N_4  and  C_5 
REMARK    2  A    between atoms: C_5  and  C_6 
REMARK       I    between atoms: C_6  and  N_8 
REMARK    3  A    between atoms: N_8  and  C_9 
REMARK    4  A    between atoms: C_9  and  C_10 
REMARK    5  A    between atoms: C_16  and  N_17 
ROOT
HETATM    1  C   UNL     1     -39.549 -50.294  12.921  1.00  0.00    -0.002 A 
HETATM    2  C   UNL     1     -38.362 -51.022  13.129  1.00  0.00     0.013 A 
HETATM    3  C   UNL     1     -37.261 -50.828  12.307  1.00  0.00     0.018 A 
HETATM    4  C   UNL     1     -37.394 -49.934  11.269  1.00  0.00     0.089 A 
HETATM    5  N   UNL     1     -38.506 -49.204  11.052  1.00  0.00    -0.356 N 
ATOM      6  HN  UNL     1     -38.546 -48.551  10.270  1.00  0.00     0.166 HD
HETATM    7  C   UNL     1     -39.573 -49.345  11.881  1.00  0.00     0.090 A 
ENDROOT
BRANCH   1   8
HETATM    8  C   UNL     1     -40.698 -50.547  13.865  1.00  0.00     0.164 C 
BRANCH   8   9
HETATM    9  N   UNL     1     -41.787 -51.251  13.206  1.00  0.00    -0.355 N 
HETATM   10  C   UNL     1     -41.854 -52.630  13.199  1.00  0.00     0.235 C 
HETATM   11  O   UNL     1     -40.988 -53.350  13.688  1.00  0.00    -0.272 OA
HETATM   12  H   UNL     1     -42.299 -50.763  12.476  1.00  0.00     0.162 HD
BRANCH  10  13
HETATM   13  C   UNL     1     -43.104 -53.197  12.523  1.00  0.00     0.225 C 
BRANCH  13  14
HETATM   14  N   UNL     1     -44.219 -52.268  12.527  1.00  0.00    -0.353 N 
HETATM   15  C   UNL     1     -45.505 -52.707  12.721  1.00  0.00     0.213 C 
HETATM   16  C   UNL     1     -46.541 -51.622  12.617  1.00  0.00     0.117 C 
HETATM   17  O   UNL     1     -45.782 -53.879  12.949  1.00  0.00    -0.274 OA
HETATM   18  H   UNL     1     -44.027 -51.275  12.464  1.00  0.00     0.162 HD
ENDBRANCH  13  14
ENDBRANCH  10  13
ENDBRANCH   8   9
ENDBRANCH   1   8
BRANCH   7  19
HETATM   19  N   UNL     1     -40.593 -48.397  11.769  1.00  0.00    -0.265 NA
HETATM   20  C   UNL     1     -40.113 -46.994  11.823  1.00  0.00     0.123 C 
HETATM   21  C   UNL     1     -41.319 -46.059  12.013  1.00  0.00     0.182 C 
HETATM   22  O   UNL     1     -42.311 -46.241  10.986  1.00  0.00    -0.389 OA
HETATM   23  C   UNL     1     -42.741 -47.615  10.943  1.00  0.00     0.182 C 
HETATM   24  C   UNL     1     -41.555 -48.558  10.665  1.00  0.00     0.123 C 
ENDBRANCH   7  19
TORSDOF 5
ENDMDL
MODEL 3
REMARK VINA RESULT:      -5.9      1.856      2.358
REMARK  5 active torsions:
REMARK  status: ('A' for Active; 'I' for Inactive)
REMARK       I    between atoms: C_2  and  N_4 
REMARK    1  A    between atoms: N_4  and  C_5 
REMARK    2  A    between atoms: C_5  and  C_6 
REMARK       I    between atoms: C_6  and  N_8 
REMARK    3  A    between atoms: N_8  and  C_9 
REMARK    4  A    between atoms: C_9  and  C_10 
REMARK    5  A    between atoms: C_16  and  N_17 
ROOT
HETATM    1  C   UNL     1     -44.117 -51.113  13.230  1.00  0.00    -0.002 A 
HETATM    2  C   UNL     1     -45.501 -51.366  13.286  1.00  0.00     0.013 A 
HETATM    3  C   UNL     1     -45.990 -52.657  13.148  1.00  0.00     0.018 A 
HETATM    4  C   UNL     1     -45.077 -53.660  12.917  1.00  0.00     0.089 A 
HETATM    5  N   UNL     1     -43.745 -53.460  12.878  1.00  0.00    -0.356 N 
ATOM      6  HN  UNL     1     -43.114 -54.243  12.708  1.00  0.00     0.166 HD
HETATM    7  C   UNL     1     -43.248 -52.209  13.065  1.00  0.00     0.090 A 
ENDROOT
BRANCH   1   8
HETATM    8  C   UNL     1     -43.659 -49.686  13.404  1.00  0.00     0.164 C 
BRANCH   8   9
HETATM    9  N   UNL     1     -43.246 -49.099  12.139  1.00  0.00    -0.355 N 
HETATM   10  C   UNL     1     -42.014 -48.493  11.995  1.00  0.00     0.235 C 
HETATM   11  O   UNL     1     -41.216 -48.357  12.919  1.00  0.00    -0.272 OA
HETATM   12  H   UNL     1     -43.970 -48.830  11.478  1.00  0.00     0.162 HD
BRANCH  10  13
HETATM   13  C   UNL     1     -41.718 -47.995  10.579  1.00  0.00     0.225 C 
BRANCH  13  14
HETATM   14  N   UNL     1     -40.625 -47.040  10.533  1.00  0.00    -0.353 N 
HETATM   15  C   UNL     1     -40.857 -45.710  10.289  1.00  0.00     0.213 C 
HETATM   16  C   UNL     1     -39.606 -44.880  10.199  1.00  0.00     0.117 C 
HETATM   17  O   UNL     1     -41.983 -45.244  10.149  1.00  0.00    -0.274 OA
HETATM   18  H   UNL     1     -39.690 -47.357  10.764  1.00  0.00     0.162 HD
ENDBRANCH  13  14
ENDBRANCH  10  13
ENDBRANCH   8   9
ENDBRANCH   1   8
BRANCH   7  19
HETATM   19  N   UNL     1     -41.870 -52.097  13.265  1.00  0.00    -0.265 NA
HETATM   20  C   UNL     1     -41.312 -53.135  14.165  1.00  0.00     0.123 C 
HETATM   21  C   UNL     1     -39.882 -52.734  14.566  1.00  0.00     0.182 C 
HETATM   22  O   UNL     1     -39.040 -52.518  13.418  1.00  0.00    -0.389 OA
HETATM   23  C   UNL     1     -39.618 -51.522  12.553  1.00  0.00     0.182 C 
HETATM   24  C   UNL     1     -41.017 -51.952  12.072  1.00  0.00     0.123 C 
ENDBRANCH   7  19
TORSDOF 5
ENDMDL
MODEL 4
REMARK VINA RESULT:      -5.9      4.080      6.283
REMARK  5 active torsions:
REMARK  status: ('A' for Active; 'I' for Inactive)
REMARK       I    between atoms: C_2  and  N_4 
REMARK    1  A    between atoms: N_4  and  C_5 
REMARK    2  A    between atoms: C_5  and  C_6 
REMARK       I    between atoms: C_6  and  N_8 
REMARK    3  A    between atoms: N_8  and  C_9 
REMARK    4  A    between atoms: C_9  and  C_10 
REMARK    5  A    between atoms: C_16  and  N_17 
ROOT
HETATM    1  C   UNL     1     -40.111 -44.503  11.625  1.00  0.00    -0.002 A 
HETATM    2  C   UNL     1     -40.261 -43.122  11.388  1.00  0.00     0.013 A 
HETATM    3  C   UNL     1     -40.485 -42.245  12.440  1.00  0.00     0.018 A 
HETATM    4  C   UNL     1     -40.592 -42.782  13.702  1.00  0.00     0.089 A 
HETATM    5  N   UNL     1     -40.434 -44.094  13.970  1.00  0.00    -0.356 N 
ATOM      6  HN  UNL     1     -40.519 -44.435  14.927  1.00  0.00     0.166 HD
HETATM    7  C   UNL     1     -40.162 -44.957  12.957  1.00  0.00     0.090 A 
ENDROOT
BRANCH   1   8
HETATM    8  C   UNL     1     -39.855 -45.392  10.434  1.00  0.00     0.164 C 
BRANCH   8   9
HETATM    9  N   UNL     1     -40.733 -46.552  10.433  1.00  0.00    -0.355 N 
HETATM   10  C   UNL     1     -42.048 -46.460  10.023  1.00  0.00     0.235 C 
HETATM   11  O   UNL     1     -42.579 -45.404   9.691  1.00  0.00    -0.272 OA
HETATM   12  H   UNL     1     -40.494 -47.332  11.040  1.00  0.00     0.162 HD
BRANCH  10  13
HETATM   13  C   UNL     1     -42.802 -47.791  10.019  1.00  0.00     0.225 C 
BRANCH  13  14
HETATM   14  N   UNL     1     -44.243 -47.624  10.018  1.00  0.00    -0.353 N 
HETATM   15  C   UNL     1     -44.968 -47.735   8.857  1.00  0.00     0.213 C 
HETATM   16  C   UNL     1     -46.435 -47.454   9.026  1.00  0.00     0.117 C 
HETATM   17  O   UNL     1     -44.460 -48.029   7.780  1.00  0.00    -0.274 OA
HETATM   18  H   UNL     1     -44.721 -47.500  10.903  1.00  0.00     0.162 HD
ENDBRANCH  13  14
ENDBRANCH  10  13
ENDBRANCH   8   9
ENDBRANCH   1   8
BRANCH   7  19
HETATM   19  N   UNL     1     -39.761 -46.247  13.313  1.00  0.00    -0.265 NA
HETATM   20  C   UNL     1     -38.521 -46.284  14.125  1.00  0.00     0.123 C 
HETATM   21  C   UNL     1     -38.003 -47.731  14.185  1.00  0.00     0.182 C 
HETATM   22  O   UNL     1     -38.998 -48.639  14.694  1.00  0.00    -0.389 OA
HETATM   23  C   UNL     1     -40.196 -48.566  13.899  1.00  0.00     0.182 C 
HETATM   24  C   UNL     1     -40.776 -47.138  13.902  1.00  0.00     0.123 C 
ENDBRANCH   7  19
TORSDOF 5
ENDMDL
MODEL 5
REMARK VINA RESULT:      -5.8      3.080      5.537
REMARK  5 active torsions:
REMARK  status: ('A' for Active; 'I' for Inactive)
REMARK       I    between atoms: C_2  and  N_4 
REMARK    1  A    between atoms: N_4  and  C_5 
REMARK    2  A    between atoms: C_5  and  C_6 
REMARK       I    between atoms: C_6  and  N_8 
REMARK    3  A    between atoms: N_8  and  C_9 
REMARK    4  A    between atoms: C_9  and  C_10 
REMARK    5  A    between atoms: C_16  and  N_17 
ROOT
HETATM    1  C   UNL     1     -41.818 -53.180  13.439  1.00  0.00    -0.002 A 
HETATM    2  C   UNL     1     -40.473 -53.401  13.083  1.00  0.00     0.013 A 
HETATM    3  C   UNL     1     -39.641 -54.155  13.898  1.00  0.00     0.018 A 
HETATM    4  C   UNL     1     -40.171 -54.637  15.073  1.00  0.00     0.089 A 
HETATM    5  N   UNL     1     -41.457 -54.464  15.437  1.00  0.00    -0.356 N 
ATOM      6  HN  UNL     1     -41.797 -54.849  16.318  1.00  0.00     0.166 HD
HETATM    7  C   UNL     1     -42.297 -53.773  14.623  1.00  0.00     0.090 A 
ENDROOT
BRANCH   1   8
HETATM    8  C   UNL     1     -42.665 -52.363  12.495  1.00  0.00     0.164 C 
BRANCH   8   9
HETATM    9  N   UNL     1     -41.862 -51.413  11.741  1.00  0.00    -0.355 N 
HETATM   10  C   UNL     1     -41.876 -50.065  12.035  1.00  0.00     0.235 C 
HETATM   11  O   UNL     1     -42.594 -49.570  12.899  1.00  0.00    -0.272 OA
HETATM   12  H   UNL     1     -41.565 -51.676  10.804  1.00  0.00     0.162 HD
BRANCH  10  13
HETATM   13  C   UNL     1     -40.917 -49.224  11.189  1.00  0.00     0.225 C 
BRANCH  13  14
HETATM   14  N   UNL     1     -39.643 -49.880  10.961  1.00  0.00    -0.353 N 
HETATM   15  C   UNL     1     -38.540 -49.565  11.716  1.00  0.00     0.213 C 
HETATM   16  C   UNL     1     -37.288 -50.282  11.293  1.00  0.00     0.117 C 
HETATM   17  O   UNL     1     -38.574 -48.765  12.644  1.00  0.00    -0.274 OA
HETATM   18  H   UNL     1     -39.595 -50.635  10.287  1.00  0.00     0.162 HD
ENDBRANCH  13  14
ENDBRANCH  10  13
ENDBRANCH   8   9
ENDBRANCH   1   8
BRANCH   7  19
HETATM   19  N   UNL     1     -43.661 -53.837  14.917  1.00  0.00    -0.265 NA
HETATM   20  C   UNL     1     -44.372 -54.933  14.215  1.00  0.00     0.123 C 
HETATM   21  C   UNL     1     -45.888 -54.717  14.354  1.00  0.00     0.182 C 
HETATM   22  O   UNL     1     -46.296 -54.616  15.731  1.00  0.00    -0.389 OA
HETATM   23  C   UNL     1     -45.574 -53.558  16.391  1.00  0.00     0.182 C 
HETATM   24  C   UNL     1     -44.055 -53.808  16.337  1.00  0.00     0.123 C 
ENDBRANCH   7  19
TORSDOF 5
ENDMDL
MODEL 6
REMARK VINA RESULT:      -5.7      1.679      1.912
REMARK  5 active torsions:
REMARK  status: ('A' for Active; 'I' for Inactive)
REMARK       I    between atoms: C_2  and  N_4 
REMARK    1  A    between atoms: N_4  and  C_5 
REMARK    2  A    between atoms: C_5  and  C_6 
REMARK       I    between atoms: C_6  and  N_8 
REMARK    3  A    between atoms: N_8  and  C_9 
REMARK    4  A    between atoms: C_9  and  C_10 
REMARK    5  A    between atoms: C_16  and  N_17 
ROOT
HETATM    1  C   UNL     1     -44.046 -51.478  13.419  1.00  0.00    -0.002 A 
HETATM    2  C   UNL     1     -45.401 -51.106  13.321  1.00  0.00     0.013 A 
HETATM    3  C   UNL     1     -46.406 -52.051  13.475  1.00  0.00     0.018 A 
HETATM    4  C   UNL     1     -46.023 -53.356  13.685  1.00  0.00     0.089 A 
HETATM    5  N   UNL     1     -44.738 -53.745  13.805  1.00  0.00    -0.356 N 
ATOM      6  HN  UNL     1     -44.513 -54.727  13.966  1.00  0.00     0.166 HD
HETATM    7  C   UNL     1     -43.746 -52.822  13.710  1.00  0.00     0.090 A 
ENDROOT
BRANCH   1   8
HETATM    8  C   UNL     1     -43.011 -50.393  13.256  1.00  0.00     0.164 C 
BRANCH   8   9
HETATM    9  N   UNL     1     -43.269 -49.579  12.078  1.00  0.00    -0.355 N 
HETATM   10  C   UNL     1     -42.375 -48.615  11.660  1.00  0.00     0.235 C 
HETATM   11  O   UNL     1     -41.345 -48.338  12.268  1.00  0.00    -0.272 OA
HETATM   12  H   UNL     1     -44.232 -49.477  11.770  1.00  0.00     0.162 HD
BRANCH  10  13
HETATM   13  C   UNL     1     -42.773 -47.906  10.363  1.00  0.00     0.225 C 
BRANCH  13  14
HETATM   14  N   UNL     1     -44.205 -47.699  10.251  1.00  0.00    -0.353 N 
HETATM   15  C   UNL     1     -44.814 -47.621   9.023  1.00  0.00     0.213 C 
HETATM   16  C   UNL     1     -46.288 -47.326   9.092  1.00  0.00     0.117 C 
HETATM   17  O   UNL     1     -44.209 -47.770   7.968  1.00  0.00    -0.274 OA
HETATM   18  H   UNL     1     -44.765 -47.691  11.095  1.00  0.00     0.162 HD
ENDBRANCH  13  14
ENDBRANCH  10  13
ENDBRANCH   8   9
ENDBRANCH   1   8
BRANCH   7  19
HETATM   19  N   UNL     1     -42.464 -53.228  14.089  1.00  0.00    -0.265 NA
HETATM   20  C   UNL     1     -42.430 -53.982  15.366  1.00  0.00     0.123 C 
HETATM   21  C   UNL     1     -40.972 -54.095  15.842  1.00  0.00     0.182 C 
HETATM   22  O   UNL     1     -40.124 -54.697  14.847  1.00  0.00    -0.389 OA
HETATM   23  C   UNL     1     -40.194 -53.957  13.614  1.00  0.00     0.182 C 
HETATM   24  C   UNL     1     -41.638 -53.912  13.078  1.00  0.00     0.123 C 
ENDBRANCH   7  19
TORSDOF 5
ENDMDL
MODEL 7
REMARK VINA RESULT:      -5.7      3.043      6.490
REMARK  5 active torsions:
REMARK  status: ('A' for Active; 'I' for Inactive)
REMARK       I    between atoms: C_2  and  N_4 
REMARK    1  A    between atoms: N_4  and  C_5 
REMARK    2  A    between atoms: C_5  and  C_6 
REMARK       I    between atoms: C_6  and  N_8 
REMARK    3  A    between atoms: N_8  and  C_9 
REMARK    4  A    between atoms: C_9  and  C_10 
REMARK    5  A    between atoms: C_16  and  N_17 
ROOT
HETATM    1  C   UNL     1     -42.287 -47.437  10.412  1.00  0.00    -0.002 A 
HETATM    2  C   UNL     1     -42.904 -47.834   9.210  1.00  0.00     0.013 A 
HETATM    3  C   UNL     1     -43.710 -46.952   8.505  1.00  0.00     0.018 A 
HETATM    4  C   UNL     1     -43.909 -45.703   9.046  1.00  0.00     0.089 A 
HETATM    5  N   UNL     1     -43.320 -45.281  10.183  1.00  0.00    -0.356 N 
ATOM      6  HN  UNL     1     -43.499 -44.341  10.535  1.00  0.00     0.166 HD
HETATM    7  C   UNL     1     -42.485 -46.116  10.855  1.00  0.00     0.090 A 
ENDROOT
BRANCH   1   8
HETATM    8  C   UNL     1     -41.412 -48.446  11.114  1.00  0.00     0.164 C 
BRANCH   8   9
HETATM    9  N   UNL     1     -42.145 -49.663  11.429  1.00  0.00    -0.355 N 
HETATM   10  C   UNL     1     -41.584 -50.662  12.198  1.00  0.00     0.235 C 
HETATM   11  O   UNL     1     -40.430 -50.626  12.616  1.00  0.00    -0.272 OA
HETATM   12  H   UNL     1     -42.914 -49.929  10.820  1.00  0.00     0.162 HD
BRANCH  10  13
HETATM   13  C   UNL     1     -42.522 -51.836  12.489  1.00  0.00     0.225 C 
BRANCH  13  14
HETATM   14  N   UNL     1     -43.865 -51.410  12.839  1.00  0.00    -0.353 N 
HETATM   15  C   UNL     1     -44.937 -52.256  12.690  1.00  0.00     0.213 C 
HETATM   16  C   UNL     1     -46.261 -51.627  13.025  1.00  0.00     0.117 C 
HETATM   17  O   UNL     1     -44.822 -53.416  12.310  1.00  0.00    -0.274 OA
HETATM   18  H   UNL     1     -43.993 -50.503  13.271  1.00  0.00     0.162 HD
ENDBRANCH  13  14
ENDBRANCH  10  13
ENDBRANCH   8   9
ENDBRANCH   1   8
BRANCH   7  19
HETATM   19  N   UNL     1     -41.711 -45.554  11.874  1.00  0.00    -0.265 NA
HETATM   20  C   UNL     1     -40.544 -44.783  11.381  1.00  0.00     0.123 C 
HETATM   21  C   UNL     1     -39.603 -44.489  12.561  1.00  0.00     0.182 C 
HETATM   22  O   UNL     1     -40.277 -43.805  13.632  1.00  0.00    -0.389 OA
HETATM   23  C   UNL     1     -41.416 -44.566  14.075  1.00  0.00     0.182 C 
HETATM   24  C   UNL     1     -42.413 -44.792  12.922  1.00  0.00     0.123 C 
ENDBRANCH   7  19
TORSDOF 5
ENDMDL
MODEL 8
REMARK VINA RESULT:      -5.7      2.276      4.146
REMARK  5 active torsions:
REMARK  status: ('A' for Active; 'I' for Inactive)
REMARK       I    between atoms: C_2  and  N_4 
REMARK    1  A    between atoms: N_4  and  C_5 
REMARK    2  A    between atoms: C_5  and  C_6 
REMARK       I    between atoms: C_6  and  N_8 
REMARK    3  A    between atoms: N_8  and  C_9 
REMARK    4  A    between atoms: C_9  and  C_10 
REMARK    5  A    between atoms: C_16  and  N_17 
ROOT
HETATM    1  C   UNL     1     -40.875 -52.489  13.360  1.00  0.00    -0.002 A 
HETATM    2  C   UNL     1     -39.552 -52.504  13.845  1.00  0.00     0.013 A 
HETATM    3  C   UNL     1     -39.293 -52.765  15.183  1.00  0.00     0.018 A 
HETATM    4  C   UNL     1     -40.373 -52.964  16.011  1.00  0.00     0.089 A 
HETATM    5  N   UNL     1     -41.651 -52.977  15.580  1.00  0.00    -0.356 N 
ATOM      6  HN  UNL     1     -42.412 -53.136  16.239  1.00  0.00     0.166 HD
HETATM    7  C   UNL     1     -41.916 -52.777  14.263  1.00  0.00     0.090 A 
ENDROOT
BRANCH   1   8
HETATM    8  C   UNL     1     -41.077 -52.213  11.891  1.00  0.00     0.164 C 
BRANCH   8   9
HETATM    9  N   UNL     1     -41.652 -50.896  11.667  1.00  0.00    -0.355 N 
HETATM   10  C   UNL     1     -40.857 -49.797  11.411  1.00  0.00     0.235 C 
HETATM   11  O   UNL     1     -39.630 -49.837  11.409  1.00  0.00    -0.272 OA
HETATM   12  H   UNL     1     -42.585 -50.714  12.029  1.00  0.00     0.162 HD
BRANCH  10  13
HETATM   13  C   UNL     1     -41.633 -48.509  11.129  1.00  0.00     0.225 C 
BRANCH  13  14
HETATM   14  N   UNL     1     -42.209 -48.477   9.797  1.00  0.00    -0.353 N 
HETATM   15  C   UNL     1     -43.039 -47.455   9.408  1.00  0.00     0.213 C 
HETATM   16  C   UNL     1     -43.606 -47.623   8.026  1.00  0.00     0.117 C 
HETATM   17  O   UNL     1     -43.299 -46.498  10.129  1.00  0.00    -0.274 OA
HETATM   18  H   UNL     1     -41.926 -49.182   9.126  1.00  0.00     0.162 HD
ENDBRANCH  13  14
ENDBRANCH  10  13
ENDBRANCH   8   9
ENDBRANCH   1   8
BRANCH   7  19
HETATM   19  N   UNL     1     -43.216 -53.048  13.829  1.00  0.00    -0.265 NA
HETATM   20  C   UNL     1     -43.757 -54.335  14.332  1.00  0.00     0.123 C 
HETATM   21  C   UNL     1     -45.036 -54.679  13.551  1.00  0.00     0.182 C 
HETATM   22  O   UNL     1     -46.015 -53.627  13.627  1.00  0.00    -0.389 OA
HETATM   23  C   UNL     1     -45.456 -52.387  13.154  1.00  0.00     0.182 C 
HETATM   24  C   UNL     1     -44.223 -51.983  13.985  1.00  0.00     0.123 C 
ENDBRANCH   7  19
TORSDOF 5
ENDMDL
MODEL 9
REMARK VINA RESULT:      -5.6      2.234      3.786
REMARK  5 active torsions:
REMARK  status: ('A' for Active; 'I' for Inactive)
REMARK       I    between atoms: C_2  and  N_4 
REMARK    1  A    between atoms: N_4  and  C_5 
REMARK    2  A    between atoms: C_5  and  C_6 
REMARK       I    between atoms: C_6  and  N_8 
REMARK    3  A    between atoms: N_8  and  C_9 
REMARK    4  A    between atoms: C_9  and  C_10 
REMARK    5  A    between atoms: C_16  and  N_17 
ROOT
HETATM    1  C   UNL     1     -40.045 -50.470  12.348  1.00  0.00    -0.002 A 
HETATM    2  C   UNL     1     -39.197 -49.733  11.498  1.00  0.00     0.013 A 
HETATM    3  C   UNL     1     -37.821 -49.901  11.556  1.00  0.00     0.018 A 
HETATM    4  C   UNL     1     -37.326 -50.777  12.494  1.00  0.00     0.089 A 
HETATM    5  N   UNL     1     -38.107 -51.514  13.309  1.00  0.00    -0.356 N 
ATOM      6  HN  UNL     1     -37.685 -52.153  13.983  1.00  0.00     0.166 HD
HETATM    7  C   UNL     1     -39.458 -51.400  13.228  1.00  0.00     0.090 A 
ENDROOT
BRANCH   1   8
HETATM    8  C   UNL     1     -41.531 -50.246  12.217  1.00  0.00     0.164 C 
BRANCH   8   9
HETATM    9  N   UNL     1     -41.838 -49.292  11.162  1.00  0.00    -0.355 N 
HETATM   10  C   UNL     1     -42.677 -48.219  11.383  1.00  0.00     0.235 C 
HETATM   11  O   UNL     1     -43.260 -48.025  12.447  1.00  0.00    -0.272 OA
HETATM   12  H   UNL     1     -41.721 -49.593  10.198  1.00  0.00     0.162 HD
BRANCH  10  13
HETATM   13  C   UNL     1     -42.830 -47.280  10.184  1.00  0.00     0.225 C 
BRANCH  13  14
HETATM   14  N   UNL     1     -44.192 -46.812  10.004  1.00  0.00    -0.353 N 
HETATM   15  C   UNL     1     -44.948 -47.230   8.938  1.00  0.00     0.213 C 
HETATM   16  C   UNL     1     -46.305 -46.586   8.864  1.00  0.00     0.117 C 
HETATM   17  O   UNL     1     -44.548 -48.047   8.116  1.00  0.00    -0.274 OA
HETATM   18  H   UNL     1     -44.607 -46.231  10.723  1.00  0.00     0.162 HD
ENDBRANCH  13  14
ENDBRANCH  10  13
ENDBRANCH   8   9
ENDBRANCH   1   8
BRANCH   7  19
HETATM   19  N   UNL     1     -40.218 -52.356  13.906  1.00  0.00    -0.265 NA
HETATM   20  C   UNL     1     -40.559 -53.542  13.082  1.00  0.00     0.123 C 
HETATM   21  C   UNL     1     -41.642 -54.360  13.805  1.00  0.00     0.182 C 
HETATM   22  O   UNL     1     -41.238 -54.735  15.135  1.00  0.00    -0.389 OA
HETATM   23  C   UNL     1     -40.894 -53.567  15.903  1.00  0.00     0.182 C 
HETATM   24  C   UNL     1     -39.747 -52.785  15.235  1.00  0.00     0.123 C 
ENDBRANCH   7  19
TORSDOF 5
ENDMDL
