MODEL 1
REMARK VINA RESULT:      -6.6      0.000      0.000
REMARK  3 active torsions:
REMARK  status: ('A' for Active; 'I' for Inactive)
REMARK    1  A    between atoms: C_6  and  N_7 
REMARK       I    between atoms: N_7  and  C_8 
REMARK       I    between atoms: C_8  and  N_10 
REMARK    2  A    between atoms: N_10  and  C_11 
REMARK    3  A    between atoms: N_14  and  C_17 
ROOT
HETATM    1  N   UNL     1     -42.437 -51.838  12.143  1.00  0.00    -0.304 N 
HETATM    2  C   UNL     1     -42.387 -50.556  12.627  1.00  0.00     0.321 C 
HETATM    3  O   UNL     1     -42.278 -50.278  13.813  1.00  0.00    -0.247 OA
HETATM    4  N   UNL     1     -42.490 -49.606  11.649  1.00  0.00    -0.338 N 
HETATM    5  H   UNL     1     -41.937 -52.024  11.278  1.00  0.00     0.171 HD
HETATM    6  H   UNL     1     -42.903 -49.898  10.774  1.00  0.00     0.164 HD
ENDROOT
BRANCH   4   7
HETATM    7  C   UNL     1     -42.437 -48.169  11.935  1.00  0.00     0.089 C 
HETATM    8  C   UNL     1     -43.432 -47.395  11.056  1.00  0.00     0.055 C 
HETATM    9  C   UNL     1     -42.793 -46.619   9.907  1.00  0.00     0.275 C 
HETATM   10  N   UNL     1     -41.636 -45.811  10.311  1.00  0.00     0.093 N 
HETATM   11  C   UNL     1     -40.593 -46.722  10.798  1.00  0.00     0.275 C 
HETATM   12  C   UNL     1     -41.012 -47.578  11.999  1.00  0.00     0.055 C 
BRANCH  10  13
HETATM   13  C   UNL     1     -41.945 -44.700  11.221  1.00  0.00     0.223 C 
HETATM   14  C   UNL     1     -42.999 -43.713  10.675  1.00  0.00     0.036 C 
HETATM   15  C   UNL     1     -42.585 -42.319  11.150  1.00  0.00     0.002 C 
HETATM   16  C   UNL     1     -41.374 -42.523  12.044  1.00  0.00     0.002 C 
HETATM   17  C   UNL     1     -40.740 -43.793  11.503  1.00  0.00     0.036 C 
ENDBRANCH  10  13
ENDBRANCH   4   7
BRANCH   1  18
HETATM   18  C   UNL     1     -42.680 -52.949  12.932  1.00  0.00     0.105 A 
HETATM   19  C   UNL     1     -41.770 -53.501  13.751  1.00  0.00     0.037 A 
HETATM   20  C   UNL     1     -42.091 -54.619  14.598  1.00  0.00     0.020 A 
HETATM   21  C   UNL     1     -43.342 -55.093  14.629  1.00  0.00     0.094 A 
HETATM   22  N   UNL     1     -44.328 -54.558  13.825  1.00  0.00    -0.327 N 
HETATM   23  C   UNL     1     -45.671 -55.102  13.885  1.00  0.00     0.159 C 
HETATM   24  C   UNL     1     -44.072 -53.537  12.903  1.00  0.00     0.274 A 
HETATM   25  O   UNL     1     -44.899 -53.097  12.102  1.00  0.00    -0.266 OA
ENDBRANCH   1  18
TORSDOF 3
ENDMDL
MODEL 2
REMARK VINA RESULT:      -6.3      2.037      2.965
REMARK  3 active torsions:
REMARK  status: ('A' for Active; 'I' for Inactive)
REMARK    1  A    between atoms: C_6  and  N_7 
REMARK       I    between atoms: N_7  and  C_8 
REMARK       I    between atoms: C_8  and  N_10 
REMARK    2  A    between atoms: N_10  and  C_11 
REMARK    3  A    between atoms: N_14  and  C_17 
ROOT
HETATM    1  N   UNL     1     -41.055 -50.988  11.278  1.00  0.00    -0.304 N 
HETATM    2  C   UNL     1     -41.281 -49.665  11.563  1.00  0.00     0.321 C 
HETATM    3  O   UNL     1     -41.481 -49.235  12.690  1.00  0.00    -0.247 OA
HETATM    4  N   UNL     1     -41.276 -48.866  10.454  1.00  0.00    -0.338 N 
HETATM    5  H   UNL     1     -40.351 -51.194  10.575  1.00  0.00     0.171 HD
HETATM    6  H   UNL     1     -41.439 -49.321   9.565  1.00  0.00     0.164 HD
ENDROOT
BRANCH   4   7
HETATM    7  C   UNL     1     -41.473 -47.415  10.525  1.00  0.00     0.089 C 
HETATM    8  C   UNL     1     -40.199 -46.711  11.019  1.00  0.00     0.055 C 
HETATM    9  C   UNL     1     -40.262 -46.225  12.465  1.00  0.00     0.275 C 
HETATM   10  N   UNL     1     -41.489 -45.484  12.786  1.00  0.00     0.093 N 
HETATM   11  C   UNL     1     -42.626 -46.398  12.628  1.00  0.00     0.275 C 
HETATM   12  C   UNL     1     -42.782 -46.975  11.216  1.00  0.00     0.055 C 
BRANCH  10  13
HETATM   13  C   UNL     1     -41.638 -44.202  12.086  1.00  0.00     0.223 C 
HETATM   14  C   UNL     1     -40.384 -43.303  12.143  1.00  0.00     0.036 C 
HETATM   15  C   UNL     1     -40.881 -41.859  12.246  1.00  0.00     0.002 C 
HETATM   16  C   UNL     1     -42.395 -41.929  12.139  1.00  0.00     0.002 C 
HETATM   17  C   UNL     1     -42.730 -43.306  12.685  1.00  0.00     0.036 C 
ENDBRANCH  10  13
ENDBRANCH   4   7
BRANCH   1  18
HETATM   18  C   UNL     1     -41.330 -52.021  12.156  1.00  0.00     0.105 A 
HETATM   19  C   UNL     1     -42.545 -52.574  12.309  1.00  0.00     0.037 A 
HETATM   20  C   UNL     1     -42.765 -53.688  13.191  1.00  0.00     0.020 A 
HETATM   21  C   UNL     1     -41.732 -54.243  13.835  1.00  0.00     0.094 A 
HETATM   22  N   UNL     1     -40.455 -53.734  13.706  1.00  0.00    -0.327 N 
HETATM   23  C   UNL     1     -39.362 -54.360  14.424  1.00  0.00     0.159 C 
HETATM   24  C   UNL     1     -40.176 -52.592  12.947  1.00  0.00     0.274 A 
HETATM   25  O   UNL     1     -39.071 -52.051  12.883  1.00  0.00    -0.266 OA
ENDBRANCH   1  18
TORSDOF 3
ENDMDL
MODEL 3
REMARK VINA RESULT:      -6.2      1.799      2.834
REMARK  3 active torsions:
REMARK  status: ('A' for Active; 'I' for Inactive)
REMARK    1  A    between atoms: C_6  and  N_7 
REMARK       I    between atoms: N_7  and  C_8 
REMARK       I    between atoms: C_8  and  N_10 
REMARK    2  A    between atoms: N_10  and  C_11 
REMARK    3  A    between atoms: N_14  and  C_17 
ROOT
HETATM    1  N   UNL     1     -41.744 -52.698  12.067  1.00  0.00    -0.304 N 
HETATM    2  C   UNL     1     -41.512 -51.354  12.209  1.00  0.00     0.321 C 
HETATM    3  O   UNL     1     -41.862 -50.699  13.180  1.00  0.00    -0.247 OA
HETATM    4  N   UNL     1     -40.857 -50.805  11.141  1.00  0.00    -0.338 N 
HETATM    5  H   UNL     1     -40.998 -53.254  11.659  1.00  0.00     0.171 HD
HETATM    6  H   UNL     1     -40.904 -51.314  10.269  1.00  0.00     0.164 HD
ENDROOT
BRANCH   4   7
HETATM    7  C   UNL     1     -40.484 -49.388  11.088  1.00  0.00     0.089 C 
HETATM    8  C   UNL     1     -39.434 -49.054  12.160  1.00  0.00     0.055 C 
HETATM    9  C   UNL     1     -39.977 -48.287  13.362  1.00  0.00     0.275 C 
HETATM   10  N   UNL     1     -40.812 -47.135  13.000  1.00  0.00     0.093 N 
HETATM   11  C   UNL     1     -41.994 -47.637  12.289  1.00  0.00     0.275 C 
HETATM   12  C   UNL     1     -41.676 -48.410  11.003  1.00  0.00     0.055 C 
BRANCH  10  13
HETATM   13  C   UNL     1     -40.103 -46.050  12.311  1.00  0.00     0.223 C 
HETATM   14  C   UNL     1     -39.157 -45.237  13.221  1.00  0.00     0.036 C 
HETATM   15  C   UNL     1     -39.229 -43.784  12.747  1.00  0.00     0.002 C 
HETATM   16  C   UNL     1     -40.121 -43.788  11.517  1.00  0.00     0.002 C 
HETATM   17  C   UNL     1     -41.042 -44.974  11.746  1.00  0.00     0.036 C 
ENDBRANCH  10  13
ENDBRANCH   4   7
BRANCH   1  18
HETATM   18  C   UNL     1     -42.654 -53.406  12.833  1.00  0.00     0.105 A 
HETATM   19  C   UNL     1     -43.953 -53.544  12.518  1.00  0.00     0.037 A 
HETATM   20  C   UNL     1     -44.845 -54.343  13.315  1.00  0.00     0.020 A 
HETATM   21  C   UNL     1     -44.372 -55.024  14.365  1.00  0.00     0.094 A 
HETATM   22  N   UNL     1     -43.044 -54.938  14.731  1.00  0.00    -0.327 N 
HETATM   23  C   UNL     1     -42.570 -55.688  15.878  1.00  0.00     0.159 C 
HETATM   24  C   UNL     1     -42.136 -54.106  14.067  1.00  0.00     0.274 A 
HETATM   25  O   UNL     1     -40.968 -53.928  14.419  1.00  0.00    -0.266 OA
ENDBRANCH   1  18
TORSDOF 3
ENDMDL
MODEL 4
REMARK VINA RESULT:      -5.9      1.989      9.077
REMARK  3 active torsions:
REMARK  status: ('A' for Active; 'I' for Inactive)
REMARK    1  A    between atoms: C_6  and  N_7 
REMARK       I    between atoms: N_7  and  C_8 
REMARK       I    between atoms: C_8  and  N_10 
REMARK    2  A    between atoms: N_10  and  C_11 
REMARK    3  A    between atoms: N_14  and  C_17 
ROOT
HETATM    1  N   UNL     1     -41.637 -49.220  10.791  1.00  0.00    -0.304 N 
HETATM    2  C   UNL     1     -41.936 -49.808  11.993  1.00  0.00     0.321 C 
HETATM    3  O   UNL     1     -42.776 -49.380  12.771  1.00  0.00    -0.247 OA
HETATM    4  N   UNL     1     -41.185 -50.921  12.251  1.00  0.00    -0.338 N 
HETATM    5  H   UNL     1     -41.464 -49.841  10.005  1.00  0.00     0.171 HD
HETATM    6  H   UNL     1     -40.315 -51.010  11.743  1.00  0.00     0.164 HD
ENDROOT
BRANCH   4   7
HETATM    7  C   UNL     1     -41.352 -51.722  13.467  1.00  0.00     0.089 C 
HETATM    8  C   UNL     1     -40.024 -52.370  13.888  1.00  0.00     0.055 C 
HETATM    9  C   UNL     1     -39.924 -53.863  13.592  1.00  0.00     0.275 C 
HETATM   10  N   UNL     1     -41.098 -54.631  14.026  1.00  0.00     0.093 N 
HETATM   11  C   UNL     1     -42.259 -54.155  13.263  1.00  0.00     0.275 C 
HETATM   12  C   UNL     1     -42.573 -52.667  13.453  1.00  0.00     0.055 C 
BRANCH  10  13
HETATM   13  C   UNL     1     -41.304 -54.678  15.479  1.00  0.00     0.223 C 
HETATM   14  C   UNL     1     -40.172 -55.385  16.254  1.00  0.00     0.036 C 
HETATM   15  C   UNL     1     -40.832 -56.137  17.411  1.00  0.00     0.002 C 
HETATM   16  C   UNL     1     -42.307 -55.775  17.359  1.00  0.00     0.002 C 
HETATM   17  C   UNL     1     -42.551 -55.474  15.891  1.00  0.00     0.036 C 
ENDBRANCH  10  13
ENDBRANCH   4   7
BRANCH   1  18
HETATM   18  C   UNL     1     -42.008 -47.931  10.451  1.00  0.00     0.105 A 
HETATM   19  C   UNL     1     -43.173 -47.617   9.860  1.00  0.00     0.037 A 
HETATM   20  C   UNL     1     -43.540 -46.254   9.584  1.00  0.00     0.020 A 
HETATM   21  C   UNL     1     -42.739 -45.256   9.976  1.00  0.00     0.094 A 
HETATM   22  N   UNL     1     -41.537 -45.511  10.605  1.00  0.00    -0.327 N 
HETATM   23  C   UNL     1     -40.695 -44.402  11.011  1.00  0.00     0.159 C 
HETATM   24  C   UNL     1     -41.064 -46.810  10.819  1.00  0.00     0.274 A 
HETATM   25  O   UNL     1     -39.957 -47.080  11.289  1.00  0.00    -0.266 OA
ENDBRANCH   1  18
TORSDOF 3
ENDMDL
MODEL 5
REMARK VINA RESULT:      -5.5      6.103      8.619
REMARK  3 active torsions:
REMARK  status: ('A' for Active; 'I' for Inactive)
REMARK    1  A    between atoms: C_6  and  N_7 
REMARK       I    between atoms: N_7  and  C_8 
REMARK       I    between atoms: C_8  and  N_10 
REMARK    2  A    between atoms: N_10  and  C_11 
REMARK    3  A    between atoms: N_14  and  C_17 
ROOT
HETATM    1  N   UNL     1     -39.315 -56.465  17.024  1.00  0.00    -0.304 N 
HETATM    2  C   UNL     1     -40.629 -56.076  16.952  1.00  0.00     0.321 C 
HETATM    3  O   UNL     1     -41.489 -56.430  17.746  1.00  0.00    -0.247 OA
HETATM    4  N   UNL     1     -40.892 -55.260  15.887  1.00  0.00    -0.338 N 
HETATM    5  H   UNL     1     -38.614 -55.761  16.810  1.00  0.00     0.171 HD
HETATM    6  H   UNL     1     -40.235 -55.289  15.119  1.00  0.00     0.164 HD
ENDROOT
BRANCH   4   7
HETATM    7  C   UNL     1     -42.224 -54.705  15.628  1.00  0.00     0.089 C 
HETATM    8  C   UNL     1     -42.457 -54.514  14.121  1.00  0.00     0.055 C 
HETATM    9  C   UNL     1     -42.377 -53.066  13.645  1.00  0.00     0.275 C 
HETATM   10  N   UNL     1     -43.152 -52.130  14.468  1.00  0.00     0.093 N 
HETATM   11  C   UNL     1     -42.579 -52.131  15.820  1.00  0.00     0.275 C 
HETATM   12  C   UNL     1     -42.602 -53.498  16.514  1.00  0.00     0.055 C 
BRANCH  10  13
HETATM   13  C   UNL     1     -44.607 -52.326  14.425  1.00  0.00     0.223 C 
HETATM   14  C   UNL     1     -45.214 -52.233  13.009  1.00  0.00     0.036 C 
HETATM   15  C   UNL     1     -46.582 -51.565  13.158  1.00  0.00     0.002 C 
HETATM   16  C   UNL     1     -46.797 -51.379  14.651  1.00  0.00     0.002 C 
HETATM   17  C   UNL     1     -45.388 -51.258  15.203  1.00  0.00     0.036 C 
ENDBRANCH  10  13
ENDBRANCH   4   7
BRANCH   1  18
HETATM   18  C   UNL     1     -38.868 -57.525  17.793  1.00  0.00     0.105 A 
HETATM   19  C   UNL     1     -39.395 -58.761  17.746  1.00  0.00     0.037 A 
HETATM   20  C   UNL     1     -38.854 -59.845  18.520  1.00  0.00     0.020 A 
HETATM   21  C   UNL     1     -37.758 -59.652  19.263  1.00  0.00     0.094 A 
HETATM   22  N   UNL     1     -37.158 -58.410  19.340  1.00  0.00    -0.327 N 
HETATM   23  C   UNL     1     -35.974 -58.240  20.160  1.00  0.00     0.159 C 
HETATM   24  C   UNL     1     -37.682 -57.284  18.697  1.00  0.00     0.274 A 
HETATM   25  O   UNL     1     -37.234 -56.142  18.816  1.00  0.00    -0.266 OA
ENDBRANCH   1  18
TORSDOF 3
ENDMDL
MODEL 6
REMARK VINA RESULT:      -5.5      6.220      8.512
REMARK  3 active torsions:
REMARK  status: ('A' for Active; 'I' for Inactive)
REMARK    1  A    between atoms: C_6  and  N_7 
REMARK       I    between atoms: N_7  and  C_8 
REMARK       I    between atoms: C_8  and  N_10 
REMARK    2  A    between atoms: N_10  and  C_11 
REMARK    3  A    between atoms: N_14  and  C_17 
ROOT
HETATM    1  N   UNL     1     -38.585 -55.709  16.049  1.00  0.00    -0.304 N 
HETATM    2  C   UNL     1     -39.646 -54.867  16.262  1.00  0.00     0.321 C 
HETATM    3  O   UNL     1     -39.863 -54.298  17.323  1.00  0.00    -0.247 OA
HETATM    4  N   UNL     1     -40.457 -54.733  15.170  1.00  0.00    -0.338 N 
HETATM    5  H   UNL     1     -38.121 -55.647  15.147  1.00  0.00     0.171 HD
HETATM    6  H   UNL     1     -40.407 -55.465  14.475  1.00  0.00     0.164 HD
ENDROOT
BRANCH   4   7
HETATM    7  C   UNL     1     -41.637 -53.863  15.164  1.00  0.00     0.089 C 
HETATM    8  C   UNL     1     -42.875 -54.611  15.681  1.00  0.00     0.055 C 
HETATM    9  C   UNL     1     -43.868 -55.022  14.597  1.00  0.00     0.275 C 
HETATM   10  N   UNL     1     -44.201 -53.941  13.661  1.00  0.00     0.093 N 
HETATM   11  C   UNL     1     -42.974 -53.563  12.949  1.00  0.00     0.275 C 
HETATM   12  C   UNL     1     -41.843 -53.067  13.857  1.00  0.00     0.055 C 
BRANCH  10  13
HETATM   13  C   UNL     1     -44.931 -52.813  14.253  1.00  0.00     0.223 C 
HETATM   14  C   UNL     1     -45.905 -53.216  15.381  1.00  0.00     0.036 C 
HETATM   15  C   UNL     1     -47.124 -52.298  15.260  1.00  0.00     0.002 C 
HETATM   16  C   UNL     1     -46.800 -51.317  14.146  1.00  0.00     0.002 C 
HETATM   17  C   UNL     1     -45.845 -52.089  13.254  1.00  0.00     0.036 C 
ENDBRANCH  10  13
ENDBRANCH   4   7
BRANCH   1  18
HETATM   18  C   UNL     1     -37.823 -56.259  17.065  1.00  0.00     0.105 A 
HETATM   19  C   UNL     1     -36.657 -55.744  17.491  1.00  0.00     0.037 A 
HETATM   20  C   UNL     1     -35.934 -56.318  18.593  1.00  0.00     0.020 A 
HETATM   21  C   UNL     1     -36.452 -57.353  19.264  1.00  0.00     0.094 A 
HETATM   22  N   UNL     1     -37.655 -57.917  18.888  1.00  0.00    -0.327 N 
HETATM   23  C   UNL     1     -38.181 -59.041  19.638  1.00  0.00     0.159 C 
HETATM   24  C   UNL     1     -38.369 -57.480  17.767  1.00  0.00     0.274 A 
HETATM   25  O   UNL     1     -39.395 -58.015  17.343  1.00  0.00    -0.266 OA
ENDBRANCH   1  18
TORSDOF 3
ENDMDL
MODEL 7
REMARK VINA RESULT:      -5.5     14.571     17.266
REMARK  3 active torsions:
REMARK  status: ('A' for Active; 'I' for Inactive)
REMARK    1  A    between atoms: C_6  and  N_7 
REMARK       I    between atoms: N_7  and  C_8 
REMARK       I    between atoms: C_8  and  N_10 
REMARK    2  A    between atoms: N_10  and  C_11 
REMARK    3  A    between atoms: N_14  and  C_17 
ROOT
HETATM    1  N   UNL     1     -45.923 -47.917  -1.362  1.00  0.00    -0.304 N 
HETATM    2  C   UNL     1     -46.763 -48.775  -2.024  1.00  0.00     0.321 C 
HETATM    3  O   UNL     1     -46.743 -48.953  -3.234  1.00  0.00    -0.247 OA
HETATM    4  N   UNL     1     -47.648 -49.409  -1.196  1.00  0.00    -0.338 N 
HETATM    5  H   UNL     1     -45.560 -48.227  -0.466  1.00  0.00     0.171 HD
HETATM    6  H   UNL     1     -47.823 -48.974  -0.301  1.00  0.00     0.164 HD
ENDROOT
BRANCH   4   7
HETATM    7  C   UNL     1     -48.623 -50.389  -1.685  1.00  0.00     0.089 C 
HETATM    8  C   UNL     1     -49.954 -50.266  -0.927  1.00  0.00     0.055 C 
HETATM    9  C   UNL     1     -50.204 -51.366   0.100  1.00  0.00     0.275 C 
HETATM   10  N   UNL     1     -49.960 -52.720  -0.413  1.00  0.00     0.093 N 
HETATM   11  C   UNL     1     -48.538 -52.824  -0.763  1.00  0.00     0.275 C 
HETATM   12  C   UNL     1     -48.075 -51.825  -1.830  1.00  0.00     0.055 C 
BRANCH  10  13
HETATM   13  C   UNL     1     -50.879 -53.155  -1.473  1.00  0.00     0.223 C 
HETATM   14  C   UNL     1     -52.320 -53.421  -0.987  1.00  0.00     0.036 C 
HETATM   15  C   UNL     1     -52.844 -54.612  -1.792  1.00  0.00     0.002 C 
HETATM   16  C   UNL     1     -51.756 -54.949  -2.798  1.00  0.00     0.002 C 
HETATM   17  C   UNL     1     -50.480 -54.492  -2.112  1.00  0.00     0.036 C 
ENDBRANCH  10  13
ENDBRANCH   4   7
BRANCH   1  18
HETATM   18  C   UNL     1     -45.178 -46.934  -1.989  1.00  0.00     0.105 A 
HETATM   19  C   UNL     1     -45.643 -45.704  -2.271  1.00  0.00     0.037 A 
HETATM   20  C   UNL     1     -44.808 -44.697  -2.868  1.00  0.00     0.020 A 
HETATM   21  C   UNL     1     -43.515 -44.954  -3.099  1.00  0.00     0.094 A 
HETATM   22  N   UNL     1     -42.972 -46.191  -2.816  1.00  0.00    -0.327 N 
HETATM   23  C   UNL     1     -41.567 -46.432  -3.083  1.00  0.00     0.159 C 
HETATM   24  C   UNL     1     -43.740 -47.253  -2.327  1.00  0.00     0.274 A 
HETATM   25  O   UNL     1     -43.317 -48.397  -2.151  1.00  0.00    -0.266 OA
ENDBRANCH   1  18
TORSDOF 3
ENDMDL
MODEL 8
REMARK VINA RESULT:      -5.4      5.526      9.321
REMARK  3 active torsions:
REMARK  status: ('A' for Active; 'I' for Inactive)
REMARK    1  A    between atoms: C_6  and  N_7 
REMARK       I    between atoms: N_7  and  C_8 
REMARK       I    between atoms: C_8  and  N_10 
REMARK    2  A    between atoms: N_10  and  C_11 
REMARK    3  A    between atoms: N_14  and  C_17 
ROOT
HETATM    1  N   UNL     1     -36.944 -50.097  15.569  1.00  0.00    -0.304 N 
HETATM    2  C   UNL     1     -38.298 -50.311  15.615  1.00  0.00     0.321 C 
HETATM    3  O   UNL     1     -39.061 -49.698  16.348  1.00  0.00    -0.247 OA
HETATM    4  N   UNL     1     -38.717 -51.298  14.767  1.00  0.00    -0.338 N 
HETATM    5  H   UNL     1     -36.505 -50.122  14.653  1.00  0.00     0.171 HD
HETATM    6  H   UNL     1     -38.018 -51.961  14.461  1.00  0.00     0.164 HD
ENDROOT
BRANCH   4   7
HETATM    7  C   UNL     1     -40.126 -51.679  14.633  1.00  0.00     0.089 C 
HETATM    8  C   UNL     1     -40.435 -52.944  15.451  1.00  0.00     0.055 C 
HETATM    9  C   UNL     1     -40.595 -54.213  14.619  1.00  0.00     0.275 C 
HETATM   10  N   UNL     1     -41.479 -54.051  13.458  1.00  0.00     0.093 N 
HETATM   11  C   UNL     1     -40.870 -53.065  12.557  1.00  0.00     0.275 C 
HETATM   12  C   UNL     1     -40.659 -51.682  13.184  1.00  0.00     0.055 C 
BRANCH  10  13
HETATM   13  C   UNL     1     -42.886 -53.788  13.784  1.00  0.00     0.223 C 
HETATM   14  C   UNL     1     -43.577 -54.927  14.563  1.00  0.00     0.036 C 
HETATM   15  C   UNL     1     -45.022 -54.992  14.063  1.00  0.00     0.002 C 
HETATM   16  C   UNL     1     -45.180 -53.835  13.091  1.00  0.00     0.002 C 
HETATM   17  C   UNL     1     -43.778 -53.631  12.544  1.00  0.00     0.036 C 
ENDBRANCH  10  13
ENDBRANCH   4   7
BRANCH   1  18
HETATM   18  C   UNL     1     -36.242 -49.404  16.539  1.00  0.00     0.105 A 
HETATM   19  C   UNL     1     -36.070 -48.071  16.533  1.00  0.00     0.037 A 
HETATM   20  C   UNL     1     -35.384 -47.391  17.598  1.00  0.00     0.020 A 
HETATM   21  C   UNL     1     -34.956 -48.079  18.662  1.00  0.00     0.094 A 
HETATM   22  N   UNL     1     -35.118 -49.448  18.738  1.00  0.00    -0.327 N 
HETATM   23  C   UNL     1     -34.636 -50.160  19.906  1.00  0.00     0.159 C 
HETATM   24  C   UNL     1     -35.684 -50.195  17.700  1.00  0.00     0.274 A 
HETATM   25  O   UNL     1     -35.761 -51.425  17.687  1.00  0.00    -0.266 OA
ENDBRANCH   1  18
TORSDOF 3
ENDMDL
MODEL 9
REMARK VINA RESULT:      -5.3     12.791     13.768
REMARK  3 active torsions:
REMARK  status: ('A' for Active; 'I' for Inactive)
REMARK    1  A    between atoms: C_6  and  N_7 
REMARK       I    between atoms: N_7  and  C_8 
REMARK       I    between atoms: C_8  and  N_10 
REMARK    2  A    between atoms: N_10  and  C_11 
REMARK    3  A    between atoms: N_14  and  C_17 
ROOT
HETATM    1  N   UNL     1     -50.305 -48.726  -0.095  1.00  0.00    -0.304 N 
HETATM    2  C   UNL     1     -50.354 -48.157   1.152  1.00  0.00     0.321 C 
HETATM    3  O   UNL     1     -50.355 -48.797   2.194  1.00  0.00    -0.247 OA
HETATM    4  N   UNL     1     -50.419 -46.792   1.119  1.00  0.00    -0.338 N 
HETATM    5  H   UNL     1     -49.727 -48.263  -0.791  1.00  0.00     0.171 HD
HETATM    6  H   UNL     1     -50.745 -46.373   0.259  1.00  0.00     0.164 HD
ENDROOT
BRANCH   4   7
HETATM    7  C   UNL     1     -50.455 -45.974   2.335  1.00  0.00     0.089 C 
HETATM    8  C   UNL     1     -51.727 -45.114   2.384  1.00  0.00     0.055 C 
HETATM    9  C   UNL     1     -51.507 -43.637   2.071  1.00  0.00     0.275 C 
HETATM   10  N   UNL     1     -50.383 -43.039   2.803  1.00  0.00     0.093 N 
HETATM   11  C   UNL     1     -49.153 -43.718   2.380  1.00  0.00     0.275 C 
HETATM   12  C   UNL     1     -49.140 -45.228   2.649  1.00  0.00     0.055 C 
BRANCH  10  13
HETATM   13  C   UNL     1     -50.565 -42.962   4.258  1.00  0.00     0.223 C 
HETATM   14  C   UNL     1     -51.650 -41.959   4.706  1.00  0.00     0.036 C 
HETATM   15  C   UNL     1     -51.154 -41.324   6.007  1.00  0.00     0.002 C 
HETATM   16  C   UNL     1     -49.857 -42.035   6.352  1.00  0.00     0.002 C 
HETATM   17  C   UNL     1     -49.315 -42.469   5.001  1.00  0.00     0.036 C 
ENDBRANCH  10  13
ENDBRANCH   4   7
BRANCH   1  18
HETATM   18  C   UNL     1     -50.561 -50.063  -0.341  1.00  0.00     0.105 A 
HETATM   19  C   UNL     1     -51.794 -50.574  -0.500  1.00  0.00     0.037 A 
HETATM   20  C   UNL     1     -52.004 -51.962  -0.816  1.00  0.00     0.020 A 
HETATM   21  C   UNL     1     -50.955 -52.765  -1.022  1.00  0.00     0.094 A 
HETATM   22  N   UNL     1     -49.662 -52.297  -0.892  1.00  0.00    -0.327 N 
HETATM   23  C   UNL     1     -48.550 -53.200  -1.120  1.00  0.00     0.159 C 
HETATM   24  C   UNL     1     -49.376 -50.988  -0.491  1.00  0.00     0.274 A 
HETATM   25  O   UNL     1     -48.241 -50.559  -0.271  1.00  0.00    -0.266 OA
ENDBRANCH   1  18
TORSDOF 3
ENDMDL
