MODEL 1
REMARK VINA RESULT:      -6.5      0.000      0.000
REMARK  8 active torsions:
REMARK  status: ('A' for Active; 'I' for Inactive)
REMARK    1  A    between atoms: C_6  and  O_7 
REMARK    2  A    between atoms: O_7  and  C_8 
REMARK    3  A    between atoms: C_8  and  C_9 
REMARK    4  A    between atoms: C_9  and  N_10 
REMARK    5  A    between atoms: C_11  and  C_12 
REMARK    6  A    between atoms: C_12  and  C_13 
REMARK    7  A    between atoms: C_13  and  N_14 
REMARK    8  A    between atoms: N_14  and  C_15 
ROOT
HETATM    1  N   UNL     1     -41.388 -47.840  11.419  1.00  0.00    -0.333 N 
HETATM    2  C   UNL     1     -41.874 -47.188  10.289  1.00  0.00     0.086 A 
HETATM    3  N   UNL     1     -41.392 -45.964  10.208  1.00  0.00    -0.344 N 
ATOM      4  HN  UNL     1     -41.585 -45.277   9.479  1.00  0.00     0.167 HD
HETATM    5  C   UNL     1     -40.584 -45.799  11.294  1.00  0.00     0.060 A 
HETATM    6  C   UNL     1     -39.841 -44.668  11.674  1.00  0.00     0.032 A 
HETATM    7  C   UNL     1     -39.068 -44.714  12.837  1.00  0.00     0.002 A 
HETATM    8  C   UNL     1     -39.047 -45.862  13.615  1.00  0.00     0.002 A 
HETATM    9  C   UNL     1     -39.800 -46.984  13.259  1.00  0.00     0.032 A 
HETATM   10  C   UNL     1     -40.559 -46.949  12.080  1.00  0.00     0.062 A 
ENDROOT
BRANCH   1  11
HETATM   11  C   UNL     1     -41.798 -49.174  11.846  1.00  0.00     0.157 C 
BRANCH  11  12
HETATM   12  C   UNL     1     -42.690 -49.270  13.084  1.00  0.00     0.196 C 
BRANCH  12  13
HETATM   13  O   UNL     1     -43.111 -50.622  13.275  1.00  0.00    -0.350 OA
BRANCH  13  14
HETATM   14  C   UNL     1     -44.321 -50.829  13.881  1.00  0.00     0.069 A 
HETATM   15  C   UNL     1     -45.332 -51.285  13.033  1.00  0.00     0.037 A 
HETATM   16  C   UNL     1     -46.588 -51.614  13.544  1.00  0.00     0.003 A 
HETATM   17  C   UNL     1     -46.837 -51.486  14.909  1.00  0.00     0.007 A 
HETATM   18  C   UNL     1     -45.847 -50.990  15.761  1.00  0.00    -0.059 A 
HETATM   19  C   UNL     1     -46.079 -50.848  17.236  1.00  0.00     0.048 C 
HETATM   20  C   UNL     1     -44.599 -50.632  15.232  1.00  0.00     0.043 A 
ENDBRANCH  13  14
ENDBRANCH  12  13
ENDBRANCH  11  12
ENDBRANCH   1  11
BRANCH   2  21
HETATM   21  C   UNL     1     -42.857 -47.758   9.309  1.00  0.00     0.096 C 
BRANCH  21  22
HETATM   22  C   UNL     1     -44.247 -47.129   9.476  1.00  0.00     0.129 C 
BRANCH  22  23
HETATM   23  N   UNL     1     -45.307 -48.114   9.667  1.00  0.00    -0.368 N 
HETATM   24  H   UNL     1     -45.265 -48.702  10.487  1.00  0.00     0.161 HD
BRANCH  23  25
HETATM   25  C   UNL     1     -46.436 -48.120   8.902  1.00  0.00     0.348 C 
HETATM   26  O   UNL     1     -47.289 -47.250   8.877  1.00  0.00    -0.284 OA
ENDBRANCH  23  25
ENDBRANCH  22  23
ENDBRANCH  21  22
ENDBRANCH   2  21
TORSDOF 8
ENDMDL
MODEL 2
REMARK VINA RESULT:      -6.4      2.426      3.351
REMARK  8 active torsions:
REMARK  status: ('A' for Active; 'I' for Inactive)
REMARK    1  A    between atoms: C_6  and  O_7 
REMARK    2  A    between atoms: O_7  and  C_8 
REMARK    3  A    between atoms: C_8  and  C_9 
REMARK    4  A    between atoms: C_9  and  N_10 
REMARK    5  A    between atoms: C_11  and  C_12 
REMARK    6  A    between atoms: C_12  and  C_13 
REMARK    7  A    between atoms: C_13  and  N_14 
REMARK    8  A    between atoms: N_14  and  C_15 
ROOT
HETATM    1  N   UNL     1     -40.718 -48.978  12.933  1.00  0.00    -0.333 N 
HETATM    2  C   UNL     1     -40.718 -48.134  11.826  1.00  0.00     0.086 A 
HETATM    3  N   UNL     1     -39.634 -48.313  11.098  1.00  0.00    -0.344 N 
ATOM      4  HN  UNL     1     -39.388 -47.826  10.237  1.00  0.00     0.167 HD
HETATM    5  C   UNL     1     -38.906 -49.279  11.728  1.00  0.00     0.060 A 
HETATM    6  C   UNL     1     -37.665 -49.825  11.360  1.00  0.00     0.032 A 
HETATM    7  C   UNL     1     -37.089 -50.820  12.155  1.00  0.00     0.002 A 
HETATM    8  C   UNL     1     -37.734 -51.253  13.304  1.00  0.00     0.002 A 
HETATM    9  C   UNL     1     -38.958 -50.700  13.692  1.00  0.00     0.032 A 
HETATM   10  C   UNL     1     -39.549 -49.718  12.883  1.00  0.00     0.062 A 
ENDROOT
BRANCH   1  11
HETATM   11  C   UNL     1     -41.731 -48.965  13.984  1.00  0.00     0.157 C 
BRANCH  11  12
HETATM   12  C   UNL     1     -42.139 -50.313  14.580  1.00  0.00     0.196 C 
BRANCH  12  13
HETATM   13  O   UNL     1     -43.175 -50.124  15.546  1.00  0.00    -0.350 OA
BRANCH  13  14
HETATM   14  C   UNL     1     -44.411 -50.635  15.257  1.00  0.00     0.069 A 
HETATM   15  C   UNL     1     -45.271 -50.748  16.351  1.00  0.00     0.037 A 
HETATM   16  C   UNL     1     -46.586 -51.177  16.176  1.00  0.00     0.003 A 
HETATM   17  C   UNL     1     -47.048 -51.497  14.900  1.00  0.00     0.007 A 
HETATM   18  C   UNL     1     -46.184 -51.429  13.802  1.00  0.00    -0.059 A 
HETATM   19  C   UNL     1     -46.650 -51.757  12.415  1.00  0.00     0.048 C 
HETATM   20  C   UNL     1     -44.855 -51.027  13.996  1.00  0.00     0.043 A 
ENDBRANCH  13  14
ENDBRANCH  12  13
ENDBRANCH  11  12
ENDBRANCH   1  11
BRANCH   2  21
HETATM   21  C   UNL     1     -41.769 -47.111  11.511  1.00  0.00     0.096 C 
BRANCH  21  22
HETATM   22  C   UNL     1     -42.950 -47.732  10.751  1.00  0.00     0.129 C 
BRANCH  22  23
HETATM   23  N   UNL     1     -42.641 -48.040   9.358  1.00  0.00    -0.368 N 
HETATM   24  H   UNL     1     -41.917 -48.717   9.171  1.00  0.00     0.161 HD
BRANCH  23  25
HETATM   25  C   UNL     1     -43.428 -47.608   8.331  1.00  0.00     0.348 C 
HETATM   26  O   UNL     1     -43.595 -48.178   7.266  1.00  0.00    -0.284 OA
ENDBRANCH  23  25
ENDBRANCH  22  23
ENDBRANCH  21  22
ENDBRANCH   2  21
TORSDOF 8
ENDMDL
MODEL 3
REMARK VINA RESULT:      -6.4      2.206      2.778
REMARK  8 active torsions:
REMARK  status: ('A' for Active; 'I' for Inactive)
REMARK    1  A    between atoms: C_6  and  O_7 
REMARK    2  A    between atoms: O_7  and  C_8 
REMARK    3  A    between atoms: C_8  and  C_9 
REMARK    4  A    between atoms: C_9  and  N_10 
REMARK    5  A    between atoms: C_11  and  C_12 
REMARK    6  A    between atoms: C_12  and  C_13 
REMARK    7  A    between atoms: C_13  and  N_14 
REMARK    8  A    between atoms: N_14  and  C_15 
ROOT
HETATM    1  N   UNL     1     -41.668 -47.362  11.660  1.00  0.00    -0.333 N 
HETATM    2  C   UNL     1     -41.955 -47.015  10.342  1.00  0.00     0.086 A 
HETATM    3  N   UNL     1     -41.345 -45.895  10.008  1.00  0.00    -0.344 N 
ATOM      4  HN  UNL     1     -41.384 -45.424   9.104  1.00  0.00     0.167 HD
HETATM    5  C   UNL     1     -40.652 -45.493  11.111  1.00  0.00     0.060 A 
HETATM    6  C   UNL     1     -39.845 -44.354  11.276  1.00  0.00     0.032 A 
HETATM    7  C   UNL     1     -39.216 -44.131  12.504  1.00  0.00     0.002 A 
HETATM    8  C   UNL     1     -39.400 -45.019  13.553  1.00  0.00     0.002 A 
HETATM    9  C   UNL     1     -40.219 -46.143  13.407  1.00  0.00     0.032 A 
HETATM   10  C   UNL     1     -40.832 -46.382  12.168  1.00  0.00     0.062 A 
ENDROOT
BRANCH   1  11
HETATM   11  C   UNL     1     -42.257 -48.497  12.364  1.00  0.00     0.157 C 
BRANCH  11  12
HETATM   12  C   UNL     1     -41.322 -49.644  12.749  1.00  0.00     0.196 C 
BRANCH  12  13
HETATM   13  O   UNL     1     -41.481 -50.728  11.831  1.00  0.00    -0.350 OA
BRANCH  13  14
HETATM   14  C   UNL     1     -41.758 -51.963  12.352  1.00  0.00     0.069 A 
HETATM   15  C   UNL     1     -40.648 -52.665  12.825  1.00  0.00     0.037 A 
HETATM   16  C   UNL     1     -40.808 -53.899  13.455  1.00  0.00     0.003 A 
HETATM   17  C   UNL     1     -42.083 -54.438  13.614  1.00  0.00     0.007 A 
HETATM   18  C   UNL     1     -43.199 -53.765  13.106  1.00  0.00    -0.059 A 
HETATM   19  C   UNL     1     -44.586 -54.312  13.268  1.00  0.00     0.048 C 
HETATM   20  C   UNL     1     -43.023 -52.541  12.446  1.00  0.00     0.043 A 
ENDBRANCH  13  14
ENDBRANCH  12  13
ENDBRANCH  11  12
ENDBRANCH   1  11
BRANCH   2  21
HETATM   21  C   UNL     1     -42.874 -47.764   9.424  1.00  0.00     0.096 C 
BRANCH  21  22
HETATM   22  C   UNL     1     -44.110 -46.929   9.060  1.00  0.00     0.129 C 
BRANCH  22  23
HETATM   23  N   UNL     1     -45.076 -47.655   8.241  1.00  0.00    -0.368 N 
HETATM   24  H   UNL     1     -44.771 -48.002   7.344  1.00  0.00     0.161 HD
BRANCH  23  25
HETATM   25  C   UNL     1     -46.285 -48.052   8.731  1.00  0.00     0.348 C 
HETATM   26  O   UNL     1     -47.249 -47.333   8.932  1.00  0.00    -0.284 OA
ENDBRANCH  23  25
ENDBRANCH  22  23
ENDBRANCH  21  22
ENDBRANCH   2  21
TORSDOF 8
ENDMDL
MODEL 4
REMARK VINA RESULT:      -6.3      3.063      6.701
REMARK  8 active torsions:
REMARK  status: ('A' for Active; 'I' for Inactive)
REMARK    1  A    between atoms: C_6  and  O_7 
REMARK    2  A    between atoms: O_7  and  C_8 
REMARK    3  A    between atoms: C_8  and  C_9 
REMARK    4  A    between atoms: C_9  and  N_10 
REMARK    5  A    between atoms: C_11  and  C_12 
REMARK    6  A    between atoms: C_12  and  C_13 
REMARK    7  A    between atoms: C_13  and  N_14 
REMARK    8  A    between atoms: N_14  and  C_15 
ROOT
HETATM    1  N   UNL     1     -42.197 -51.840  12.654  1.00  0.00    -0.333 N 
HETATM    2  C   UNL     1     -42.323 -50.454  12.621  1.00  0.00     0.086 A 
HETATM    3  N   UNL     1     -43.573 -50.090  12.822  1.00  0.00    -0.344 N 
ATOM      4  HN  UNL     1     -43.937 -49.137  12.849  1.00  0.00     0.167 HD
HETATM    5  C   UNL     1     -44.285 -51.242  12.985  1.00  0.00     0.060 A 
HETATM    6  C   UNL     1     -45.662 -51.400  13.218  1.00  0.00     0.032 A 
HETATM    7  C   UNL     1     -46.191 -52.685  13.360  1.00  0.00     0.002 A 
HETATM    8  C   UNL     1     -45.364 -53.795  13.256  1.00  0.00     0.002 A 
HETATM    9  C   UNL     1     -43.998 -53.650  13.001  1.00  0.00     0.032 A 
HETATM   10  C   UNL     1     -43.460 -52.360  12.882  1.00  0.00     0.062 A 
ENDROOT
BRANCH   1  11
HETATM   11  C   UNL     1     -40.961 -52.566  12.378  1.00  0.00     0.157 C 
BRANCH  11  12
HETATM   12  C   UNL     1     -40.164 -53.074  13.581  1.00  0.00     0.196 C 
BRANCH  12  13
HETATM   13  O   UNL     1     -38.783 -52.744  13.423  1.00  0.00    -0.350 OA
BRANCH  13  14
HETATM   14  C   UNL     1     -38.421 -51.436  13.596  1.00  0.00     0.069 A 
HETATM   15  C   UNL     1     -37.810 -50.843  12.490  1.00  0.00     0.037 A 
HETATM   16  C   UNL     1     -37.469 -49.491  12.510  1.00  0.00     0.003 A 
HETATM   17  C   UNL     1     -37.738 -48.724  13.642  1.00  0.00     0.007 A 
HETATM   18  C   UNL     1     -38.310 -49.316  14.772  1.00  0.00    -0.059 A 
HETATM   19  C   UNL     1     -38.621 -48.518  16.003  1.00  0.00     0.048 C 
HETATM   20  C   UNL     1     -38.619 -50.683  14.752  1.00  0.00     0.043 A 
ENDBRANCH  13  14
ENDBRANCH  12  13
ENDBRANCH  11  12
ENDBRANCH   1  11
BRANCH   2  21
HETATM   21  C   UNL     1     -41.212 -49.484  12.341  1.00  0.00     0.096 C 
BRANCH  21  22
HETATM   22  C   UNL     1     -40.972 -49.324  10.833  1.00  0.00     0.129 C 
BRANCH  22  23
HETATM   23  N   UNL     1     -41.394 -48.025  10.317  1.00  0.00    -0.368 N 
HETATM   24  H   UNL     1     -40.679 -47.344  10.107  1.00  0.00     0.161 HD
BRANCH  23  25
HETATM   25  C   UNL     1     -42.676 -47.786   9.921  1.00  0.00     0.348 C 
HETATM   26  O   UNL     1     -43.655 -47.742  10.646  1.00  0.00    -0.284 OA
ENDBRANCH  23  25
ENDBRANCH  22  23
ENDBRANCH  21  22
ENDBRANCH   2  21
TORSDOF 8
ENDMDL
MODEL 5
REMARK VINA RESULT:      -6.3      2.435      3.206
REMARK  8 active torsions:
REMARK  status: ('A' for Active; 'I' for Inactive)
REMARK    1  A    between atoms: C_6  and  O_7 
REMARK    2  A    between atoms: O_7  and  C_8 
REMARK    3  A    between atoms: C_8  and  C_9 
REMARK    4  A    between atoms: C_9  and  N_10 
REMARK    5  A    between atoms: C_11  and  C_12 
REMARK    6  A    between atoms: C_12  and  C_13 
REMARK    7  A    between atoms: C_13  and  N_14 
REMARK    8  A    between atoms: N_14  and  C_15 
ROOT
HETATM    1  N   UNL     1     -40.711 -48.794  12.866  1.00  0.00    -0.333 N 
HETATM    2  C   UNL     1     -40.510 -48.082  11.687  1.00  0.00     0.086 A 
HETATM    3  N   UNL     1     -39.376 -48.433  11.113  1.00  0.00    -0.344 N 
ATOM      4  HN  UNL     1     -38.993 -48.068  10.241  1.00  0.00     0.167 HD
HETATM    5  C   UNL     1     -38.818 -49.382  11.919  1.00  0.00     0.060 A 
HETATM    6  C   UNL     1     -37.603 -50.069  11.756  1.00  0.00     0.032 A 
HETATM    7  C   UNL     1     -37.217 -51.015  12.710  1.00  0.00     0.002 A 
HETATM    8  C   UNL     1     -38.021 -51.259  13.814  1.00  0.00     0.002 A 
HETATM    9  C   UNL     1     -39.219 -50.564  13.997  1.00  0.00     0.032 A 
HETATM   10  C   UNL     1     -39.621 -49.632  13.029  1.00  0.00     0.062 A 
ENDROOT
BRANCH   1  11
HETATM   11  C   UNL     1     -41.825 -48.577  13.784  1.00  0.00     0.157 C 
BRANCH  11  12
HETATM   12  C   UNL     1     -43.178 -49.176  13.397  1.00  0.00     0.196 C 
BRANCH  12  13
HETATM   13  O   UNL     1     -43.022 -50.558  13.071  1.00  0.00    -0.350 OA
BRANCH  13  14
HETATM   14  C   UNL     1     -44.062 -51.399  13.361  1.00  0.00     0.069 A 
HETATM   15  C   UNL     1     -43.982 -52.660  12.769  1.00  0.00     0.037 A 
HETATM   16  C   UNL     1     -44.936 -53.637  13.051  1.00  0.00     0.003 A 
HETATM   17  C   UNL     1     -45.980 -53.353  13.931  1.00  0.00     0.007 A 
HETATM   18  C   UNL     1     -46.096 -52.080  14.497  1.00  0.00    -0.059 A 
HETATM   19  C   UNL     1     -47.201 -51.744  15.454  1.00  0.00     0.048 C 
HETATM   20  C   UNL     1     -45.149 -51.096  14.180  1.00  0.00     0.043 A 
ENDBRANCH  13  14
ENDBRANCH  12  13
ENDBRANCH  11  12
ENDBRANCH   1  11
BRANCH   2  21
HETATM   21  C   UNL     1     -41.416 -47.014  11.148  1.00  0.00     0.096 C 
BRANCH  21  22
HETATM   22  C   UNL     1     -42.344 -47.563  10.055  1.00  0.00     0.129 C 
BRANCH  22  23
HETATM   23  N   UNL     1     -42.662 -46.581   9.022  1.00  0.00    -0.368 N 
HETATM   24  H   UNL     1     -42.080 -46.556   8.198  1.00  0.00     0.161 HD
BRANCH  23  25
HETATM   25  C   UNL     1     -43.818 -45.860   9.042  1.00  0.00     0.348 C 
HETATM   26  O   UNL     1     -43.906 -44.644   9.066  1.00  0.00    -0.284 OA
ENDBRANCH  23  25
ENDBRANCH  22  23
ENDBRANCH  21  22
ENDBRANCH   2  21
TORSDOF 8
ENDMDL
MODEL 6
REMARK VINA RESULT:      -6.2      2.739      3.703
REMARK  8 active torsions:
REMARK  status: ('A' for Active; 'I' for Inactive)
REMARK    1  A    between atoms: C_6  and  O_7 
REMARK    2  A    between atoms: O_7  and  C_8 
REMARK    3  A    between atoms: C_8  and  C_9 
REMARK    4  A    between atoms: C_9  and  N_10 
REMARK    5  A    between atoms: C_11  and  C_12 
REMARK    6  A    between atoms: C_12  and  C_13 
REMARK    7  A    between atoms: C_13  and  N_14 
REMARK    8  A    between atoms: N_14  and  C_15 
ROOT
HETATM    1  N   UNL     1     -40.558 -48.556  13.146  1.00  0.00    -0.333 N 
HETATM    2  C   UNL     1     -40.599 -48.051  11.849  1.00  0.00     0.086 A 
HETATM    3  N   UNL     1     -39.623 -48.550  11.119  1.00  0.00    -0.344 N 
ATOM      4  HN  UNL     1     -39.428 -48.350  10.138  1.00  0.00     0.167 HD
HETATM    5  C   UNL     1     -38.925 -49.390  11.936  1.00  0.00     0.060 A 
HETATM    6  C   UNL     1     -37.788 -50.161  11.640  1.00  0.00     0.032 A 
HETATM    7  C   UNL     1     -37.226 -50.965  12.636  1.00  0.00     0.002 A 
HETATM    8  C   UNL     1     -37.778 -50.987  13.908  1.00  0.00     0.002 A 
HETATM    9  C   UNL     1     -38.895 -50.206  14.219  1.00  0.00     0.032 A 
HETATM   10  C   UNL     1     -39.476 -49.417  13.215  1.00  0.00     0.062 A 
ENDROOT
BRANCH   1  11
HETATM   11  C   UNL     1     -41.444 -48.135  14.227  1.00  0.00     0.157 C 
BRANCH  11  12
HETATM   12  C   UNL     1     -42.461 -49.157  14.737  1.00  0.00     0.196 C 
BRANCH  12  13
HETATM   13  O   UNL     1     -43.278 -49.609  13.655  1.00  0.00    -0.350 OA
BRANCH  13  14
HETATM   14  C   UNL     1     -43.332 -50.957  13.422  1.00  0.00     0.069 A 
HETATM   15  C   UNL     1     -44.608 -51.458  13.160  1.00  0.00     0.037 A 
HETATM   16  C   UNL     1     -44.786 -52.800  12.825  1.00  0.00     0.003 A 
HETATM   17  C   UNL     1     -43.682 -53.649  12.750  1.00  0.00     0.007 A 
HETATM   18  C   UNL     1     -42.404 -53.169  13.053  1.00  0.00    -0.059 A 
HETATM   19  C   UNL     1     -41.195 -54.053  12.974  1.00  0.00     0.048 C 
HETATM   20  C   UNL     1     -42.242 -51.826  13.420  1.00  0.00     0.043 A 
ENDBRANCH  13  14
ENDBRANCH  12  13
ENDBRANCH  11  12
ENDBRANCH   1  11
BRANCH   2  21
HETATM   21  C   UNL     1     -41.577 -47.033  11.342  1.00  0.00     0.096 C 
BRANCH  21  22
HETATM   22  C   UNL     1     -42.772 -47.698  10.644  1.00  0.00     0.129 C 
BRANCH  22  23
HETATM   23  N   UNL     1     -42.548 -47.938   9.221  1.00  0.00    -0.368 N 
HETATM   24  H   UNL     1     -41.738 -48.477   8.953  1.00  0.00     0.161 HD
BRANCH  23  25
HETATM   25  C   UNL     1     -43.492 -47.644   8.282  1.00  0.00     0.348 C 
HETATM   26  O   UNL     1     -43.646 -48.216   7.216  1.00  0.00    -0.284 OA
ENDBRANCH  23  25
ENDBRANCH  22  23
ENDBRANCH  21  22
ENDBRANCH   2  21
TORSDOF 8
ENDMDL
MODEL 7
REMARK VINA RESULT:      -6.2      3.451      4.316
REMARK  8 active torsions:
REMARK  status: ('A' for Active; 'I' for Inactive)
REMARK    1  A    between atoms: C_6  and  O_7 
REMARK    2  A    between atoms: O_7  and  C_8 
REMARK    3  A    between atoms: C_8  and  C_9 
REMARK    4  A    between atoms: C_9  and  N_10 
REMARK    5  A    between atoms: C_11  and  C_12 
REMARK    6  A    between atoms: C_12  and  C_13 
REMARK    7  A    between atoms: C_13  and  N_14 
REMARK    8  A    between atoms: N_14  and  C_15 
ROOT
HETATM    1  N   UNL     1     -41.266 -49.706  12.776  1.00  0.00    -0.333 N 
HETATM    2  C   UNL     1     -41.398 -48.928  11.629  1.00  0.00     0.086 A 
HETATM    3  N   UNL     1     -40.261 -48.871  10.966  1.00  0.00    -0.344 N 
ATOM      4  HN  UNL     1     -40.085 -48.372  10.094  1.00  0.00     0.167 HD
HETATM    5  C   UNL     1     -39.366 -49.613  11.679  1.00  0.00     0.060 A 
HETATM    6  C   UNL     1     -38.011 -49.861  11.401  1.00  0.00     0.032 A 
HETATM    7  C   UNL     1     -37.266 -50.661  12.273  1.00  0.00     0.002 A 
HETATM    8  C   UNL     1     -37.859 -51.191  13.409  1.00  0.00     0.002 A 
HETATM    9  C   UNL     1     -39.200 -50.931  13.708  1.00  0.00     0.032 A 
HETATM   10  C   UNL     1     -39.955 -50.148  12.822  1.00  0.00     0.062 A 
ENDROOT
BRANCH   1  11
HETATM   11  C   UNL     1     -42.316 -49.895  13.774  1.00  0.00     0.157 C 
BRANCH  11  12
HETATM   12  C   UNL     1     -43.320 -51.022  13.529  1.00  0.00     0.196 C 
BRANCH  12  13
HETATM   13  O   UNL     1     -43.191 -52.016  14.547  1.00  0.00    -0.350 OA
BRANCH  13  14
HETATM   14  C   UNL     1     -42.145 -52.893  14.447  1.00  0.00     0.069 A 
HETATM   15  C   UNL     1     -41.926 -53.404  13.166  1.00  0.00     0.037 A 
HETATM   16  C   UNL     1     -40.840 -54.242  12.915  1.00  0.00     0.003 A 
HETATM   17  C   UNL     1     -39.966 -54.574  13.949  1.00  0.00     0.007 A 
HETATM   18  C   UNL     1     -40.199 -54.104  15.245  1.00  0.00    -0.059 A 
HETATM   19  C   UNL     1     -39.274 -54.435  16.378  1.00  0.00     0.048 C 
HETATM   20  C   UNL     1     -41.312 -53.288  15.492  1.00  0.00     0.043 A 
ENDBRANCH  13  14
ENDBRANCH  12  13
ENDBRANCH  11  12
ENDBRANCH   1  11
BRANCH   2  21
HETATM   21  C   UNL     1     -42.639 -48.196  11.211  1.00  0.00     0.096 C 
BRANCH  21  22
HETATM   22  C   UNL     1     -42.385 -47.313   9.981  1.00  0.00     0.129 C 
BRANCH  22  23
HETATM   23  N   UNL     1     -42.716 -47.971   8.720  1.00  0.00    -0.368 N 
HETATM   24  H   UNL     1     -42.162 -48.768   8.443  1.00  0.00     0.161 HD
BRANCH  23  25
HETATM   25  C   UNL     1     -43.854 -47.679   8.030  1.00  0.00     0.348 C 
HETATM   26  O   UNL     1     -44.991 -47.956   8.371  1.00  0.00    -0.284 OA
ENDBRANCH  23  25
ENDBRANCH  22  23
ENDBRANCH  21  22
ENDBRANCH   2  21
TORSDOF 8
ENDMDL
MODEL 8
REMARK VINA RESULT:      -6.2      3.189      5.368
REMARK  8 active torsions:
REMARK  status: ('A' for Active; 'I' for Inactive)
REMARK    1  A    between atoms: C_6  and  O_7 
REMARK    2  A    between atoms: O_7  and  C_8 
REMARK    3  A    between atoms: C_8  and  C_9 
REMARK    4  A    between atoms: C_9  and  N_10 
REMARK    5  A    between atoms: C_11  and  C_12 
REMARK    6  A    between atoms: C_12  and  C_13 
REMARK    7  A    between atoms: C_13  and  N_14 
REMARK    8  A    between atoms: N_14  and  C_15 
ROOT
HETATM    1  N   UNL     1     -41.979 -48.386  11.831  1.00  0.00    -0.333 N 
HETATM    2  C   UNL     1     -40.732 -47.848  11.525  1.00  0.00     0.086 A 
HETATM    3  N   UNL     1     -40.815 -47.015  10.507  1.00  0.00    -0.344 N 
ATOM      4  HN  UNL     1     -40.053 -46.486  10.085  1.00  0.00     0.167 HD
HETATM    5  C   UNL     1     -42.127 -47.003  10.131  1.00  0.00     0.060 A 
HETATM    6  C   UNL     1     -42.735 -46.281   9.090  1.00  0.00     0.032 A 
HETATM    7  C   UNL     1     -44.110 -46.413   8.876  1.00  0.00     0.002 A 
HETATM    8  C   UNL     1     -44.861 -47.261   9.677  1.00  0.00     0.002 A 
HETATM    9  C   UNL     1     -44.262 -48.001  10.700  1.00  0.00     0.032 A 
HETATM   10  C   UNL     1     -42.886 -47.852  10.932  1.00  0.00     0.062 A 
ENDROOT
BRANCH   1  11
HETATM   11  C   UNL     1     -42.213 -49.409  12.846  1.00  0.00     0.157 C 
BRANCH  11  12
HETATM   12  C   UNL     1     -42.164 -50.869  12.394  1.00  0.00     0.196 C 
BRANCH  12  13
HETATM   13  O   UNL     1     -41.425 -51.645  13.339  1.00  0.00    -0.350 OA
BRANCH  13  14
HETATM   14  C   UNL     1     -41.993 -52.806  13.788  1.00  0.00     0.069 A 
HETATM   15  C   UNL     1     -41.210 -53.536  14.684  1.00  0.00     0.037 A 
HETATM   16  C   UNL     1     -41.710 -54.694  15.278  1.00  0.00     0.003 A 
HETATM   17  C   UNL     1     -42.999 -55.129  14.976  1.00  0.00     0.007 A 
HETATM   18  C   UNL     1     -43.777 -54.431  14.047  1.00  0.00    -0.059 A 
HETATM   19  C   UNL     1     -45.171 -54.866  13.706  1.00  0.00     0.048 C 
HETATM   20  C   UNL     1     -43.252 -53.286  13.432  1.00  0.00     0.043 A 
ENDBRANCH  13  14
ENDBRANCH  12  13
ENDBRANCH  11  12
ENDBRANCH   1  11
BRANCH   2  21
HETATM   21  C   UNL     1     -39.442 -48.195  12.209  1.00  0.00     0.096 C 
BRANCH  21  22
HETATM   22  C   UNL     1     -38.756 -49.396  11.542  1.00  0.00     0.129 C 
BRANCH  22  23
HETATM   23  N   UNL     1     -38.653 -50.560  12.416  1.00  0.00    -0.368 N 
HETATM   24  H   UNL     1     -39.491 -51.090  12.601  1.00  0.00     0.161 HD
BRANCH  23  25
HETATM   25  C   UNL     1     -37.448 -51.063  12.810  1.00  0.00     0.348 C 
HETATM   26  O   UNL     1     -36.777 -51.878  12.200  1.00  0.00    -0.284 OA
ENDBRANCH  23  25
ENDBRANCH  22  23
ENDBRANCH  21  22
ENDBRANCH   2  21
TORSDOF 8
ENDMDL
MODEL 9
REMARK VINA RESULT:      -6.1      3.814      8.264
REMARK  8 active torsions:
REMARK  status: ('A' for Active; 'I' for Inactive)
REMARK    1  A    between atoms: C_6  and  O_7 
REMARK    2  A    between atoms: O_7  and  C_8 
REMARK    3  A    between atoms: C_8  and  C_9 
REMARK    4  A    between atoms: C_9  and  N_10 
REMARK    5  A    between atoms: C_11  and  C_12 
REMARK    6  A    between atoms: C_12  and  C_13 
REMARK    7  A    between atoms: C_13  and  N_14 
REMARK    8  A    between atoms: N_14  and  C_15 
ROOT
HETATM    1  N   UNL     1     -41.360 -53.107  12.910  1.00  0.00    -0.333 N 
HETATM    2  C   UNL     1     -40.523 -53.532  13.938  1.00  0.00     0.086 A 
HETATM    3  N   UNL     1     -41.179 -54.287  14.796  1.00  0.00    -0.344 N 
ATOM      4  HN  UNL     1     -40.804 -54.729  15.635  1.00  0.00     0.167 HD
HETATM    5  C   UNL     1     -42.462 -54.360  14.338  1.00  0.00     0.060 A 
HETATM    6  C   UNL     1     -43.559 -55.038  14.898  1.00  0.00     0.032 A 
HETATM    7  C   UNL     1     -44.799 -54.984  14.256  1.00  0.00     0.002 A 
HETATM    8  C   UNL     1     -44.947 -54.255  13.086  1.00  0.00     0.002 A 
HETATM    9  C   UNL     1     -43.868 -53.558  12.533  1.00  0.00     0.032 A 
HETATM   10  C   UNL     1     -42.617 -53.630  13.162  1.00  0.00     0.062 A 
ENDROOT
BRANCH   1  11
HETATM   11  C   UNL     1     -40.965 -52.185  11.849  1.00  0.00     0.157 C 
BRANCH  11  12
HETATM   12  C   UNL     1     -41.257 -50.700  12.066  1.00  0.00     0.196 C 
BRANCH  12  13
HETATM   13  O   UNL     1     -40.567 -49.921  11.087  1.00  0.00    -0.350 OA
BRANCH  13  14
HETATM   14  C   UNL     1     -40.876 -48.590  11.004  1.00  0.00     0.069 A 
HETATM   15  C   UNL     1     -39.974 -47.736  11.642  1.00  0.00     0.037 A 
HETATM   16  C   UNL     1     -40.130 -46.353  11.559  1.00  0.00     0.003 A 
HETATM   17  C   UNL     1     -41.195 -45.817  10.836  1.00  0.00     0.007 A 
HETATM   18  C   UNL     1     -42.129 -46.661  10.229  1.00  0.00    -0.059 A 
HETATM   19  C   UNL     1     -43.280 -46.118   9.437  1.00  0.00     0.048 C 
HETATM   20  C   UNL     1     -41.980 -48.051  10.346  1.00  0.00     0.043 A 
ENDBRANCH  13  14
ENDBRANCH  12  13
ENDBRANCH  11  12
ENDBRANCH   1  11
BRANCH   2  21
HETATM   21  C   UNL     1     -39.081 -53.153  14.102  1.00  0.00     0.096 C 
BRANCH  21  22
HETATM   22  C   UNL     1     -38.932 -51.800  14.812  1.00  0.00     0.129 C 
BRANCH  22  23
HETATM   23  N   UNL     1     -38.200 -50.812  14.025  1.00  0.00    -0.368 N 
HETATM   24  H   UNL     1     -38.212 -49.853  14.338  1.00  0.00     0.161 HD
BRANCH  23  25
HETATM   25  C   UNL     1     -37.347 -51.174  13.024  1.00  0.00     0.348 C 
HETATM   26  O   UNL     1     -37.529 -51.006  11.831  1.00  0.00    -0.284 OA
ENDBRANCH  23  25
ENDBRANCH  22  23
ENDBRANCH  21  22
ENDBRANCH   2  21
TORSDOF 8
ENDMDL
