MODEL 1
REMARK VINA RESULT:      -6.6      0.000      0.000
REMARK  8 active torsions:
REMARK  status: ('A' for Active; 'I' for Inactive)
REMARK    1  A    between atoms: O_1  and  C_2 
REMARK    2  A    between atoms: C_2  and  C_3 
REMARK    3  A    between atoms: C_3  and  C_4 
REMARK    4  A    between atoms: C_4  and  C_5 
REMARK    5  A    between atoms: N_14  and  C_15 
REMARK    6  A    between atoms: C_15  and  C_16 
REMARK    7  A    between atoms: C_16  and  O_17 
REMARK    8  A    between atoms: C_16  and  C_18 
ROOT
HETATM    1  C   UNL     1     -39.415 -49.731  11.739  1.00  0.00     0.084 A 
HETATM    2  N   UNL     1     -39.585 -48.613  11.062  1.00  0.00    -0.344 N 
ATOM      3  HN  UNL     1     -38.878 -48.103  10.532  1.00  0.00     0.167 HD
HETATM    4  C   UNL     1     -40.901 -48.276  11.212  1.00  0.00     0.060 A 
HETATM    5  C   UNL     1     -41.592 -47.166  10.704  1.00  0.00     0.032 A 
HETATM    6  C   UNL     1     -42.954 -47.031  10.994  1.00  0.00     0.002 A 
HETATM    7  C   UNL     1     -43.613 -47.983  11.771  1.00  0.00     0.002 A 
HETATM    8  C   UNL     1     -42.938 -49.101  12.281  1.00  0.00     0.032 A 
HETATM    9  C   UNL     1     -41.574 -49.218  11.986  1.00  0.00     0.062 A 
HETATM   10  N   UNL     1     -40.605 -50.147  12.304  1.00  0.00    -0.332 N 
ENDROOT
BRANCH  10  11
HETATM   11  C   UNL     1     -40.825 -51.407  13.000  1.00  0.00     0.167 C 
BRANCH  11  12
HETATM   12  C   UNL     1     -41.556 -52.473  12.158  1.00  0.00     0.172 C 
BRANCH  12  13
HETATM   13  O   UNL     1     -40.606 -53.350  11.537  1.00  0.00    -0.389 OA
HETATM   14  H   UNL     1     -39.892 -52.804  11.170  1.00  0.00     0.210 HD
ENDBRANCH  12  13
BRANCH  12  15
HETATM   15  C   UNL     1     -42.565 -53.351  12.884  1.00  0.00     0.011 A 
HETATM   16  C   UNL     1     -43.916 -53.295  12.483  1.00  0.00     0.013 A 
HETATM   17  C   UNL     1     -44.896 -54.065  13.119  1.00  0.00     0.001 A 
HETATM   18  C   UNL     1     -44.550 -54.906  14.171  1.00  0.00     0.003 A 
HETATM   19  C   UNL     1     -43.223 -54.977  14.583  1.00  0.00     0.043 A 
HETATM   20  C   UNL     1     -42.249 -54.209  13.940  1.00  0.00     0.125 A 
HETATM   21  F   UNL     1     -40.987 -54.329  14.374  1.00  0.00    -0.205 F 
ENDBRANCH  12  15
ENDBRANCH  11  12
ENDBRANCH  10  11
BRANCH   1  22
HETATM   22  C   UNL     1     -38.112 -50.454  11.880  1.00  0.00     0.079 C 
BRANCH  22  23
HETATM   23  C   UNL     1     -37.035 -49.896  10.942  1.00  0.00     0.033 C 
BRANCH  23  24
HETATM   24  C   UNL     1     -36.617 -50.882   9.857  1.00  0.00     0.164 C 
BRANCH  24  25
HETATM   25  O   UNL     1     -36.605 -50.230   8.592  1.00  0.00    -0.401 OA
HETATM   26  H   UNL     1     -36.713 -49.280   8.775  1.00  0.00     0.209 HD
ENDBRANCH  24  25
ENDBRANCH  23  24
ENDBRANCH  22  23
ENDBRANCH   1  22
TORSDOF 8
ENDMDL
MODEL 2
REMARK VINA RESULT:      -6.5      2.983      5.601
REMARK  8 active torsions:
REMARK  status: ('A' for Active; 'I' for Inactive)
REMARK    1  A    between atoms: O_1  and  C_2 
REMARK    2  A    between atoms: C_2  and  C_3 
REMARK    3  A    between atoms: C_3  and  C_4 
REMARK    4  A    between atoms: C_4  and  C_5 
REMARK    5  A    between atoms: N_14  and  C_15 
REMARK    6  A    between atoms: C_15  and  C_16 
REMARK    7  A    between atoms: C_16  and  O_17 
REMARK    8  A    between atoms: C_16  and  C_18 
ROOT
HETATM    1  C   UNL     1     -41.588 -53.097  13.006  1.00  0.00     0.084 A 
HETATM    2  N   UNL     1     -40.578 -53.220  13.844  1.00  0.00    -0.344 N 
ATOM      3  HN  UNL     1     -39.678 -52.743  13.794  1.00  0.00     0.167 HD
HETATM    4  C   UNL     1     -40.981 -54.115  14.795  1.00  0.00     0.060 A 
HETATM    5  C   UNL     1     -40.275 -54.604  15.904  1.00  0.00     0.032 A 
HETATM    6  C   UNL     1     -40.902 -55.526  16.748  1.00  0.00     0.002 A 
HETATM    7  C   UNL     1     -42.206 -55.949  16.495  1.00  0.00     0.002 A 
HETATM    8  C   UNL     1     -42.928 -55.465  15.394  1.00  0.00     0.032 A 
HETATM    9  C   UNL     1     -42.283 -54.547  14.556  1.00  0.00     0.062 A 
HETATM   10  N   UNL     1     -42.657 -53.874  13.411  1.00  0.00    -0.332 N 
ENDROOT
BRANCH  10  11
HETATM   11  C   UNL     1     -43.983 -53.881  12.810  1.00  0.00     0.167 C 
BRANCH  11  12
HETATM   12  C   UNL     1     -44.668 -52.501  12.778  1.00  0.00     0.172 C 
BRANCH  12  13
HETATM   13  O   UNL     1     -45.737 -52.499  11.823  1.00  0.00    -0.389 OA
HETATM   14  H   UNL     1     -45.966 -53.423  11.630  1.00  0.00     0.210 HD
ENDBRANCH  12  13
BRANCH  12  15
HETATM   15  C   UNL     1     -45.243 -51.987  14.090  1.00  0.00     0.011 A 
HETATM   16  C   UNL     1     -46.617 -52.179  14.344  1.00  0.00     0.013 A 
HETATM   17  C   UNL     1     -47.211 -51.717  15.524  1.00  0.00     0.001 A 
HETATM   18  C   UNL     1     -46.446 -51.051  16.476  1.00  0.00     0.003 A 
HETATM   19  C   UNL     1     -45.089 -50.851  16.247  1.00  0.00     0.043 A 
HETATM   20  C   UNL     1     -44.502 -51.319  15.069  1.00  0.00     0.125 A 
HETATM   21  F   UNL     1     -43.189 -51.107  14.911  1.00  0.00    -0.205 F 
ENDBRANCH  12  15
ENDBRANCH  11  12
ENDBRANCH  10  11
BRANCH   1  22
HETATM   22  C   UNL     1     -41.582 -52.237  11.782  1.00  0.00     0.079 C 
BRANCH  22  23
HETATM   23  C   UNL     1     -41.484 -50.745  12.122  1.00  0.00     0.033 C 
BRANCH  23  24
HETATM   24  C   UNL     1     -40.256 -50.073  11.521  1.00  0.00     0.164 C 
BRANCH  24  25
HETATM   25  O   UNL     1     -40.423 -49.931  10.115  1.00  0.00    -0.401 OA
HETATM   26  H   UNL     1     -41.324 -50.242   9.916  1.00  0.00     0.209 HD
ENDBRANCH  24  25
ENDBRANCH  23  24
ENDBRANCH  22  23
ENDBRANCH   1  22
TORSDOF 8
ENDMDL
MODEL 3
REMARK VINA RESULT:      -6.4      3.275      5.425
REMARK  8 active torsions:
REMARK  status: ('A' for Active; 'I' for Inactive)
REMARK    1  A    between atoms: O_1  and  C_2 
REMARK    2  A    between atoms: C_2  and  C_3 
REMARK    3  A    between atoms: C_3  and  C_4 
REMARK    4  A    between atoms: C_4  and  C_5 
REMARK    5  A    between atoms: N_14  and  C_15 
REMARK    6  A    between atoms: C_15  and  C_16 
REMARK    7  A    between atoms: C_16  and  O_17 
REMARK    8  A    between atoms: C_16  and  C_18 
ROOT
HETATM    1  C   UNL     1     -43.119 -46.804  10.971  1.00  0.00     0.084 A 
HETATM    2  N   UNL     1     -42.880 -45.522  10.777  1.00  0.00    -0.344 N 
ATOM      3  HN  UNL     1     -43.456 -44.864  10.252  1.00  0.00     0.167 HD
HETATM    4  C   UNL     1     -41.705 -45.254  11.421  1.00  0.00     0.060 A 
HETATM    5  C   UNL     1     -41.004 -44.042  11.511  1.00  0.00     0.032 A 
HETATM    6  C   UNL     1     -39.808 -44.009  12.235  1.00  0.00     0.002 A 
HETATM    7  C   UNL     1     -39.323 -45.158  12.859  1.00  0.00     0.002 A 
HETATM    8  C   UNL     1     -40.015 -46.375  12.785  1.00  0.00     0.032 A 
HETATM    9  C   UNL     1     -41.208 -46.392  12.051  1.00  0.00     0.062 A 
HETATM   10  N   UNL     1     -42.135 -47.371  11.758  1.00  0.00    -0.332 N 
ENDROOT
BRANCH  10  11
HETATM   11  C   UNL     1     -42.143 -48.726  12.291  1.00  0.00     0.167 C 
BRANCH  11  12
HETATM   12  C   UNL     1     -41.301 -49.728  11.476  1.00  0.00     0.172 C 
BRANCH  12  13
HETATM   13  O   UNL     1     -41.033 -49.202  10.169  1.00  0.00    -0.389 OA
HETATM   14  H   UNL     1     -40.748 -48.280  10.272  1.00  0.00     0.210 HD
ENDBRANCH  12  13
BRANCH  12  15
HETATM   15  C   UNL     1     -39.965 -50.149  12.070  1.00  0.00     0.011 A 
HETATM   16  C   UNL     1     -38.781 -49.662  11.478  1.00  0.00     0.013 A 
HETATM   17  C   UNL     1     -37.521 -50.022  11.966  1.00  0.00     0.001 A 
HETATM   18  C   UNL     1     -37.414 -50.881  13.055  1.00  0.00     0.003 A 
HETATM   19  C   UNL     1     -38.568 -51.374  13.655  1.00  0.00     0.043 A 
HETATM   20  C   UNL     1     -39.823 -51.006  13.165  1.00  0.00     0.125 A 
HETATM   21  F   UNL     1     -40.897 -51.503  13.792  1.00  0.00    -0.205 F 
ENDBRANCH  12  15
ENDBRANCH  11  12
ENDBRANCH  10  11
BRANCH   1  22
HETATM   22  C   UNL     1     -44.292 -47.548  10.415  1.00  0.00     0.079 C 
BRANCH  22  23
HETATM   23  C   UNL     1     -44.598 -47.149   8.966  1.00  0.00     0.033 C 
BRANCH  23  24
HETATM   24  C   UNL     1     -43.447 -47.436   8.011  1.00  0.00     0.164 C 
BRANCH  24  25
HETATM   25  O   UNL     1     -42.763 -46.227   7.703  1.00  0.00    -0.401 OA
HETATM   26  H   UNL     1     -42.044 -46.468   7.093  1.00  0.00     0.209 HD
ENDBRANCH  24  25
ENDBRANCH  23  24
ENDBRANCH  22  23
ENDBRANCH   1  22
TORSDOF 8
ENDMDL
MODEL 4
REMARK VINA RESULT:      -6.3      2.847      4.753
REMARK  8 active torsions:
REMARK  status: ('A' for Active; 'I' for Inactive)
REMARK    1  A    between atoms: O_1  and  C_2 
REMARK    2  A    between atoms: C_2  and  C_3 
REMARK    3  A    between atoms: C_3  and  C_4 
REMARK    4  A    between atoms: C_4  and  C_5 
REMARK    5  A    between atoms: N_14  and  C_15 
REMARK    6  A    between atoms: C_15  and  C_16 
REMARK    7  A    between atoms: C_16  and  O_17 
REMARK    8  A    between atoms: C_16  and  C_18 
ROOT
HETATM    1  C   UNL     1     -39.991 -51.865  13.317  1.00  0.00     0.084 A 
HETATM    2  N   UNL     1     -39.016 -52.677  13.673  1.00  0.00    -0.344 N 
ATOM      3  HN  UNL     1     -38.040 -52.630  13.378  1.00  0.00     0.167 HD
HETATM    4  C   UNL     1     -39.576 -53.594  14.518  1.00  0.00     0.060 A 
HETATM    5  C   UNL     1     -38.973 -54.682  15.165  1.00  0.00     0.032 A 
HETATM    6  C   UNL     1     -39.757 -55.492  15.993  1.00  0.00     0.002 A 
HETATM    7  C   UNL     1     -41.112 -55.221  16.175  1.00  0.00     0.002 A 
HETATM    8  C   UNL     1     -41.729 -54.133  15.540  1.00  0.00     0.032 A 
HETATM    9  C   UNL     1     -40.930 -53.336  14.710  1.00  0.00     0.062 A 
HETATM   10  N   UNL     1     -41.173 -52.217  13.940  1.00  0.00    -0.332 N 
ENDROOT
BRANCH  10  11
HETATM   11  C   UNL     1     -42.420 -51.467  13.893  1.00  0.00     0.167 C 
BRANCH  11  12
HETATM   12  C   UNL     1     -43.463 -52.039  12.912  1.00  0.00     0.172 C 
BRANCH  12  13
HETATM   13  O   UNL     1     -42.814 -52.805  11.889  1.00  0.00    -0.389 OA
HETATM   14  H   UNL     1     -43.344 -52.731  11.079  1.00  0.00     0.210 HD
ENDBRANCH  12  13
BRANCH  12  15
HETATM   15  C   UNL     1     -44.554 -52.919  13.504  1.00  0.00     0.011 A 
HETATM   16  C   UNL     1     -44.476 -54.314  13.306  1.00  0.00     0.013 A 
HETATM   17  C   UNL     1     -45.454 -55.177  13.810  1.00  0.00     0.001 A 
HETATM   18  C   UNL     1     -46.535 -54.667  14.521  1.00  0.00     0.003 A 
HETATM   19  C   UNL     1     -46.633 -53.296  14.729  1.00  0.00     0.043 A 
HETATM   20  C   UNL     1     -45.650 -52.440  14.227  1.00  0.00     0.125 A 
HETATM   21  F   UNL     1     -45.793 -51.130  14.470  1.00  0.00    -0.205 F 
ENDBRANCH  12  15
ENDBRANCH  11  12
ENDBRANCH  10  11
BRANCH   1  22
HETATM   22  C   UNL     1     -39.843 -50.718  12.367  1.00  0.00     0.079 C 
BRANCH  22  23
HETATM   23  C   UNL     1     -38.547 -49.933  12.603  1.00  0.00     0.033 C 
BRANCH  23  24
HETATM   24  C   UNL     1     -37.545 -50.077  11.464  1.00  0.00     0.164 C 
BRANCH  24  25
HETATM   25  O   UNL     1     -37.149 -51.438  11.339  1.00  0.00    -0.401 OA
HETATM   26  H   UNL     1     -37.758 -51.840  10.696  1.00  0.00     0.209 HD
ENDBRANCH  24  25
ENDBRANCH  23  24
ENDBRANCH  22  23
ENDBRANCH   1  22
TORSDOF 8
ENDMDL
MODEL 5
REMARK VINA RESULT:      -6.3      2.970      4.621
REMARK  8 active torsions:
REMARK  status: ('A' for Active; 'I' for Inactive)
REMARK    1  A    between atoms: O_1  and  C_2 
REMARK    2  A    between atoms: C_2  and  C_3 
REMARK    3  A    between atoms: C_3  and  C_4 
REMARK    4  A    between atoms: C_4  and  C_5 
REMARK    5  A    between atoms: N_14  and  C_15 
REMARK    6  A    between atoms: C_15  and  C_16 
REMARK    7  A    between atoms: C_16  and  O_17 
REMARK    8  A    between atoms: C_16  and  C_18 
ROOT
HETATM    1  C   UNL     1     -41.544 -48.811  11.589  1.00  0.00     0.084 A 
HETATM    2  N   UNL     1     -40.398 -48.693  10.948  1.00  0.00    -0.344 N 
ATOM      3  HN  UNL     1     -40.212 -48.119  10.125  1.00  0.00     0.167 HD
HETATM    4  C   UNL     1     -39.510 -49.494  11.609  1.00  0.00     0.060 A 
HETATM    5  C   UNL     1     -38.158 -49.737  11.324  1.00  0.00     0.032 A 
HETATM    6  C   UNL     1     -37.441 -50.607  12.153  1.00  0.00     0.002 A 
HETATM    7  C   UNL     1     -38.058 -51.219  13.243  1.00  0.00     0.002 A 
HETATM    8  C   UNL     1     -39.406 -50.982  13.545  1.00  0.00     0.032 A 
HETATM    9  C   UNL     1     -40.111 -50.113  12.702  1.00  0.00     0.062 A 
HETATM   10  N   UNL     1     -41.411 -49.652  12.677  1.00  0.00    -0.332 N 
ENDROOT
BRANCH  10  11
HETATM   11  C   UNL     1     -42.427 -49.905  13.690  1.00  0.00     0.167 C 
BRANCH  11  12
HETATM   12  C   UNL     1     -43.659 -50.671  13.168  1.00  0.00     0.172 C 
BRANCH  12  13
HETATM   13  O   UNL     1     -43.266 -51.951  12.654  1.00  0.00    -0.389 OA
HETATM   14  H   UNL     1     -42.579 -51.805  11.984  1.00  0.00     0.210 HD
ENDBRANCH  12  13
BRANCH  12  15
HETATM   15  C   UNL     1     -44.788 -50.916  14.158  1.00  0.00     0.011 A 
HETATM   16  C   UNL     1     -44.547 -50.675  15.527  1.00  0.00     0.013 A 
HETATM   17  C   UNL     1     -45.537 -50.895  16.491  1.00  0.00     0.001 A 
HETATM   18  C   UNL     1     -46.790 -51.363  16.109  1.00  0.00     0.003 A 
HETATM   19  C   UNL     1     -47.051 -51.606  14.765  1.00  0.00     0.043 A 
HETATM   20  C   UNL     1     -46.059 -51.380  13.808  1.00  0.00     0.125 A 
HETATM   21  F   UNL     1     -46.373 -51.622  12.528  1.00  0.00    -0.205 F 
ENDBRANCH  12  15
ENDBRANCH  11  12
ENDBRANCH  10  11
BRANCH   1  22
HETATM   22  C   UNL     1     -42.817 -48.130  11.195  1.00  0.00     0.079 C 
BRANCH  22  23
HETATM   23  C   UNL     1     -42.741 -47.531   9.785  1.00  0.00     0.033 C 
BRANCH  23  24
HETATM   24  C   UNL     1     -42.518 -46.023   9.787  1.00  0.00     0.164 C 
BRANCH  24  25
HETATM   25  O   UNL     1     -41.125 -45.742   9.713  1.00  0.00    -0.401 OA
HETATM   26  H   UNL     1     -40.827 -45.601  10.628  1.00  0.00     0.209 HD
ENDBRANCH  24  25
ENDBRANCH  23  24
ENDBRANCH  22  23
ENDBRANCH   1  22
TORSDOF 8
ENDMDL
MODEL 6
REMARK VINA RESULT:      -6.2      2.937      5.147
REMARK  8 active torsions:
REMARK  status: ('A' for Active; 'I' for Inactive)
REMARK    1  A    between atoms: O_1  and  C_2 
REMARK    2  A    between atoms: C_2  and  C_3 
REMARK    3  A    between atoms: C_3  and  C_4 
REMARK    4  A    between atoms: C_4  and  C_5 
REMARK    5  A    between atoms: N_14  and  C_15 
REMARK    6  A    between atoms: C_15  and  C_16 
REMARK    7  A    between atoms: C_16  and  O_17 
REMARK    8  A    between atoms: C_16  and  C_18 
ROOT
HETATM    1  C   UNL     1     -40.346 -52.234  13.332  1.00  0.00     0.084 A 
HETATM    2  N   UNL     1     -39.701 -52.954  14.227  1.00  0.00    -0.344 N 
ATOM      3  HN  UNL     1     -38.713 -52.890  14.470  1.00  0.00     0.167 HD
HETATM    4  C   UNL     1     -40.625 -53.806  14.765  1.00  0.00     0.060 A 
HETATM    5  C   UNL     1     -40.452 -54.791  15.749  1.00  0.00     0.032 A 
HETATM    6  C   UNL     1     -41.558 -55.549  16.144  1.00  0.00     0.002 A 
HETATM    7  C   UNL     1     -42.811 -55.329  15.574  1.00  0.00     0.002 A 
HETATM    8  C   UNL     1     -43.003 -54.345  14.594  1.00  0.00     0.032 A 
HETATM    9  C   UNL     1     -41.883 -53.598  14.205  1.00  0.00     0.062 A 
HETATM   10  N   UNL     1     -41.684 -52.579  13.297  1.00  0.00    -0.332 N 
ENDROOT
BRANCH  10  11
HETATM   11  C   UNL     1     -42.721 -51.900  12.533  1.00  0.00     0.167 C 
BRANCH  11  12
HETATM   12  C   UNL     1     -43.316 -50.664  13.237  1.00  0.00     0.172 C 
BRANCH  12  13
HETATM   13  O   UNL     1     -43.653 -49.659  12.272  1.00  0.00    -0.389 OA
HETATM   14  H   UNL     1     -42.826 -49.264  11.951  1.00  0.00     0.210 HD
ENDBRANCH  12  13
BRANCH  12  15
HETATM   15  C   UNL     1     -44.550 -50.889  14.097  1.00  0.00     0.011 A 
HETATM   16  C   UNL     1     -44.464 -50.627  15.481  1.00  0.00     0.013 A 
HETATM   17  C   UNL     1     -45.558 -50.828  16.329  1.00  0.00     0.001 A 
HETATM   18  C   UNL     1     -46.763 -51.298  15.817  1.00  0.00     0.003 A 
HETATM   19  C   UNL     1     -46.871 -51.562  14.455  1.00  0.00     0.043 A 
HETATM   20  C   UNL     1     -45.776 -51.355  13.613  1.00  0.00     0.125 A 
HETATM   21  F   UNL     1     -45.945 -51.616  12.310  1.00  0.00    -0.205 F 
ENDBRANCH  12  15
ENDBRANCH  11  12
ENDBRANCH  10  11
BRANCH   1  22
HETATM   22  C   UNL     1     -39.719 -51.185  12.467  1.00  0.00     0.079 C 
BRANCH  22  23
HETATM   23  C   UNL     1     -38.271 -50.889  12.873  1.00  0.00     0.033 C 
BRANCH  23  24
HETATM   24  C   UNL     1     -37.392 -50.475  11.699  1.00  0.00     0.164 C 
BRANCH  24  25
HETATM   25  O   UNL     1     -38.207 -50.017  10.626  1.00  0.00    -0.401 OA
HETATM   26  H   UNL     1     -37.852 -49.149  10.365  1.00  0.00     0.209 HD
ENDBRANCH  24  25
ENDBRANCH  23  24
ENDBRANCH  22  23
ENDBRANCH   1  22
TORSDOF 8
ENDMDL
MODEL 7
REMARK VINA RESULT:      -6.2      3.140      6.145
REMARK  8 active torsions:
REMARK  status: ('A' for Active; 'I' for Inactive)
REMARK    1  A    between atoms: O_1  and  C_2 
REMARK    2  A    between atoms: C_2  and  C_3 
REMARK    3  A    between atoms: C_3  and  C_4 
REMARK    4  A    between atoms: C_4  and  C_5 
REMARK    5  A    between atoms: N_14  and  C_15 
REMARK    6  A    between atoms: C_15  and  C_16 
REMARK    7  A    between atoms: C_16  and  O_17 
REMARK    8  A    between atoms: C_16  and  C_18 
ROOT
HETATM    1  C   UNL     1     -42.756 -53.825  13.979  1.00  0.00     0.084 A 
HETATM    2  N   UNL     1     -43.681 -54.249  14.818  1.00  0.00    -0.344 N 
ATOM      3  HN  UNL     1     -43.618 -55.051  15.446  1.00  0.00     0.167 HD
HETATM    4  C   UNL     1     -44.740 -53.398  14.677  1.00  0.00     0.060 A 
HETATM    5  C   UNL     1     -45.982 -53.417  15.330  1.00  0.00     0.032 A 
HETATM    6  C   UNL     1     -46.921 -52.429  15.018  1.00  0.00     0.002 A 
HETATM    7  C   UNL     1     -46.629 -51.441  14.078  1.00  0.00     0.002 A 
HETATM    8  C   UNL     1     -45.390 -51.404  13.421  1.00  0.00     0.032 A 
HETATM    9  C   UNL     1     -44.463 -52.404  13.741  1.00  0.00     0.062 A 
HETATM   10  N   UNL     1     -43.182 -52.691  13.315  1.00  0.00    -0.332 N 
ENDROOT
BRANCH  10  11
HETATM   11  C   UNL     1     -42.377 -51.871  12.421  1.00  0.00     0.167 C 
BRANCH  11  12
HETATM   12  C   UNL     1     -41.566 -50.771  13.135  1.00  0.00     0.172 C 
BRANCH  12  13
HETATM   13  O   UNL     1     -41.616 -50.961  14.555  1.00  0.00    -0.389 OA
HETATM   14  H   UNL     1     -40.720 -50.826  14.905  1.00  0.00     0.210 HD
ENDBRANCH  12  13
BRANCH  12  15
HETATM   15  C   UNL     1     -40.099 -50.640  12.754  1.00  0.00     0.011 A 
HETATM   16  C   UNL     1     -39.134 -51.280  13.559  1.00  0.00     0.013 A 
HETATM   17  C   UNL     1     -37.768 -51.186  13.273  1.00  0.00     0.001 A 
HETATM   18  C   UNL     1     -37.333 -50.448  12.177  1.00  0.00     0.003 A 
HETATM   19  C   UNL     1     -38.267 -49.808  11.369  1.00  0.00     0.043 A 
HETATM   20  C   UNL     1     -39.630 -49.910  11.658  1.00  0.00     0.125 A 
HETATM   21  F   UNL     1     -40.481 -49.282  10.836  1.00  0.00    -0.205 F 
ENDBRANCH  12  15
ENDBRANCH  11  12
ENDBRANCH  10  11
BRANCH   1  22
HETATM   22  C   UNL     1     -41.427 -54.480  13.771  1.00  0.00     0.079 C 
BRANCH  22  23
HETATM   23  C   UNL     1     -40.548 -54.420  15.026  1.00  0.00     0.033 C 
BRANCH  23  24
HETATM   24  C   UNL     1     -39.093 -54.784  14.756  1.00  0.00     0.164 C 
BRANCH  24  25
HETATM   25  O   UNL     1     -38.865 -54.849  13.353  1.00  0.00    -0.401 OA
HETATM   26  H   UNL     1     -37.912 -54.699  13.225  1.00  0.00     0.209 HD
ENDBRANCH  24  25
ENDBRANCH  23  24
ENDBRANCH  22  23
ENDBRANCH   1  22
TORSDOF 8
ENDMDL
MODEL 8
REMARK VINA RESULT:      -6.2      3.691      6.512
REMARK  8 active torsions:
REMARK  status: ('A' for Active; 'I' for Inactive)
REMARK    1  A    between atoms: O_1  and  C_2 
REMARK    2  A    between atoms: C_2  and  C_3 
REMARK    3  A    between atoms: C_3  and  C_4 
REMARK    4  A    between atoms: C_4  and  C_5 
REMARK    5  A    between atoms: N_14  and  C_15 
REMARK    6  A    between atoms: C_15  and  C_16 
REMARK    7  A    between atoms: C_16  and  O_17 
REMARK    8  A    between atoms: C_16  and  C_18 
ROOT
HETATM    1  C   UNL     1     -41.482 -53.160  15.150  1.00  0.00     0.084 A 
HETATM    2  N   UNL     1     -40.272 -53.669  15.025  1.00  0.00    -0.344 N 
ATOM      3  HN  UNL     1     -39.506 -53.297  14.463  1.00  0.00     0.167 HD
HETATM    4  C   UNL     1     -40.252 -54.794  15.800  1.00  0.00     0.060 A 
HETATM    5  C   UNL     1     -39.208 -55.708  16.004  1.00  0.00     0.032 A 
HETATM    6  C   UNL     1     -39.424 -56.798  16.853  1.00  0.00     0.002 A 
HETATM    7  C   UNL     1     -40.653 -56.973  17.487  1.00  0.00     0.002 A 
HETATM    8  C   UNL     1     -41.705 -56.065  17.299  1.00  0.00     0.032 A 
HETATM    9  C   UNL     1     -41.474 -54.982  16.441  1.00  0.00     0.062 A 
HETATM   10  N   UNL     1     -42.243 -53.917  16.019  1.00  0.00    -0.332 N 
ENDROOT
BRANCH  10  11
HETATM   11  C   UNL     1     -43.575 -53.581  16.503  1.00  0.00     0.167 C 
BRANCH  11  12
HETATM   12  C   UNL     1     -44.720 -54.182  15.664  1.00  0.00     0.172 C 
BRANCH  12  13
HETATM   13  O   UNL     1     -45.787 -54.615  16.518  1.00  0.00    -0.389 OA
HETATM   14  H   UNL     1     -46.617 -54.256  16.164  1.00  0.00     0.210 HD
ENDBRANCH  12  13
BRANCH  12  15
HETATM   15  C   UNL     1     -45.338 -53.287  14.599  1.00  0.00     0.011 A 
HETATM   16  C   UNL     1     -46.103 -52.177  15.013  1.00  0.00     0.013 A 
HETATM   17  C   UNL     1     -46.710 -51.324  14.086  1.00  0.00     0.001 A 
HETATM   18  C   UNL     1     -46.569 -51.561  12.722  1.00  0.00     0.003 A 
HETATM   19  C   UNL     1     -45.818 -52.650  12.291  1.00  0.00     0.043 A 
HETATM   20  C   UNL     1     -45.211 -53.495  13.223  1.00  0.00     0.125 A 
HETATM   21  F   UNL     1     -44.492 -54.519  12.746  1.00  0.00    -0.205 F 
ENDBRANCH  12  15
ENDBRANCH  11  12
ENDBRANCH  10  11
BRANCH   1  22
HETATM   22  C   UNL     1     -41.968 -51.931  14.447  1.00  0.00     0.079 C 
BRANCH  22  23
HETATM   23  C   UNL     1     -41.150 -51.621  13.188  1.00  0.00     0.033 C 
BRANCH  23  24
HETATM   24  C   UNL     1     -41.619 -52.396  11.963  1.00  0.00     0.164 C 
BRANCH  24  25
HETATM   25  O   UNL     1     -40.596 -53.288  11.536  1.00  0.00    -0.401 OA
HETATM   26  H   UNL     1     -40.087 -52.813  10.856  1.00  0.00     0.209 HD
ENDBRANCH  24  25
ENDBRANCH  23  24
ENDBRANCH  22  23
ENDBRANCH   1  22
TORSDOF 8
ENDMDL
MODEL 9
REMARK VINA RESULT:      -6.2      2.266      4.172
REMARK  8 active torsions:
REMARK  status: ('A' for Active; 'I' for Inactive)
REMARK    1  A    between atoms: O_1  and  C_2 
REMARK    2  A    between atoms: C_2  and  C_3 
REMARK    3  A    between atoms: C_3  and  C_4 
REMARK    4  A    between atoms: C_4  and  C_5 
REMARK    5  A    between atoms: N_14  and  C_15 
REMARK    6  A    between atoms: C_15  and  C_16 
REMARK    7  A    between atoms: C_16  and  O_17 
REMARK    8  A    between atoms: C_16  and  C_18 
ROOT
HETATM    1  C   UNL     1     -41.850 -49.094  12.036  1.00  0.00     0.084 A 
HETATM    2  N   UNL     1     -40.725 -48.559  11.605  1.00  0.00    -0.344 N 
ATOM      3  HN  UNL     1     -40.620 -47.693  11.076  1.00  0.00     0.167 HD
HETATM    4  C   UNL     1     -39.726 -49.400  12.010  1.00  0.00     0.060 A 
HETATM    5  C   UNL     1     -38.344 -49.297  11.795  1.00  0.00     0.032 A 
HETATM    6  C   UNL     1     -37.507 -50.291  12.312  1.00  0.00     0.002 A 
HETATM    7  C   UNL     1     -38.036 -51.363  13.030  1.00  0.00     0.002 A 
HETATM    8  C   UNL     1     -39.414 -51.477  13.259  1.00  0.00     0.032 A 
HETATM    9  C   UNL     1     -40.238 -50.476  12.730  1.00  0.00     0.062 A 
HETATM   10  N   UNL     1     -41.600 -50.254  12.744  1.00  0.00    -0.332 N 
ENDROOT
BRANCH  10  11
HETATM   11  C   UNL     1     -42.585 -51.033  13.481  1.00  0.00     0.167 C 
BRANCH  11  12
HETATM   12  C   UNL     1     -43.515 -51.879  12.589  1.00  0.00     0.172 C 
BRANCH  12  13
HETATM   13  O   UNL     1     -42.741 -52.707  11.711  1.00  0.00    -0.389 OA
HETATM   14  H   UNL     1     -41.811 -52.639  11.980  1.00  0.00     0.210 HD
ENDBRANCH  12  13
BRANCH  12  15
HETATM   15  C   UNL     1     -44.509 -52.788  13.298  1.00  0.00     0.011 A 
HETATM   16  C   UNL     1     -44.287 -54.181  13.269  1.00  0.00     0.013 A 
HETATM   17  C   UNL     1     -45.171 -55.072  13.887  1.00  0.00     0.001 A 
HETATM   18  C   UNL     1     -46.299 -54.593  14.545  1.00  0.00     0.003 A 
HETATM   19  C   UNL     1     -46.537 -53.223  14.588  1.00  0.00     0.043 A 
HETATM   20  C   UNL     1     -45.648 -52.339  13.972  1.00  0.00     0.125 A 
HETATM   21  F   UNL     1     -45.925 -51.031  14.057  1.00  0.00    -0.205 F 
ENDBRANCH  12  15
ENDBRANCH  11  12
ENDBRANCH  10  11
BRANCH   1  22
HETATM   22  C   UNL     1     -43.213 -48.526  11.794  1.00  0.00     0.079 C 
BRANCH  22  23
HETATM   23  C   UNL     1     -43.159 -47.187  11.047  1.00  0.00     0.033 C 
BRANCH  23  24
HETATM   24  C   UNL     1     -43.504 -47.313   9.568  1.00  0.00     0.164 C 
BRANCH  24  25
HETATM   25  O   UNL     1     -42.494 -48.059   8.899  1.00  0.00    -0.401 OA
HETATM   26  H   UNL     1     -41.663 -47.571   9.031  1.00  0.00     0.209 HD
ENDBRANCH  24  25
ENDBRANCH  23  24
ENDBRANCH  22  23
ENDBRANCH   1  22
TORSDOF 8
ENDMDL
