MODEL 1
REMARK VINA RESULT:      -6.5      0.000      0.000
REMARK  4 active torsions:
REMARK  status: ('A' for Active; 'I' for Inactive)
REMARK    1  A    between atoms: O_2  and  C_3 
REMARK    2  A    between atoms: C_9  and  N_10 
REMARK       I    between atoms: N_10  and  C_11 
REMARK       I    between atoms: C_11  and  N_13 
REMARK    3  A    between atoms: N_13  and  C_14 
REMARK    4  A    between atoms: C_18  and  C_19 
REMARK       I    between atoms: C_19  and  N_21 
ROOT
HETATM    1  N   UNL     1     -42.296 -49.369  11.542  1.00  0.00    -0.305 N 
HETATM    2  C   UNL     1     -43.141 -49.493  12.626  1.00  0.00     0.321 C 
HETATM    3  O   UNL     1     -43.400 -48.608  13.432  1.00  0.00    -0.247 OA
HETATM    4  N   UNL     1     -43.682 -50.752  12.773  1.00  0.00    -0.337 N 
HETATM    5  H   UNL     1     -41.886 -50.218  11.172  1.00  0.00     0.171 HD
HETATM    6  H   UNL     1     -43.947 -51.212  11.906  1.00  0.00     0.164 HD
ENDROOT
BRANCH   1   7
HETATM    7  C   UNL     1     -41.647 -48.151  11.180  1.00  0.00     0.087 A 
HETATM    8  C   UNL     1     -42.214 -47.243  10.271  1.00  0.00     0.169 A 
HETATM    9  N   UNL     1     -41.603 -46.096   9.866  1.00  0.00    -0.345 N 
HETATM   10  C   UNL     1     -40.381 -45.833  10.367  1.00  0.00     0.090 A 
ATOM     11  HN  UNL     1     -42.054 -45.460   9.208  1.00  0.00     0.167 HD
HETATM   12  C   UNL     1     -39.744 -46.645  11.280  1.00  0.00     0.019 A 
HETATM   13  C   UNL     1     -40.395 -47.799  11.697  1.00  0.00     0.035 A 
BRANCH   8  14
HETATM   14  O   UNL     1     -43.459 -47.529   9.735  1.00  0.00    -0.339 OA
HETATM   15  C   UNL     1     -43.428 -47.551   8.303  1.00  0.00     0.211 C 
ENDBRANCH   8  14
ENDBRANCH   1   7
BRANCH   4  16
HETATM   16  C   UNL     1     -44.561 -50.991  13.914  1.00  0.00     0.099 C 
HETATM   17  C   UNL     1     -43.970 -51.920  14.979  1.00  0.00     0.026 C 
HETATM   18  C   UNL     1     -45.068 -52.915  15.339  1.00  0.00     0.003 C 
HETATM   19  C   UNL     1     -46.369 -52.272  14.873  1.00  0.00     0.016 C 
HETATM   20  C   UNL     1     -45.975 -51.513  13.602  1.00  0.00     0.100 C 
BRANCH  20  21
HETATM   21  C   UNL     1     -46.082 -52.433  12.399  1.00  0.00     0.221 C 
HETATM   22  O   UNL     1     -45.435 -53.464  12.252  1.00  0.00    -0.273 OA
HETATM   23  N   UNL     1     -47.028 -52.059  11.484  1.00  0.00    -0.370 N 
HETATM   24  H   UNL     1     -47.390 -51.112  11.457  1.00  0.00     0.159 HD
HETATM   25  H   UNL     1     -47.082 -52.598  10.629  1.00  0.00     0.159 HD
ENDBRANCH  20  21
ENDBRANCH   4  16
TORSDOF 4
ENDMDL
MODEL 2
REMARK VINA RESULT:      -6.4      2.324      2.834
REMARK  4 active torsions:
REMARK  status: ('A' for Active; 'I' for Inactive)
REMARK    1  A    between atoms: O_2  and  C_3 
REMARK    2  A    between atoms: C_9  and  N_10 
REMARK       I    between atoms: N_10  and  C_11 
REMARK       I    between atoms: C_11  and  N_13 
REMARK    3  A    between atoms: N_13  and  C_14 
REMARK    4  A    between atoms: C_18  and  C_19 
REMARK       I    between atoms: C_19  and  N_21 
ROOT
HETATM    1  N   UNL     1     -41.177 -51.591  12.643  1.00  0.00    -0.305 N 
HETATM    2  C   UNL     1     -42.217 -51.036  13.358  1.00  0.00     0.321 C 
HETATM    3  O   UNL     1     -42.187 -49.961  13.944  1.00  0.00    -0.247 OA
HETATM    4  N   UNL     1     -43.349 -51.822  13.401  1.00  0.00    -0.337 N 
HETATM    5  H   UNL     1     -41.184 -52.595  12.514  1.00  0.00     0.171 HD
HETATM    6  H   UNL     1     -43.570 -52.309  12.536  1.00  0.00     0.164 HD
ENDROOT
BRANCH   1   7
HETATM    7  C   UNL     1     -39.921 -50.944  12.442  1.00  0.00     0.087 A 
HETATM    8  C   UNL     1     -39.741 -49.945  11.471  1.00  0.00     0.169 A 
HETATM    9  N   UNL     1     -38.548 -49.340  11.219  1.00  0.00    -0.345 N 
HETATM   10  C   UNL     1     -37.485 -49.738  11.943  1.00  0.00     0.090 A 
ATOM     11  HN  UNL     1     -38.463 -48.613  10.508  1.00  0.00     0.167 HD
HETATM   12  C   UNL     1     -37.555 -50.692  12.934  1.00  0.00     0.019 A 
HETATM   13  C   UNL     1     -38.788 -51.281  13.190  1.00  0.00     0.035 A 
BRANCH   8  14
HETATM   14  O   UNL     1     -40.831 -49.557  10.707  1.00  0.00    -0.339 OA
HETATM   15  C   UNL     1     -41.228 -48.211  10.994  1.00  0.00     0.211 C 
ENDBRANCH   8  14
ENDBRANCH   1   7
BRANCH   4  16
HETATM   16  C   UNL     1     -44.494 -51.334  14.165  1.00  0.00     0.099 C 
HETATM   17  C   UNL     1     -44.721 -52.066  15.492  1.00  0.00     0.026 C 
HETATM   18  C   UNL     1     -46.213 -52.371  15.564  1.00  0.00     0.003 C 
HETATM   19  C   UNL     1     -46.872 -51.421  14.571  1.00  0.00     0.016 C 
HETATM   20  C   UNL     1     -45.850 -51.299  13.437  1.00  0.00     0.100 C 
BRANCH  20  21
HETATM   21  C   UNL     1     -46.074 -52.403  12.420  1.00  0.00     0.221 C 
HETATM   22  O   UNL     1     -45.551 -53.511  12.468  1.00  0.00    -0.273 OA
HETATM   23  N   UNL     1     -46.981 -52.096  11.442  1.00  0.00    -0.370 N 
HETATM   24  H   UNL     1     -47.233 -51.134  11.241  1.00  0.00     0.159 HD
HETATM   25  H   UNL     1     -47.106 -52.771  10.700  1.00  0.00     0.159 HD
ENDBRANCH  20  21
ENDBRANCH   4  16
TORSDOF 4
ENDMDL
MODEL 3
REMARK VINA RESULT:      -6.2      2.139      7.054
REMARK  4 active torsions:
REMARK  status: ('A' for Active; 'I' for Inactive)
REMARK    1  A    between atoms: O_2  and  C_3 
REMARK    2  A    between atoms: C_9  and  N_10 
REMARK       I    between atoms: N_10  and  C_11 
REMARK       I    between atoms: C_11  and  N_13 
REMARK    3  A    between atoms: N_13  and  C_14 
REMARK    4  A    between atoms: C_18  and  C_19 
REMARK       I    between atoms: C_19  and  N_21 
ROOT
HETATM    1  N   UNL     1     -44.865 -51.352  12.687  1.00  0.00    -0.305 N 
HETATM    2  C   UNL     1     -43.844 -50.612  13.246  1.00  0.00     0.321 C 
HETATM    3  O   UNL     1     -43.271 -50.868  14.298  1.00  0.00    -0.247 OA
HETATM    4  N   UNL     1     -43.508 -49.486  12.524  1.00  0.00    -0.337 N 
HETATM    5  H   UNL     1     -45.483 -50.878  12.040  1.00  0.00     0.171 HD
HETATM    6  H   UNL     1     -43.515 -49.603  11.514  1.00  0.00     0.164 HD
ENDROOT
BRANCH   1   7
HETATM    7  C   UNL     1     -45.357 -52.569  13.245  1.00  0.00     0.087 A 
HETATM    8  C   UNL     1     -46.438 -52.597  14.142  1.00  0.00     0.169 A 
HETATM    9  N   UNL     1     -46.904 -53.732  14.731  1.00  0.00    -0.345 N 
HETATM   10  C   UNL     1     -46.279 -54.887  14.434  1.00  0.00     0.090 A 
ATOM     11  HN  UNL     1     -47.697 -53.709  15.372  1.00  0.00     0.167 HD
HETATM   12  C   UNL     1     -45.225 -54.975  13.551  1.00  0.00     0.019 A 
HETATM   13  C   UNL     1     -44.780 -53.807  12.944  1.00  0.00     0.035 A 
BRANCH   8  14
HETATM   14  O   UNL     1     -47.062 -51.403  14.469  1.00  0.00    -0.339 OA
HETATM   15  C   UNL     1     -47.233 -51.264  15.884  1.00  0.00     0.211 C 
ENDBRANCH   8  14
ENDBRANCH   1   7
BRANCH   4  16
HETATM   16  C   UNL     1     -42.460 -48.619  13.056  1.00  0.00     0.099 C 
HETATM   17  C   UNL     1     -42.861 -47.145  13.166  1.00  0.00     0.026 C 
HETATM   18  C   UNL     1     -41.698 -46.340  12.596  1.00  0.00     0.003 C 
HETATM   19  C   UNL     1     -40.498 -47.279  12.629  1.00  0.00     0.016 C 
HETATM   20  C   UNL     1     -41.097 -48.659  12.341  1.00  0.00     0.100 C 
BRANCH  20  21
HETATM   21  C   UNL     1     -41.152 -48.895  10.842  1.00  0.00     0.221 C 
HETATM   22  O   UNL     1     -41.844 -48.252  10.062  1.00  0.00    -0.273 OA
HETATM   23  N   UNL     1     -40.301 -49.867  10.392  1.00  0.00    -0.370 N 
HETATM   24  H   UNL     1     -39.913 -50.561  11.021  1.00  0.00     0.159 HD
HETATM   25  H   UNL     1     -40.357 -50.112   9.412  1.00  0.00     0.159 HD
ENDBRANCH  20  21
ENDBRANCH   4  16
TORSDOF 4
ENDMDL
MODEL 4
REMARK VINA RESULT:      -6.1      1.239      2.125
REMARK  4 active torsions:
REMARK  status: ('A' for Active; 'I' for Inactive)
REMARK    1  A    between atoms: O_2  and  C_3 
REMARK    2  A    between atoms: C_9  and  N_10 
REMARK       I    between atoms: N_10  and  C_11 
REMARK       I    between atoms: C_11  and  N_13 
REMARK    3  A    between atoms: N_13  and  C_14 
REMARK    4  A    between atoms: C_18  and  C_19 
REMARK       I    between atoms: C_19  and  N_21 
ROOT
HETATM    1  N   UNL     1     -42.297 -49.340  11.480  1.00  0.00    -0.305 N 
HETATM    2  C   UNL     1     -43.124 -49.447  12.578  1.00  0.00     0.321 C 
HETATM    3  O   UNL     1     -43.315 -48.573  13.415  1.00  0.00    -0.247 OA
HETATM    4  N   UNL     1     -43.733 -50.677  12.703  1.00  0.00    -0.337 N 
HETATM    5  H   UNL     1     -41.944 -50.199  11.077  1.00  0.00     0.171 HD
HETATM    6  H   UNL     1     -44.042 -51.096  11.830  1.00  0.00     0.164 HD
ENDROOT
BRANCH   1   7
HETATM    7  C   UNL     1     -41.587 -48.151  11.136  1.00  0.00     0.087 A 
HETATM    8  C   UNL     1     -40.215 -47.996  11.398  1.00  0.00     0.169 A 
HETATM    9  N   UNL     1     -39.516 -46.860  11.129  1.00  0.00    -0.345 N 
HETATM   10  C   UNL     1     -40.192 -45.829  10.587  1.00  0.00     0.090 A 
ATOM     11  HN  UNL     1     -38.518 -46.793  11.329  1.00  0.00     0.167 HD
HETATM   12  C   UNL     1     -41.531 -45.882  10.270  1.00  0.00     0.019 A 
HETATM   13  C   UNL     1     -42.221 -47.059  10.533  1.00  0.00     0.035 A 
BRANCH   8  14
HETATM   14  O   UNL     1     -39.528 -49.049  11.982  1.00  0.00    -0.339 OA
HETATM   15  C   UNL     1     -39.180 -48.765  13.343  1.00  0.00     0.211 C 
ENDBRANCH   8  14
ENDBRANCH   1   7
BRANCH   4  16
HETATM   16  C   UNL     1     -44.600 -50.899  13.857  1.00  0.00     0.099 C 
HETATM   17  C   UNL     1     -43.984 -51.783  14.946  1.00  0.00     0.026 C 
HETATM   18  C   UNL     1     -45.059 -52.788  15.343  1.00  0.00     0.003 C 
HETATM   19  C   UNL     1     -46.376 -52.185  14.867  1.00  0.00     0.016 C 
HETATM   20  C   UNL     1     -46.005 -51.457  13.571  1.00  0.00     0.100 C 
BRANCH  20  21
HETATM   21  C   UNL     1     -46.102 -52.415  12.397  1.00  0.00     0.221 C 
HETATM   22  O   UNL     1     -45.447 -53.445  12.284  1.00  0.00    -0.273 OA
HETATM   23  N   UNL     1     -47.047 -52.076  11.467  1.00  0.00    -0.370 N 
HETATM   24  H   UNL     1     -47.416 -51.133  11.410  1.00  0.00     0.159 HD
HETATM   25  H   UNL     1     -47.095 -52.642  10.630  1.00  0.00     0.159 HD
ENDBRANCH  20  21
ENDBRANCH   4  16
TORSDOF 4
ENDMDL
MODEL 5
REMARK VINA RESULT:      -6.1      2.413      7.088
REMARK  4 active torsions:
REMARK  status: ('A' for Active; 'I' for Inactive)
REMARK    1  A    between atoms: O_2  and  C_3 
REMARK    2  A    between atoms: C_9  and  N_10 
REMARK       I    between atoms: N_10  and  C_11 
REMARK       I    between atoms: C_11  and  N_13 
REMARK    3  A    between atoms: N_13  and  C_14 
REMARK    4  A    between atoms: C_18  and  C_19 
REMARK       I    between atoms: C_19  and  N_21 
ROOT
HETATM    1  N   UNL     1     -43.034 -52.387  12.144  1.00  0.00    -0.305 N 
HETATM    2  C   UNL     1     -42.605 -51.177  12.646  1.00  0.00     0.321 C 
HETATM    3  O   UNL     1     -42.830 -50.751  13.772  1.00  0.00    -0.247 OA
HETATM    4  N   UNL     1     -41.892 -50.417  11.742  1.00  0.00    -0.337 N 
HETATM    5  H   UNL     1     -43.103 -52.477  11.138  1.00  0.00     0.171 HD
HETATM    6  H   UNL     1     -41.255 -50.940  11.146  1.00  0.00     0.164 HD
ENDROOT
BRANCH   1   7
HETATM    7  C   UNL     1     -43.763 -53.347  12.909  1.00  0.00     0.087 A 
HETATM    8  C   UNL     1     -45.159 -53.472  12.817  1.00  0.00     0.169 A 
HETATM    9  N   UNL     1     -45.892 -54.341  13.564  1.00  0.00    -0.345 N 
HETATM   10  C   UNL     1     -45.230 -55.115  14.445  1.00  0.00     0.090 A 
ATOM     11  HN  UNL     1     -46.905 -54.404  13.461  1.00  0.00     0.167 HD
HETATM   12  C   UNL     1     -43.861 -55.089  14.599  1.00  0.00     0.019 A 
HETATM   13  C   UNL     1     -43.130 -54.209  13.810  1.00  0.00     0.035 A 
BRANCH   8  14
HETATM   14  O   UNL     1     -45.842 -52.654  11.930  1.00  0.00    -0.339 OA
HETATM   15  C   UNL     1     -46.537 -51.601  12.608  1.00  0.00     0.211 C 
ENDBRANCH   8  14
ENDBRANCH   1   7
BRANCH   4  16
HETATM   16  C   UNL     1     -41.427 -49.101  12.170  1.00  0.00     0.099 C 
HETATM   17  C   UNL     1     -41.590 -48.003  11.115  1.00  0.00     0.026 C 
HETATM   18  C   UNL     1     -40.274 -47.233  11.087  1.00  0.00     0.003 C 
HETATM   19  C   UNL     1     -39.585 -47.559  12.407  1.00  0.00     0.016 C 
HETATM   20  C   UNL     1     -39.978 -49.012  12.686  1.00  0.00     0.100 C 
BRANCH  20  21
HETATM   21  C   UNL     1     -38.988 -49.951  12.019  1.00  0.00     0.221 C 
HETATM   22  O   UNL     1     -39.005 -51.171  12.130  1.00  0.00    -0.273 OA
HETATM   23  N   UNL     1     -38.080 -49.330  11.206  1.00  0.00    -0.370 N 
HETATM   24  H   UNL     1     -37.892 -48.337  11.288  1.00  0.00     0.159 HD
HETATM   25  H   UNL     1     -37.354 -49.905  10.801  1.00  0.00     0.159 HD
ENDBRANCH  20  21
ENDBRANCH   4  16
TORSDOF 4
ENDMDL
MODEL 6
REMARK VINA RESULT:      -6.0      2.110      2.879
REMARK  4 active torsions:
REMARK  status: ('A' for Active; 'I' for Inactive)
REMARK    1  A    between atoms: O_2  and  C_3 
REMARK    2  A    between atoms: C_9  and  N_10 
REMARK       I    between atoms: N_10  and  C_11 
REMARK       I    between atoms: C_11  and  N_13 
REMARK    3  A    between atoms: N_13  and  C_14 
REMARK    4  A    between atoms: C_18  and  C_19 
REMARK       I    between atoms: C_19  and  N_21 
ROOT
HETATM    1  N   UNL     1     -41.897 -50.471  11.625  1.00  0.00    -0.305 N 
HETATM    2  C   UNL     1     -42.173 -50.946  12.890  1.00  0.00     0.321 C 
HETATM    3  O   UNL     1     -42.098 -50.298  13.927  1.00  0.00    -0.247 OA
HETATM    4  N   UNL     1     -42.528 -52.277  12.924  1.00  0.00    -0.337 N 
HETATM    5  H   UNL     1     -41.647 -51.150  10.917  1.00  0.00     0.171 HD
HETATM    6  H   UNL     1     -43.122 -52.585  12.158  1.00  0.00     0.164 HD
ENDROOT
BRANCH   1   7
HETATM    7  C   UNL     1     -41.537 -49.118  11.349  1.00  0.00     0.087 A 
HETATM    8  C   UNL     1     -40.202 -48.680  11.367  1.00  0.00     0.169 A 
HETATM    9  N   UNL     1     -39.825 -47.390  11.155  1.00  0.00    -0.345 N 
HETATM   10  C   UNL     1     -40.799 -46.489  10.925  1.00  0.00     0.090 A 
ATOM     11  HN  UNL     1     -38.843 -47.116  11.171  1.00  0.00     0.167 HD
HETATM   12  C   UNL     1     -42.136 -46.814  10.864  1.00  0.00     0.019 A 
HETATM   13  C   UNL     1     -42.497 -48.142  11.061  1.00  0.00     0.035 A 
BRANCH   8  14
HETATM   14  O   UNL     1     -39.204 -49.604  11.632  1.00  0.00    -0.339 OA
HETATM   15  C   UNL     1     -38.568 -49.351  12.891  1.00  0.00     0.211 C 
ENDBRANCH   8  14
ENDBRANCH   1   7
BRANCH   4  16
HETATM   16  C   UNL     1     -42.804 -52.881  14.225  1.00  0.00     0.099 C 
HETATM   17  C   UNL     1     -42.003 -54.155  14.509  1.00  0.00     0.026 C 
HETATM   18  C   UNL     1     -42.994 -55.170  15.068  1.00  0.00     0.003 C 
HETATM   19  C   UNL     1     -44.188 -54.351  15.547  1.00  0.00     0.016 C 
HETATM   20  C   UNL     1     -44.276 -53.199  14.543  1.00  0.00     0.100 C 
BRANCH  20  21
HETATM   21  C   UNL     1     -45.127 -53.613  13.356  1.00  0.00     0.221 C 
HETATM   22  O   UNL     1     -44.683 -54.066  12.306  1.00  0.00    -0.273 OA
HETATM   23  N   UNL     1     -46.475 -53.505  13.561  1.00  0.00    -0.370 N 
HETATM   24  H   UNL     1     -46.850 -52.921  14.301  1.00  0.00     0.159 HD
HETATM   25  H   UNL     1     -47.079 -53.697  12.773  1.00  0.00     0.159 HD
ENDBRANCH  20  21
ENDBRANCH   4  16
TORSDOF 4
ENDMDL
MODEL 7
REMARK VINA RESULT:      -5.8      2.125      6.913
REMARK  4 active torsions:
REMARK  status: ('A' for Active; 'I' for Inactive)
REMARK    1  A    between atoms: O_2  and  C_3 
REMARK    2  A    between atoms: C_9  and  N_10 
REMARK       I    between atoms: N_10  and  C_11 
REMARK       I    between atoms: C_11  and  N_13 
REMARK    3  A    between atoms: N_13  and  C_14 
REMARK    4  A    between atoms: C_18  and  C_19 
REMARK       I    between atoms: C_19  and  N_21 
ROOT
HETATM    1  N   UNL     1     -44.721 -50.879  12.631  1.00  0.00    -0.305 N 
HETATM    2  C   UNL     1     -43.693 -50.099  13.116  1.00  0.00     0.321 C 
HETATM    3  O   UNL     1     -43.354 -50.016  14.290  1.00  0.00    -0.247 OA
HETATM    4  N   UNL     1     -43.054 -49.351  12.151  1.00  0.00    -0.337 N 
HETATM    5  H   UNL     1     -45.134 -50.608  11.747  1.00  0.00     0.171 HD
HETATM    6  H   UNL     1     -42.916 -49.823  11.260  1.00  0.00     0.164 HD
ENDROOT
BRANCH   1   7
HETATM    7  C   UNL     1     -45.502 -51.754  13.443  1.00  0.00     0.087 A 
HETATM    8  C   UNL     1     -45.471 -53.150  13.285  1.00  0.00     0.169 A 
HETATM    9  N   UNL     1     -46.236 -54.012  14.008  1.00  0.00    -0.345 N 
HETATM   10  C   UNL     1     -47.075 -53.483  14.919  1.00  0.00     0.090 A 
ATOM     11  HN  UNL     1     -46.176 -55.020  13.865  1.00  0.00     0.167 HD
HETATM   12  C   UNL     1     -47.169 -52.132  15.170  1.00  0.00     0.019 A 
HETATM   13  C   UNL     1     -46.362 -51.271  14.436  1.00  0.00     0.035 A 
BRANCH   8  14
HETATM   14  O   UNL     1     -44.628 -53.690  12.327  1.00  0.00    -0.339 OA
HETATM   15  C   UNL     1     -43.332 -53.980  12.863  1.00  0.00     0.211 C 
ENDBRANCH   8  14
ENDBRANCH   1   7
BRANCH   4  16
HETATM   16  C   UNL     1     -41.974 -48.464  12.575  1.00  0.00     0.099 C 
HETATM   17  C   UNL     1     -41.841 -47.189  11.736  1.00  0.00     0.026 C 
HETATM   18  C   UNL     1     -40.357 -47.030  11.426  1.00  0.00     0.003 C 
HETATM   19  C   UNL     1     -39.632 -47.889  12.457  1.00  0.00     0.016 C 
HETATM   20  C   UNL     1     -40.567 -49.083  12.671  1.00  0.00     0.100 C 
BRANCH  20  21
HETATM   21  C   UNL     1     -40.259 -50.168  11.655  1.00  0.00     0.221 C 
HETATM   22  O   UNL     1     -40.944 -51.168  11.476  1.00  0.00    -0.273 OA
HETATM   23  N   UNL     1     -39.161 -49.918  10.877  1.00  0.00    -0.370 N 
HETATM   24  H   UNL     1     -38.457 -49.245  11.159  1.00  0.00     0.159 HD
HETATM   25  H   UNL     1     -38.872 -50.648  10.239  1.00  0.00     0.159 HD
ENDBRANCH  20  21
ENDBRANCH   4  16
TORSDOF 4
ENDMDL
MODEL 8
REMARK VINA RESULT:      -5.6      2.789      7.344
REMARK  4 active torsions:
REMARK  status: ('A' for Active; 'I' for Inactive)
REMARK    1  A    between atoms: O_2  and  C_3 
REMARK    2  A    between atoms: C_9  and  N_10 
REMARK       I    between atoms: N_10  and  C_11 
REMARK       I    between atoms: C_11  and  N_13 
REMARK    3  A    between atoms: N_13  and  C_14 
REMARK    4  A    between atoms: C_18  and  C_19 
REMARK       I    between atoms: C_19  and  N_21 
ROOT
HETATM    1  N   UNL     1     -42.424 -51.935  11.997  1.00  0.00    -0.305 N 
HETATM    2  C   UNL     1     -42.342 -50.616  12.389  1.00  0.00     0.321 C 
HETATM    3  O   UNL     1     -42.822 -50.145  13.412  1.00  0.00    -0.247 OA
HETATM    4  N   UNL     1     -41.676 -49.806  11.493  1.00  0.00    -0.337 N 
HETATM    5  H   UNL     1     -42.318 -52.135  11.010  1.00  0.00     0.171 HD
HETATM    6  H   UNL     1     -40.860 -50.226  11.056  1.00  0.00     0.164 HD
ENDROOT
BRANCH   1   7
HETATM    7  C   UNL     1     -43.043 -52.956  12.778  1.00  0.00     0.087 A 
HETATM    8  C   UNL     1     -42.360 -53.630  13.805  1.00  0.00     0.169 A 
HETATM    9  N   UNL     1     -42.901 -54.640  14.538  1.00  0.00    -0.345 N 
HETATM   10  C   UNL     1     -44.162 -55.012  14.248  1.00  0.00     0.090 A 
ATOM     11  HN  UNL     1     -42.371 -55.098  15.280  1.00  0.00     0.167 HD
HETATM   12  C   UNL     1     -44.928 -54.404  13.278  1.00  0.00     0.019 A 
HETATM   13  C   UNL     1     -44.364 -53.359  12.556  1.00  0.00     0.035 A 
BRANCH   8  14
HETATM   14  O   UNL     1     -41.052 -53.265  14.082  1.00  0.00    -0.339 OA
HETATM   15  C   UNL     1     -40.115 -54.224  13.577  1.00  0.00     0.211 C 
ENDBRANCH   8  14
ENDBRANCH   1   7
BRANCH   4  16
HETATM   16  C   UNL     1     -41.570 -48.383  11.805  1.00  0.00     0.099 C 
HETATM   17  C   UNL     1     -41.593 -47.468  10.577  1.00  0.00     0.026 C 
HETATM   18  C   UNL     1     -40.465 -46.460  10.770  1.00  0.00     0.003 C 
HETATM   19  C   UNL     1     -40.145 -46.488  12.260  1.00  0.00     0.016 C 
HETATM   20  C   UNL     1     -40.366 -47.949  12.661  1.00  0.00     0.100 C 
BRANCH  20  21
HETATM   21  C   UNL     1     -39.090 -48.742  12.445  1.00  0.00     0.221 C 
HETATM   22  O   UNL     1     -38.873 -49.460  11.476  1.00  0.00    -0.273 OA
HETATM   23  N   UNL     1     -38.135 -48.549  13.405  1.00  0.00    -0.370 N 
HETATM   24  H   UNL     1     -38.371 -48.168  14.315  1.00  0.00     0.159 HD
HETATM   25  H   UNL     1     -37.298 -49.114  13.344  1.00  0.00     0.159 HD
ENDBRANCH  20  21
ENDBRANCH   4  16
TORSDOF 4
ENDMDL
MODEL 9
REMARK VINA RESULT:      -5.6      1.789      6.935
REMARK  4 active torsions:
REMARK  status: ('A' for Active; 'I' for Inactive)
REMARK    1  A    between atoms: O_2  and  C_3 
REMARK    2  A    between atoms: C_9  and  N_10 
REMARK       I    between atoms: N_10  and  C_11 
REMARK       I    between atoms: C_11  and  N_13 
REMARK    3  A    between atoms: N_13  and  C_14 
REMARK    4  A    between atoms: C_18  and  C_19 
REMARK       I    between atoms: C_19  and  N_21 
ROOT
HETATM    1  N   UNL     1     -44.946 -50.850  12.962  1.00  0.00    -0.305 N 
HETATM    2  C   UNL     1     -43.734 -50.192  12.972  1.00  0.00     0.321 C 
HETATM    3  O   UNL     1     -42.845 -50.349  13.800  1.00  0.00    -0.247 OA
HETATM    4  N   UNL     1     -43.587 -49.273  11.956  1.00  0.00    -0.337 N 
HETATM    5  H   UNL     1     -45.714 -50.404  12.475  1.00  0.00     0.171 HD
HETATM    6  H   UNL     1     -43.968 -49.558  11.057  1.00  0.00     0.164 HD
ENDROOT
BRANCH   1   7
HETATM    7  C   UNL     1     -45.306 -51.862  13.901  1.00  0.00     0.087 A 
HETATM    8  C   UNL     1     -44.895 -53.198  13.755  1.00  0.00     0.169 A 
HETATM    9  N   UNL     1     -45.257 -54.198  14.603  1.00  0.00    -0.345 N 
HETATM   10  C   UNL     1     -46.064 -53.878  15.633  1.00  0.00     0.090 A 
ATOM     11  HN  UNL     1     -44.930 -55.154  14.465  1.00  0.00     0.167 HD
HETATM   12  C   UNL     1     -46.507 -52.597  15.880  1.00  0.00     0.019 A 
HETATM   13  C   UNL     1     -46.107 -51.587  15.014  1.00  0.00     0.035 A 
BRANCH   8  14
HETATM   14  O   UNL     1     -44.088 -53.531  12.679  1.00  0.00    -0.339 OA
HETATM   15  C   UNL     1     -42.752 -53.838  13.092  1.00  0.00     0.211 C 
ENDBRANCH   8  14
ENDBRANCH   1   7
BRANCH   4  16
HETATM   16  C   UNL     1     -42.349 -48.499  11.906  1.00  0.00     0.099 C 
HETATM   17  C   UNL     1     -42.337 -47.273  12.823  1.00  0.00     0.026 C 
HETATM   18  C   UNL     1     -41.788 -46.119  11.992  1.00  0.00     0.003 C 
HETATM   19  C   UNL     1     -41.058 -46.771  10.823  1.00  0.00     0.016 C 
HETATM   20  C   UNL     1     -41.886 -48.022  10.517  1.00  0.00     0.100 C 
BRANCH  20  21
HETATM   21  C   UNL     1     -42.997 -47.679   9.540  1.00  0.00     0.221 C 
HETATM   22  O   UNL     1     -44.038 -47.108   9.843  1.00  0.00    -0.273 OA
HETATM   23  N   UNL     1     -42.724 -48.003   8.239  1.00  0.00    -0.370 N 
HETATM   24  H   UNL     1     -42.004 -48.677   8.003  1.00  0.00     0.159 HD
HETATM   25  H   UNL     1     -43.464 -47.863   7.564  1.00  0.00     0.159 HD
ENDBRANCH  20  21
ENDBRANCH   4  16
TORSDOF 4
ENDMDL
