MODEL 1
REMARK VINA RESULT:      -5.8      0.000      0.000
REMARK  6 active torsions:
REMARK  status: ('A' for Active; 'I' for Inactive)
REMARK    1  A    between atoms: N_7  and  C_13 
REMARK    2  A    between atoms: C_10  and  N_14 
REMARK    3  A    between atoms: C_13  and  O_15 
REMARK    4  A    between atoms: O_15  and  C_18 
REMARK    5  A    between atoms: O_16  and  C_17 
REMARK    6  A    between atoms: C_17  and  C_18 
ROOT
HETATM    1  C   UNL     1     -42.692 -47.640  10.371  1.00  0.00     0.145 A 
HETATM    2  C   UNL     1     -43.149 -46.347  10.406  1.00  0.00     0.146 A 
HETATM    3  N   UNL     1     -43.464 -46.489   8.005  1.00  0.00    -0.298 N 
ATOM      4  HN  UNL     1     -43.747 -46.113   7.100  1.00  0.00     0.171 HD
HETATM    5  N   UNL     1     -42.611 -48.344   9.234  1.00  0.00    -0.317 N 
HETATM    6  C   UNL     1     -43.552 -45.691   9.153  1.00  0.00     0.278 A 
HETATM    7  N   UNL     1     -42.381 -47.986  11.644  1.00  0.00    -0.305 N 
HETATM    8  N   UNL     1     -43.141 -45.885  11.703  1.00  0.00    -0.345 N 
ATOM      9  HN  UNL     1     -43.428 -44.965  12.037  1.00  0.00     0.167 HD
HETATM   10  C   UNL     1     -43.021 -47.710   8.090  1.00  0.00     0.159 A 
HETATM   11  C   UNL     1     -42.681 -46.893  12.421  1.00  0.00     0.187 A 
HETATM   12  O   UNL     1     -43.944 -44.530   9.117  1.00  0.00    -0.265 OA
HETATM   13  H   UNL     1     -42.244 -49.285   9.181  1.00  0.00     0.170 HD
ENDROOT
BRANCH   7  14
HETATM   14  C   UNL     1     -41.897 -49.259  12.132  1.00  0.00     0.301 C 
BRANCH  14  15
HETATM   15  O   UNL     1     -40.775 -49.646  11.340  1.00  0.00    -0.369 OA
BRANCH  15  16
HETATM   16  C   UNL     1     -40.088 -50.754  11.921  1.00  0.00     0.196 C 
BRANCH  16  17
HETATM   17  C   UNL     1     -41.077 -51.885  12.181  1.00  0.00     0.190 C 
BRANCH  17  18
HETATM   18  O   UNL     1     -41.247 -52.655  10.999  1.00  0.00    -0.399 OA
HETATM   19  H   UNL     1     -41.137 -53.589  11.250  1.00  0.00     0.209 HD
ENDBRANCH  17  18
ENDBRANCH  16  17
ENDBRANCH  15  16
ENDBRANCH  14  15
ENDBRANCH   7  14
BRANCH  10  20
HETATM   20  N   UNL     1     -42.971 -48.497   6.985  1.00  0.00    -0.274 NA
HETATM   21  H   UNL     1     -43.890 -48.855   6.741  1.00  0.00     0.127 HD
HETATM   22  H   UNL     1     -42.474 -48.135   6.183  1.00  0.00     0.127 HD
ENDBRANCH  10  20
TORSDOF 6
ENDMDL
MODEL 2
REMARK VINA RESULT:      -5.7      1.154      1.501
REMARK  6 active torsions:
REMARK  status: ('A' for Active; 'I' for Inactive)
REMARK    1  A    between atoms: N_7  and  C_13 
REMARK    2  A    between atoms: C_10  and  N_14 
REMARK    3  A    between atoms: C_13  and  O_15 
REMARK    4  A    between atoms: O_15  and  C_18 
REMARK    5  A    between atoms: O_16  and  C_17 
REMARK    6  A    between atoms: C_17  and  C_18 
ROOT
HETATM    1  C   UNL     1     -42.595 -47.630  10.350  1.00  0.00     0.145 A 
HETATM    2  C   UNL     1     -43.087 -46.350  10.399  1.00  0.00     0.146 A 
HETATM    3  N   UNL     1     -43.498 -46.515   8.013  1.00  0.00    -0.298 N 
ATOM      4  HN  UNL     1     -43.830 -46.152   7.120  1.00  0.00     0.171 HD
HETATM    5  N   UNL     1     -42.542 -48.338   9.214  1.00  0.00    -0.317 N 
HETATM    6  C   UNL     1     -43.560 -45.713   9.161  1.00  0.00     0.278 A 
HETATM    7  N   UNL     1     -42.221 -47.960  11.611  1.00  0.00    -0.305 N 
HETATM    8  N   UNL     1     -43.038 -45.880  11.692  1.00  0.00    -0.345 N 
ATOM      9  HN  UNL     1     -43.336 -44.967  12.033  1.00  0.00     0.167 HD
HETATM   10  C   UNL     1     -43.017 -47.722   8.085  1.00  0.00     0.159 A 
HETATM   11  C   UNL     1     -42.519 -46.871  12.395  1.00  0.00     0.187 A 
HETATM   12  O   UNL     1     -43.987 -44.564   9.136  1.00  0.00    -0.265 OA
HETATM   13  H   UNL     1     -42.150 -49.269   9.151  1.00  0.00     0.170 HD
ENDROOT
BRANCH   7  14
HETATM   14  C   UNL     1     -41.680 -49.216  12.084  1.00  0.00     0.301 C 
BRANCH  14  15
HETATM   15  O   UNL     1     -40.588 -49.579  11.242  1.00  0.00    -0.369 OA
BRANCH  15  16
HETATM   16  C   UNL     1     -39.369 -48.992  11.693  1.00  0.00     0.196 C 
BRANCH  16  17
HETATM   17  C   UNL     1     -38.267 -50.045  11.697  1.00  0.00     0.190 C 
BRANCH  17  18
HETATM   18  O   UNL     1     -37.579 -50.025  10.454  1.00  0.00    -0.399 OA
HETATM   19  H   UNL     1     -37.413 -49.091  10.236  1.00  0.00     0.209 HD
ENDBRANCH  17  18
ENDBRANCH  16  17
ENDBRANCH  15  16
ENDBRANCH  14  15
ENDBRANCH   7  14
BRANCH  10  20
HETATM   20  N   UNL     1     -42.991 -48.514   6.983  1.00  0.00    -0.274 NA
HETATM   21  H   UNL     1     -43.235 -47.994   6.145  1.00  0.00     0.127 HD
HETATM   22  H   UNL     1     -42.174 -49.093   6.851  1.00  0.00     0.127 HD
ENDBRANCH  10  20
TORSDOF 6
ENDMDL
MODEL 3
REMARK VINA RESULT:      -5.7      4.875      7.086
REMARK  6 active torsions:
REMARK  status: ('A' for Active; 'I' for Inactive)
REMARK    1  A    between atoms: N_7  and  C_13 
REMARK    2  A    between atoms: C_10  and  N_14 
REMARK    3  A    between atoms: C_13  and  O_15 
REMARK    4  A    between atoms: O_15  and  C_18 
REMARK    5  A    between atoms: O_16  and  C_17 
REMARK    6  A    between atoms: C_17  and  C_18 
ROOT
HETATM    1  C   UNL     1     -43.472 -53.422  13.099  1.00  0.00     0.145 A 
HETATM    2  C   UNL     1     -43.907 -54.126  14.193  1.00  0.00     0.146 A 
HETATM    3  N   UNL     1     -46.176 -53.580  13.527  1.00  0.00    -0.298 N 
ATOM      4  HN  UNL     1     -47.189 -53.616  13.635  1.00  0.00     0.171 HD
HETATM    5  N   UNL     1     -44.314 -52.819  12.249  1.00  0.00    -0.317 N 
HETATM    6  C   UNL     1     -45.350 -54.213  14.465  1.00  0.00     0.278 A 
HETATM    7  N   UNL     1     -42.118 -53.490  13.096  1.00  0.00    -0.305 N 
HETATM    8  N   UNL     1     -42.829 -54.650  14.870  1.00  0.00    -0.345 N 
ATOM      9  HN  UNL     1     -42.843 -55.219  15.716  1.00  0.00     0.167 HD
HETATM   10  C   UNL     1     -45.652 -52.945  12.519  1.00  0.00     0.159 A 
HETATM   11  C   UNL     1     -41.772 -54.256  14.183  1.00  0.00     0.187 A 
HETATM   12  O   UNL     1     -45.798 -54.806  15.440  1.00  0.00    -0.265 OA
HETATM   13  H   UNL     1     -44.012 -52.266  11.457  1.00  0.00     0.170 HD
ENDROOT
BRANCH   7  14
HETATM   14  C   UNL     1     -41.197 -52.942  12.124  1.00  0.00     0.301 C 
BRANCH  14  15
HETATM   15  O   UNL     1     -41.586 -51.598  11.847  1.00  0.00    -0.369 OA
BRANCH  15  16
HETATM   16  C   UNL     1     -40.756 -50.665  12.538  1.00  0.00     0.196 C 
BRANCH  16  17
HETATM   17  C   UNL     1     -39.983 -49.826  11.528  1.00  0.00     0.190 C 
BRANCH  17  18
HETATM   18  O   UNL     1     -40.515 -50.030  10.226  1.00  0.00    -0.399 OA
HETATM   19  H   UNL     1     -40.591 -49.153   9.810  1.00  0.00     0.209 HD
ENDBRANCH  17  18
ENDBRANCH  16  17
ENDBRANCH  15  16
ENDBRANCH  14  15
ENDBRANCH   7  14
BRANCH  10  20
HETATM   20  N   UNL     1     -46.451 -52.363  11.589  1.00  0.00    -0.274 NA
HETATM   21  H   UNL     1     -46.297 -51.359  11.541  1.00  0.00     0.127 HD
HETATM   22  H   UNL     1     -46.481 -52.791  10.674  1.00  0.00     0.127 HD
ENDBRANCH  10  20
TORSDOF 6
ENDMDL
MODEL 4
REMARK VINA RESULT:      -5.3      2.815      4.686
REMARK  6 active torsions:
REMARK  status: ('A' for Active; 'I' for Inactive)
REMARK    1  A    between atoms: N_7  and  C_13 
REMARK    2  A    between atoms: C_10  and  N_14 
REMARK    3  A    between atoms: C_13  and  O_15 
REMARK    4  A    between atoms: O_15  and  C_18 
REMARK    5  A    between atoms: O_16  and  C_17 
REMARK    6  A    between atoms: C_17  and  C_18 
ROOT
HETATM    1  C   UNL     1     -42.114 -46.447  10.544  1.00  0.00     0.145 A 
HETATM    2  C   UNL     1     -42.762 -47.422   9.828  1.00  0.00     0.146 A 
HETATM    3  N   UNL     1     -44.328 -45.718   9.101  1.00  0.00    -0.298 N 
ATOM      4  HN  UNL     1     -45.139 -45.391   8.575  1.00  0.00     0.171 HD
HETATM    5  N   UNL     1     -42.525 -45.173  10.560  1.00  0.00    -0.317 N 
HETATM    6  C   UNL     1     -43.965 -47.071   9.059  1.00  0.00     0.278 A 
HETATM    7  N   UNL     1     -41.062 -47.041  11.160  1.00  0.00    -0.305 N 
HETATM    8  N   UNL     1     -42.109 -48.625   9.980  1.00  0.00    -0.345 N 
ATOM      9  HN  UNL     1     -42.358 -49.523   9.566  1.00  0.00     0.167 HD
HETATM   10  C   UNL     1     -43.634 -44.876   9.810  1.00  0.00     0.159 A 
HETATM   11  C   UNL     1     -41.092 -48.361  10.780  1.00  0.00     0.187 A 
HETATM   12  O   UNL     1     -44.601 -47.901   8.421  1.00  0.00    -0.265 OA
HETATM   13  H   UNL     1     -42.082 -44.447  11.110  1.00  0.00     0.170 HD
ENDROOT
BRANCH   7  14
HETATM   14  C   UNL     1     -40.054 -46.428  11.998  1.00  0.00     0.301 C 
BRANCH  14  15
HETATM   15  O   UNL     1     -39.735 -45.150  11.452  1.00  0.00    -0.369 OA
BRANCH  15  16
HETATM   16  C   UNL     1     -39.715 -44.144  12.464  1.00  0.00     0.196 C 
BRANCH  16  17
HETATM   17  C   UNL     1     -40.229 -42.831  11.887  1.00  0.00     0.190 C 
BRANCH  17  18
HETATM   18  O   UNL     1     -40.699 -43.039  10.562  1.00  0.00    -0.399 OA
HETATM   19  H   UNL     1     -39.925 -43.273  10.020  1.00  0.00     0.209 HD
ENDBRANCH  17  18
ENDBRANCH  16  17
ENDBRANCH  15  16
ENDBRANCH  14  15
ENDBRANCH   7  14
BRANCH  10  20
HETATM   20  N   UNL     1     -43.960 -43.560   9.822  1.00  0.00    -0.274 NA
HETATM   21  H   UNL     1     -44.422 -43.282   8.960  1.00  0.00     0.127 HD
HETATM   22  H   UNL     1     -44.436 -43.209  10.641  1.00  0.00     0.127 HD
ENDBRANCH  10  20
TORSDOF 6
ENDMDL
MODEL 5
REMARK VINA RESULT:      -5.3      2.780      5.632
REMARK  6 active torsions:
REMARK  status: ('A' for Active; 'I' for Inactive)
REMARK    1  A    between atoms: N_7  and  C_13 
REMARK    2  A    between atoms: C_10  and  N_14 
REMARK    3  A    between atoms: C_13  and  O_15 
REMARK    4  A    between atoms: O_15  and  C_18 
REMARK    5  A    between atoms: O_16  and  C_17 
REMARK    6  A    between atoms: C_17  and  C_18 
ROOT
HETATM    1  C   UNL     1     -40.963 -49.678  11.768  1.00  0.00     0.145 A 
HETATM    2  C   UNL     1     -39.726 -50.042  12.237  1.00  0.00     0.146 A 
HETATM    3  N   UNL     1     -40.581 -52.300  12.472  1.00  0.00    -0.298 N 
ATOM      4  HN  UNL     1     -40.489 -53.288  12.709  1.00  0.00     0.171 HD
HETATM    5  N   UNL     1     -41.972 -50.550  11.647  1.00  0.00    -0.317 N 
HETATM    6  C   UNL     1     -39.492 -51.435  12.644  1.00  0.00     0.278 A 
HETATM    7  N   UNL     1     -40.906 -48.353  11.484  1.00  0.00    -0.305 N 
HETATM    8  N   UNL     1     -38.886 -48.951  12.234  1.00  0.00    -0.345 N 
ATOM      9  HN  UNL     1     -37.910 -48.918  12.526  1.00  0.00     0.167 HD
HETATM   10  C   UNL     1     -41.709 -51.846  12.009  1.00  0.00     0.159 A 
HETATM   11  C   UNL     1     -39.622 -47.956  11.772  1.00  0.00     0.187 A 
HETATM   12  O   UNL     1     -38.417 -51.815  13.095  1.00  0.00    -0.265 OA
HETATM   13  H   UNL     1     -42.901 -50.295  11.337  1.00  0.00     0.170 HD
ENDROOT
BRANCH   7  14
HETATM   14  C   UNL     1     -41.943 -47.513  10.926  1.00  0.00     0.301 C 
BRANCH  14  15
HETATM   15  O   UNL     1     -42.341 -48.065   9.673  1.00  0.00    -0.369 OA
BRANCH  15  16
HETATM   16  C   UNL     1     -43.348 -47.267   9.052  1.00  0.00     0.196 C 
BRANCH  16  17
HETATM   17  C   UNL     1     -43.765 -47.909   7.734  1.00  0.00     0.190 C 
BRANCH  17  18
HETATM   18  O   UNL     1     -42.656 -48.580   7.154  1.00  0.00    -0.399 OA
HETATM   19  H   UNL     1     -43.003 -49.377   6.716  1.00  0.00     0.209 HD
ENDBRANCH  17  18
ENDBRANCH  16  17
ENDBRANCH  15  16
ENDBRANCH  14  15
ENDBRANCH   7  14
BRANCH  10  20
HETATM   20  N   UNL     1     -42.753 -52.689  11.806  1.00  0.00    -0.274 NA
HETATM   21  H   UNL     1     -42.542 -53.629  12.129  1.00  0.00     0.127 HD
HETATM   22  H   UNL     1     -43.665 -52.375  12.107  1.00  0.00     0.127 HD
ENDBRANCH  10  20
TORSDOF 6
ENDMDL
MODEL 6
REMARK VINA RESULT:      -5.1      2.501      5.197
REMARK  6 active torsions:
REMARK  status: ('A' for Active; 'I' for Inactive)
REMARK    1  A    between atoms: N_7  and  C_13 
REMARK    2  A    between atoms: C_10  and  N_14 
REMARK    3  A    between atoms: C_13  and  O_15 
REMARK    4  A    between atoms: O_15  and  C_18 
REMARK    5  A    between atoms: O_16  and  C_17 
REMARK    6  A    between atoms: C_17  and  C_18 
ROOT
HETATM    1  C   UNL     1     -41.105 -46.263  10.847  1.00  0.00     0.145 A 
HETATM    2  C   UNL     1     -41.089 -47.435  11.560  1.00  0.00     0.146 A 
HETATM    3  N   UNL     1     -42.664 -48.330   9.946  1.00  0.00    -0.298 N 
ATOM      4  HN  UNL     1     -43.253 -49.070   9.563  1.00  0.00     0.171 HD
HETATM    5  N   UNL     1     -41.847 -46.101   9.744  1.00  0.00    -0.317 N 
HETATM    6  C   UNL     1     -41.929 -48.558  11.118  1.00  0.00     0.278 A 
HETATM    7  N   UNL     1     -40.263 -45.405  11.474  1.00  0.00    -0.305 N 
HETATM    8  N   UNL     1     -40.226 -47.321  12.626  1.00  0.00    -0.345 N 
ATOM      9  HN  UNL     1     -40.007 -48.029  13.327  1.00  0.00     0.167 HD
HETATM   10  C   UNL     1     -42.597 -47.178   9.346  1.00  0.00     0.159 A 
HETATM   11  C   UNL     1     -39.742 -46.094  12.544  1.00  0.00     0.187 A 
HETATM   12  O   UNL     1     -41.977 -49.620  11.727  1.00  0.00    -0.265 OA
HETATM   13  H   UNL     1     -41.900 -45.234   9.225  1.00  0.00     0.170 HD
ENDROOT
BRANCH   7  14
HETATM   14  C   UNL     1     -39.907 -44.058  11.087  1.00  0.00     0.301 C 
BRANCH  14  15
HETATM   15  O   UNL     1     -41.057 -43.436  10.516  1.00  0.00    -0.369 OA
BRANCH  15  16
HETATM   16  C   UNL     1     -41.886 -42.857  11.522  1.00  0.00     0.196 C 
BRANCH  16  17
HETATM   17  C   UNL     1     -43.272 -42.588  10.947  1.00  0.00     0.190 C 
BRANCH  17  18
HETATM   18  O   UNL     1     -43.630 -43.631  10.052  1.00  0.00    -0.399 OA
HETATM   19  H   UNL     1     -44.047 -43.211   9.279  1.00  0.00     0.209 HD
ENDBRANCH  17  18
ENDBRANCH  16  17
ENDBRANCH  15  16
ENDBRANCH  14  15
ENDBRANCH   7  14
BRANCH  10  20
HETATM   20  N   UNL     1     -43.277 -46.968   8.191  1.00  0.00    -0.274 NA
HETATM   21  H   UNL     1     -42.653 -46.712   7.431  1.00  0.00     0.127 HD
HETATM   22  H   UNL     1     -43.948 -47.672   7.916  1.00  0.00     0.127 HD
ENDBRANCH  10  20
TORSDOF 6
ENDMDL
MODEL 7
REMARK VINA RESULT:      -5.1      3.919      5.715
REMARK  6 active torsions:
REMARK  status: ('A' for Active; 'I' for Inactive)
REMARK    1  A    between atoms: N_7  and  C_13 
REMARK    2  A    between atoms: C_10  and  N_14 
REMARK    3  A    between atoms: C_13  and  O_15 
REMARK    4  A    between atoms: O_15  and  C_18 
REMARK    5  A    between atoms: O_16  and  C_17 
REMARK    6  A    between atoms: C_17  and  C_18 
ROOT
HETATM    1  C   UNL     1     -40.343 -51.548  12.384  1.00  0.00     0.145 A 
HETATM    2  C   UNL     1     -39.140 -51.102  12.872  1.00  0.00     0.146 A 
HETATM    3  N   UNL     1     -39.355 -49.190  11.394  1.00  0.00    -0.298 N 
ATOM      4  HN  UNL     1     -39.038 -48.304  11.001  1.00  0.00     0.171 HD
HETATM    5  N   UNL     1     -41.035 -50.879  11.454  1.00  0.00    -0.317 N 
HETATM    6  C   UNL     1     -38.570 -49.852  12.348  1.00  0.00     0.278 A 
HETATM    7  N   UNL     1     -40.621 -52.713  13.021  1.00  0.00    -0.305 N 
HETATM    8  N   UNL     1     -38.670 -51.977  13.826  1.00  0.00    -0.345 N 
ATOM      9  HN  UNL     1     -37.805 -51.906  14.362  1.00  0.00     0.167 HD
HETATM   10  C   UNL     1     -40.487 -49.703  11.009  1.00  0.00     0.159 A 
HETATM   11  C   UNL     1     -39.584 -52.928  13.896  1.00  0.00     0.187 A 
HETATM   12  O   UNL     1     -37.489 -49.416  12.726  1.00  0.00    -0.265 OA
HETATM   13  H   UNL     1     -41.905 -51.208  11.056  1.00  0.00     0.170 HD
ENDROOT
BRANCH   7  14
HETATM   14  C   UNL     1     -41.795 -53.548  12.883  1.00  0.00     0.301 C 
BRANCH  14  15
HETATM   15  O   UNL     1     -42.937 -52.702  12.766  1.00  0.00    -0.369 OA
BRANCH  15  16
HETATM   16  C   UNL     1     -44.101 -53.449  12.416  1.00  0.00     0.196 C 
BRANCH  16  17
HETATM   17  C   UNL     1     -45.347 -52.646  12.774  1.00  0.00     0.190 C 
BRANCH  17  18
HETATM   18  O   UNL     1     -46.279 -52.705  11.704  1.00  0.00    -0.399 OA
HETATM   19  H   UNL     1     -45.776 -52.926  10.901  1.00  0.00     0.209 HD
ENDBRANCH  17  18
ENDBRANCH  16  17
ENDBRANCH  15  16
ENDBRANCH  14  15
ENDBRANCH   7  14
BRANCH  10  20
HETATM   20  N   UNL     1     -41.266 -49.046  10.114  1.00  0.00    -0.274 NA
HETATM   21  H   UNL     1     -41.507 -48.114  10.442  1.00  0.00     0.127 HD
HETATM   22  H   UNL     1     -40.963 -49.046   9.150  1.00  0.00     0.127 HD
ENDBRANCH  10  20
TORSDOF 6
ENDMDL
MODEL 8
REMARK VINA RESULT:      -5.0      2.440      3.157
REMARK  6 active torsions:
REMARK  status: ('A' for Active; 'I' for Inactive)
REMARK    1  A    between atoms: N_7  and  C_13 
REMARK    2  A    between atoms: C_10  and  N_14 
REMARK    3  A    between atoms: C_13  and  O_15 
REMARK    4  A    between atoms: O_15  and  C_18 
REMARK    5  A    between atoms: O_16  and  C_17 
REMARK    6  A    between atoms: C_17  and  C_18 
ROOT
HETATM    1  C   UNL     1     -41.055 -47.959  11.510  1.00  0.00     0.145 A 
HETATM    2  C   UNL     1     -42.293 -48.261  11.003  1.00  0.00     0.146 A 
HETATM    3  N   UNL     1     -42.137 -46.241   9.668  1.00  0.00    -0.298 N 
ATOM      4  HN  UNL     1     -42.489 -45.575   8.980  1.00  0.00     0.171 HD
HETATM    5  N   UNL     1     -40.371 -46.869  11.139  1.00  0.00    -0.317 N 
HETATM    6  C   UNL     1     -42.914 -47.350  10.029  1.00  0.00     0.278 A 
HETATM    7  N   UNL     1     -40.733 -48.945  12.384  1.00  0.00    -0.305 N 
HETATM    8  N   UNL     1     -42.744 -49.443  11.545  1.00  0.00    -0.345 N 
ATOM      9  HN  UNL     1     -43.628 -49.917  11.356  1.00  0.00     0.167 HD
HETATM   10  C   UNL     1     -40.968 -46.058  10.209  1.00  0.00     0.159 A 
HETATM   11  C   UNL     1     -41.784 -49.831  12.365  1.00  0.00     0.187 A 
HETATM   12  O   UNL     1     -44.028 -47.552   9.560  1.00  0.00    -0.265 OA
HETATM   13  H   UNL     1     -39.473 -46.611  11.528  1.00  0.00     0.170 HD
ENDROOT
BRANCH   7  14
HETATM   14  C   UNL     1     -39.513 -49.102  13.145  1.00  0.00     0.301 C 
BRANCH  14  15
HETATM   15  O   UNL     1     -38.416 -48.719  12.318  1.00  0.00    -0.369 OA
BRANCH  15  16
HETATM   16  C   UNL     1     -37.860 -49.845  11.642  1.00  0.00     0.196 C 
BRANCH  16  17
HETATM   17  C   UNL     1     -37.481 -50.915  12.660  1.00  0.00     0.190 C 
BRANCH  17  18
HETATM   18  O   UNL     1     -36.731 -51.940  12.024  1.00  0.00    -0.399 OA
HETATM   19  H   UNL     1     -35.848 -51.574  11.839  1.00  0.00     0.209 HD
ENDBRANCH  17  18
ENDBRANCH  16  17
ENDBRANCH  15  16
ENDBRANCH  14  15
ENDBRANCH   7  14
BRANCH  10  20
HETATM   20  N   UNL     1     -40.199 -45.005   9.834  1.00  0.00    -0.274 NA
HETATM   21  H   UNL     1     -39.416 -45.302   9.257  1.00  0.00     0.127 HD
HETATM   22  H   UNL     1     -40.673 -44.200   9.451  1.00  0.00     0.127 HD
ENDBRANCH  10  20
TORSDOF 6
ENDMDL
MODEL 9
REMARK VINA RESULT:      -5.0      5.656      7.708
REMARK  6 active torsions:
REMARK  status: ('A' for Active; 'I' for Inactive)
REMARK    1  A    between atoms: N_7  and  C_13 
REMARK    2  A    between atoms: C_10  and  N_14 
REMARK    3  A    between atoms: C_13  and  O_15 
REMARK    4  A    between atoms: O_15  and  C_18 
REMARK    5  A    between atoms: O_16  and  C_17 
REMARK    6  A    between atoms: C_17  and  C_18 
ROOT
HETATM    1  C   UNL     1     -41.627 -53.753  13.963  1.00  0.00     0.145 A 
HETATM    2  C   UNL     1     -42.926 -54.145  13.755  1.00  0.00     0.146 A 
HETATM    3  N   UNL     1     -42.934 -52.740  11.776  1.00  0.00    -0.298 N 
ATOM      4  HN  UNL     1     -43.371 -52.343  10.944  1.00  0.00     0.171 HD
HETATM    5  N   UNL     1     -40.991 -52.904  13.146  1.00  0.00    -0.317 N 
HETATM    6  C   UNL     1     -43.664 -53.605  12.603  1.00  0.00     0.278 A 
HETATM    7  N   UNL     1     -41.199 -54.381  15.086  1.00  0.00    -0.305 N 
HETATM    8  N   UNL     1     -43.309 -55.032  14.736  1.00  0.00    -0.345 N 
ATOM      9  HN  UNL     1     -44.213 -55.492  14.839  1.00  0.00     0.167 HD
HETATM   10  C   UNL     1     -41.702 -52.443  12.068  1.00  0.00     0.159 A 
HETATM   11  C   UNL     1     -42.249 -55.157  15.514  1.00  0.00     0.187 A 
HETATM   12  O   UNL     1     -44.833 -53.898  12.378  1.00  0.00    -0.265 OA
HETATM   13  H   UNL     1     -40.047 -52.575  13.302  1.00  0.00     0.170 HD
ENDROOT
BRANCH   7  14
HETATM   14  C   UNL     1     -39.889 -54.326  15.697  1.00  0.00     0.301 C 
BRANCH  14  15
HETATM   15  O   UNL     1     -39.165 -55.493  15.312  1.00  0.00    -0.369 OA
BRANCH  15  16
HETATM   16  C   UNL     1     -38.429 -56.031  16.410  1.00  0.00     0.196 C 
BRANCH  16  17
HETATM   17  C   UNL     1     -39.395 -56.632  17.424  1.00  0.00     0.190 C 
BRANCH  17  18
HETATM   18  O   UNL     1     -39.824 -57.911  16.980  1.00  0.00    -0.399 OA
HETATM   19  H   UNL     1     -40.142 -58.393  17.764  1.00  0.00     0.209 HD
ENDBRANCH  17  18
ENDBRANCH  16  17
ENDBRANCH  15  16
ENDBRANCH  14  15
ENDBRANCH   7  14
BRANCH  10  20
HETATM   20  N   UNL     1     -40.982 -51.636  11.248  1.00  0.00    -0.274 NA
HETATM   21  H   UNL     1     -40.224 -51.177  11.748  1.00  0.00     0.127 HD
HETATM   22  H   UNL     1     -40.679 -52.025  10.366  1.00  0.00     0.127 HD
ENDBRANCH  10  20
TORSDOF 6
ENDMDL
