MODEL 1
REMARK VINA RESULT:      -7.1      0.000      0.000
REMARK  6 active torsions:
REMARK  status: ('A' for Active; 'I' for Inactive)
REMARK       I    between atoms: N_1  and  C_2 
REMARK    1  A    between atoms: C_2  and  C_4 
REMARK    2  A    between atoms: C_4  and  C_5 
REMARK    3  A    between atoms: N_14  and  C_15 
REMARK    4  A    between atoms: C_15  and  C_16 
REMARK    5  A    between atoms: C_16  and  O_17 
REMARK    6  A    between atoms: C_16  and  C_18 
ROOT
HETATM    1  C   UNL     1     -39.302 -48.856  12.119  1.00  0.00     0.093 A 
HETATM    2  N   UNL     1     -39.482 -47.763  11.398  1.00  0.00    -0.344 N 
ATOM      3  HN  UNL     1     -38.758 -47.137  11.044  1.00  0.00     0.167 HD
HETATM    4  C   UNL     1     -40.832 -47.638  11.221  1.00  0.00     0.060 A 
HETATM    5  C   UNL     1     -41.545 -46.652  10.525  1.00  0.00     0.032 A 
HETATM    6  C   UNL     1     -42.940 -46.734  10.481  1.00  0.00     0.002 A 
HETATM    7  C   UNL     1     -43.609 -47.777  11.121  1.00  0.00     0.002 A 
HETATM    8  C   UNL     1     -42.911 -48.771  11.820  1.00  0.00     0.032 A 
HETATM    9  C   UNL     1     -41.515 -48.675  11.851  1.00  0.00     0.062 A 
HETATM   10  N   UNL     1     -40.516 -49.446  12.414  1.00  0.00    -0.332 N 
ENDROOT
BRANCH  10  11
HETATM   11  C   UNL     1     -40.723 -50.706  13.115  1.00  0.00     0.167 C 
BRANCH  11  12
HETATM   12  C   UNL     1     -41.184 -51.848  12.192  1.00  0.00     0.169 C 
BRANCH  12  13
HETATM   13  O   UNL     1     -40.078 -52.649  11.771  1.00  0.00    -0.389 OA
HETATM   14  H   UNL     1     -39.546 -52.135  11.142  1.00  0.00     0.210 HD
ENDBRANCH  12  13
BRANCH  12  15
HETATM   15  C   UNL     1     -42.215 -52.789  12.796  1.00  0.00    -0.028 A 
HETATM   16  C   UNL     1     -43.532 -52.758  12.298  1.00  0.00     0.013 A 
HETATM   17  C   UNL     1     -44.518 -53.603  12.810  1.00  0.00     0.043 A 
HETATM   18  C   UNL     1     -44.194 -54.498  13.820  1.00  0.00     0.116 A 
HETATM   19  F   UNL     1     -45.137 -55.310  14.314  1.00  0.00    -0.206 F 
HETATM   20  C   UNL     1     -42.901 -54.563  14.320  1.00  0.00     0.043 A 
HETATM   21  C   UNL     1     -41.911 -53.718  13.807  1.00  0.00     0.013 A 
ENDBRANCH  12  15
ENDBRANCH  11  12
ENDBRANCH  10  11
BRANCH   1  22
HETATM   22  C   UNL     1     -37.960 -49.363  12.542  1.00  0.00     0.179 C 
BRANCH  22  23
HETATM   23  C   UNL     1     -37.443 -50.423  11.583  1.00  0.00     0.222 C 
HETATM   24  N   UNL     1     -37.313 -50.069  10.273  1.00  0.00    -0.370 N 
HETATM   25  H   UNL     1     -36.907 -50.732   9.629  1.00  0.00     0.159 HD
HETATM   26  H   UNL     1     -37.328 -49.083  10.014  1.00  0.00     0.159 HD
HETATM   27  O   UNL     1     -37.221 -51.578  11.944  1.00  0.00    -0.273 OA
ENDBRANCH  22  23
ENDBRANCH   1  22
TORSDOF 6
ENDMDL
MODEL 2
REMARK VINA RESULT:      -6.8      2.850      5.834
REMARK  6 active torsions:
REMARK  status: ('A' for Active; 'I' for Inactive)
REMARK       I    between atoms: N_1  and  C_2 
REMARK    1  A    between atoms: C_2  and  C_4 
REMARK    2  A    between atoms: C_4  and  C_5 
REMARK    3  A    between atoms: N_14  and  C_15 
REMARK    4  A    between atoms: C_15  and  C_16 
REMARK    5  A    between atoms: C_16  and  O_17 
REMARK    6  A    between atoms: C_16  and  C_18 
ROOT
HETATM    1  C   UNL     1     -39.514 -51.127  13.068  1.00  0.00     0.093 A 
HETATM    2  N   UNL     1     -39.578 -52.421  13.329  1.00  0.00    -0.344 N 
ATOM      3  HN  UNL     1     -38.797 -53.043  13.536  1.00  0.00     0.167 HD
HETATM    4  C   UNL     1     -40.901 -52.759  13.264  1.00  0.00     0.060 A 
HETATM    5  C   UNL     1     -41.505 -54.008  13.468  1.00  0.00     0.032 A 
HETATM    6  C   UNL     1     -42.895 -54.112  13.347  1.00  0.00     0.002 A 
HETATM    7  C   UNL     1     -43.664 -52.994  13.028  1.00  0.00     0.002 A 
HETATM    8  C   UNL     1     -43.076 -51.738  12.824  1.00  0.00     0.032 A 
HETATM    9  C   UNL     1     -41.685 -51.651  12.951  1.00  0.00     0.062 A 
HETATM   10  N   UNL     1     -40.776 -50.616  12.836  1.00  0.00    -0.332 N 
ENDROOT
BRANCH  10  11
HETATM   11  C   UNL     1     -41.121 -49.221  12.600  1.00  0.00     0.167 C 
BRANCH  11  12
HETATM   12  C   UNL     1     -40.710 -48.720  11.203  1.00  0.00     0.169 C 
BRANCH  12  13
HETATM   13  O   UNL     1     -40.654 -49.796  10.266  1.00  0.00    -0.389 OA
HETATM   14  H   UNL     1     -40.816 -49.440   9.377  1.00  0.00     0.210 HD
ENDBRANCH  12  13
BRANCH  12  15
HETATM   15  C   UNL     1     -41.617 -47.654  10.609  1.00  0.00    -0.028 A 
HETATM   16  C   UNL     1     -42.595 -48.044   9.673  1.00  0.00     0.013 A 
HETATM   17  C   UNL     1     -43.460 -47.110   9.100  1.00  0.00     0.043 A 
HETATM   18  C   UNL     1     -43.363 -45.775   9.466  1.00  0.00     0.116 A 
HETATM   19  F   UNL     1     -44.190 -44.876   8.918  1.00  0.00    -0.206 F 
HETATM   20  C   UNL     1     -42.420 -45.362  10.398  1.00  0.00     0.043 A 
HETATM   21  C   UNL     1     -41.554 -46.297  10.974  1.00  0.00     0.013 A 
ENDBRANCH  12  15
ENDBRANCH  11  12
ENDBRANCH  10  11
BRANCH   1  22
HETATM   22  C   UNL     1     -38.238 -50.346  13.036  1.00  0.00     0.179 C 
BRANCH  22  23
HETATM   23  C   UNL     1     -37.370 -50.754  11.858  1.00  0.00     0.222 C 
HETATM   24  N   UNL     1     -37.449 -49.992  10.730  1.00  0.00    -0.370 N 
HETATM   25  H   UNL     1     -36.832 -50.200   9.959  1.00  0.00     0.159 HD
HETATM   26  H   UNL     1     -37.878 -49.067  10.777  1.00  0.00     0.159 HD
HETATM   27  O   UNL     1     -36.679 -51.772  11.877  1.00  0.00    -0.273 OA
ENDBRANCH  22  23
ENDBRANCH   1  22
TORSDOF 6
ENDMDL
MODEL 3
REMARK VINA RESULT:      -6.7      2.599      4.781
REMARK  6 active torsions:
REMARK  status: ('A' for Active; 'I' for Inactive)
REMARK       I    between atoms: N_1  and  C_2 
REMARK    1  A    between atoms: C_2  and  C_4 
REMARK    2  A    between atoms: C_4  and  C_5 
REMARK    3  A    between atoms: N_14  and  C_15 
REMARK    4  A    between atoms: C_15  and  C_16 
REMARK    5  A    between atoms: C_16  and  O_17 
REMARK    6  A    between atoms: C_16  and  C_18 
ROOT
HETATM    1  C   UNL     1     -39.647 -51.457  13.316  1.00  0.00     0.093 A 
HETATM    2  N   UNL     1     -39.005 -52.158  14.233  1.00  0.00    -0.344 N 
ATOM      3  HN  UNL     1     -38.046 -52.015  14.553  1.00  0.00     0.167 HD
HETATM    4  C   UNL     1     -39.881 -53.113  14.668  1.00  0.00     0.060 A 
HETATM    5  C   UNL     1     -39.695 -54.106  15.640  1.00  0.00     0.032 A 
HETATM    6  C   UNL     1     -40.749 -54.981  15.920  1.00  0.00     0.002 A 
HETATM    7  C   UNL     1     -41.963 -54.868  15.242  1.00  0.00     0.002 A 
HETATM    8  C   UNL     1     -42.166 -53.879  14.270  1.00  0.00     0.032 A 
HETATM    9  C   UNL     1     -41.101 -53.011  14.004  1.00  0.00     0.062 A 
HETATM   10  N   UNL     1     -40.931 -51.940  13.147  1.00  0.00    -0.332 N 
ENDROOT
BRANCH  10  11
HETATM   11  C   UNL     1     -41.967 -51.379  12.290  1.00  0.00     0.167 C 
BRANCH  11  12
HETATM   12  C   UNL     1     -42.738 -50.219  12.946  1.00  0.00     0.169 C 
BRANCH  12  13
HETATM   13  O   UNL     1     -43.113 -49.238  11.977  1.00  0.00    -0.389 OA
HETATM   14  H   UNL     1     -43.796 -49.618  11.401  1.00  0.00     0.210 HD
ENDBRANCH  12  13
BRANCH  12  15
HETATM   15  C   UNL     1     -44.002 -50.624  13.687  1.00  0.00    -0.028 A 
HETATM   16  C   UNL     1     -45.087 -51.132  12.945  1.00  0.00     0.013 A 
HETATM   17  C   UNL     1     -46.270 -51.526  13.572  1.00  0.00     0.043 A 
HETATM   18  C   UNL     1     -46.377 -51.427  14.952  1.00  0.00     0.116 A 
HETATM   19  F   UNL     1     -47.511 -51.804  15.558  1.00  0.00    -0.206 F 
HETATM   20  C   UNL     1     -45.319 -50.947  15.712  1.00  0.00     0.043 A 
HETATM   21  C   UNL     1     -44.132 -50.553  15.085  1.00  0.00     0.013 A 
ENDBRANCH  12  15
ENDBRANCH  11  12
ENDBRANCH  10  11
BRANCH   1  22
HETATM   22  C   UNL     1     -39.047 -50.303  12.577  1.00  0.00     0.179 C 
BRANCH  22  23
HETATM   23  C   UNL     1     -37.748 -50.698  11.896  1.00  0.00     0.222 C 
HETATM   24  N   UNL     1     -37.474 -50.121  10.691  1.00  0.00    -0.370 N 
HETATM   25  H   UNL     1     -36.586 -50.315  10.251  1.00  0.00     0.159 HD
HETATM   26  H   UNL     1     -37.994 -49.294  10.400  1.00  0.00     0.159 HD
HETATM   27  O   UNL     1     -37.003 -51.560  12.360  1.00  0.00    -0.273 OA
ENDBRANCH  22  23
ENDBRANCH   1  22
TORSDOF 6
ENDMDL
MODEL 4
REMARK VINA RESULT:      -6.6      3.569      5.749
REMARK  6 active torsions:
REMARK  status: ('A' for Active; 'I' for Inactive)
REMARK       I    between atoms: N_1  and  C_2 
REMARK    1  A    between atoms: C_2  and  C_4 
REMARK    2  A    between atoms: C_4  and  C_5 
REMARK    3  A    between atoms: N_14  and  C_15 
REMARK    4  A    between atoms: C_15  and  C_16 
REMARK    5  A    between atoms: C_16  and  O_17 
REMARK    6  A    between atoms: C_16  and  C_18 
ROOT
HETATM    1  C   UNL     1     -41.453 -52.099  12.675  1.00  0.00     0.093 A 
HETATM    2  N   UNL     1     -42.622 -52.159  12.062  1.00  0.00    -0.344 N 
ATOM      3  HN  UNL     1     -42.911 -51.627  11.241  1.00  0.00     0.167 HD
HETATM    4  C   UNL     1     -43.368 -53.077  12.748  1.00  0.00     0.060 A 
HETATM    5  C   UNL     1     -44.678 -53.513  12.503  1.00  0.00     0.032 A 
HETATM    6  C   UNL     1     -45.239 -54.472  13.351  1.00  0.00     0.002 A 
HETATM    7  C   UNL     1     -44.509 -54.984  14.424  1.00  0.00     0.002 A 
HETATM    8  C   UNL     1     -43.198 -54.560  14.682  1.00  0.00     0.032 A 
HETATM    9  C   UNL     1     -42.651 -53.601  13.821  1.00  0.00     0.062 A 
HETATM   10  N   UNL     1     -41.426 -52.966  13.751  1.00  0.00    -0.332 N 
ENDROOT
BRANCH  10  11
HETATM   11  C   UNL     1     -40.288 -53.243  14.617  1.00  0.00     0.167 C 
BRANCH  11  12
HETATM   12  C   UNL     1     -39.670 -54.633  14.385  1.00  0.00     0.169 C 
BRANCH  12  13
HETATM   13  O   UNL     1     -38.503 -54.548  13.565  1.00  0.00    -0.389 OA
HETATM   14  H   UNL     1     -37.724 -54.490  14.141  1.00  0.00     0.210 HD
ENDBRANCH  12  13
BRANCH  12  15
HETATM   15  C   UNL     1     -39.276 -55.382  15.648  1.00  0.00    -0.028 A 
HETATM   16  C   UNL     1     -40.278 -56.059  16.372  1.00  0.00     0.013 A 
HETATM   17  C   UNL     1     -39.974 -56.769  17.535  1.00  0.00     0.043 A 
HETATM   18  C   UNL     1     -38.660 -56.819  17.982  1.00  0.00     0.116 A 
HETATM   19  F   UNL     1     -38.365 -57.498  19.097  1.00  0.00    -0.206 F 
HETATM   20  C   UNL     1     -37.649 -56.176  17.281  1.00  0.00     0.043 A 
HETATM   21  C   UNL     1     -37.952 -55.465  16.114  1.00  0.00     0.013 A 
ENDBRANCH  12  15
ENDBRANCH  11  12
ENDBRANCH  10  11
BRANCH   1  22
HETATM   22  C   UNL     1     -40.331 -51.210  12.244  1.00  0.00     0.179 C 
BRANCH  22  23
HETATM   23  C   UNL     1     -40.846 -50.001  11.481  1.00  0.00     0.222 C 
HETATM   24  N   UNL     1     -40.380 -49.819  10.212  1.00  0.00    -0.370 N 
HETATM   25  H   UNL     1     -40.759 -49.064   9.659  1.00  0.00     0.159 HD
HETATM   26  H   UNL     1     -39.912 -50.589   9.732  1.00  0.00     0.159 HD
HETATM   27  O   UNL     1     -41.589 -49.170  11.999  1.00  0.00    -0.273 OA
ENDBRANCH  22  23
ENDBRANCH   1  22
TORSDOF 6
ENDMDL
MODEL 5
REMARK VINA RESULT:      -6.5      3.657      5.618
REMARK  6 active torsions:
REMARK  status: ('A' for Active; 'I' for Inactive)
REMARK       I    between atoms: N_1  and  C_2 
REMARK    1  A    between atoms: C_2  and  C_4 
REMARK    2  A    between atoms: C_4  and  C_5 
REMARK    3  A    between atoms: N_14  and  C_15 
REMARK    4  A    between atoms: C_15  and  C_16 
REMARK    5  A    between atoms: C_16  and  O_17 
REMARK    6  A    between atoms: C_16  and  C_18 
ROOT
HETATM    1  C   UNL     1     -42.073 -47.028  10.073  1.00  0.00     0.093 A 
HETATM    2  N   UNL     1     -41.553 -45.825   9.900  1.00  0.00    -0.344 N 
ATOM      3  HN  UNL     1     -41.719 -45.193   9.117  1.00  0.00     0.167 HD
HETATM    4  C   UNL     1     -40.747 -45.598  10.982  1.00  0.00     0.060 A 
HETATM    5  C   UNL     1     -39.972 -44.470  11.285  1.00  0.00     0.032 A 
HETATM    6  C   UNL     1     -39.220 -44.466  12.464  1.00  0.00     0.002 A 
HETATM    7  C   UNL     1     -39.239 -45.566  13.320  1.00  0.00     0.002 A 
HETATM    8  C   UNL     1     -40.011 -46.701  13.033  1.00  0.00     0.032 A 
HETATM    9  C   UNL     1     -40.759 -46.687  11.850  1.00  0.00     0.062 A 
HETATM   10  N   UNL     1     -41.619 -47.588  11.252  1.00  0.00    -0.332 N 
ENDROOT
BRANCH  10  11
HETATM   11  C   UNL     1     -42.031 -48.862  11.826  1.00  0.00     0.167 C 
BRANCH  11  12
HETATM   12  C   UNL     1     -41.059 -50.013  11.514  1.00  0.00     0.169 C 
BRANCH  12  13
HETATM   13  O   UNL     1     -40.529 -49.896  10.192  1.00  0.00    -0.389 OA
HETATM   14  H   UNL     1     -41.266 -49.749   9.576  1.00  0.00     0.210 HD
ENDBRANCH  12  13
BRANCH  12  15
HETATM   15  C   UNL     1     -39.876 -50.132  12.462  1.00  0.00    -0.028 A 
HETATM   16  C   UNL     1     -38.574 -50.025  11.934  1.00  0.00     0.013 A 
HETATM   17  C   UNL     1     -37.450 -50.119  12.758  1.00  0.00     0.043 A 
HETATM   18  C   UNL     1     -37.617 -50.310  14.122  1.00  0.00     0.116 A 
HETATM   19  F   UNL     1     -36.543 -50.401  14.915  1.00  0.00    -0.206 F 
HETATM   20  C   UNL     1     -38.888 -50.402  14.674  1.00  0.00     0.043 A 
HETATM   21  C   UNL     1     -40.015 -50.307  13.850  1.00  0.00     0.013 A 
ENDBRANCH  12  15
ENDBRANCH  11  12
ENDBRANCH  10  11
BRANCH   1  22
HETATM   22  C   UNL     1     -43.021 -47.671   9.111  1.00  0.00     0.179 C 
BRANCH  22  23
HETATM   23  C   UNL     1     -44.225 -46.784   8.845  1.00  0.00     0.222 C 
HETATM   24  N   UNL     1     -45.381 -47.397   8.463  1.00  0.00    -0.370 N 
HETATM   25  H   UNL     1     -46.213 -46.838   8.348  1.00  0.00     0.159 HD
HETATM   26  H   UNL     1     -45.484 -48.404   8.595  1.00  0.00     0.159 HD
HETATM   27  O   UNL     1     -44.155 -45.556   8.891  1.00  0.00    -0.273 OA
ENDBRANCH  22  23
ENDBRANCH   1  22
TORSDOF 6
ENDMDL
MODEL 6
REMARK VINA RESULT:      -6.5      3.175      5.490
REMARK  6 active torsions:
REMARK  status: ('A' for Active; 'I' for Inactive)
REMARK       I    between atoms: N_1  and  C_2 
REMARK    1  A    between atoms: C_2  and  C_4 
REMARK    2  A    between atoms: C_4  and  C_5 
REMARK    3  A    between atoms: N_14  and  C_15 
REMARK    4  A    between atoms: C_15  and  C_16 
REMARK    5  A    between atoms: C_16  and  O_17 
REMARK    6  A    between atoms: C_16  and  C_18 
ROOT
HETATM    1  C   UNL     1     -42.418 -50.496  12.696  1.00  0.00     0.093 A 
HETATM    2  N   UNL     1     -43.671 -50.186  12.981  1.00  0.00    -0.344 N 
ATOM      3  HN  UNL     1     -44.061 -49.249  13.084  1.00  0.00     0.167 HD
HETATM    4  C   UNL     1     -44.338 -51.372  13.111  1.00  0.00     0.060 A 
HETATM    5  C   UNL     1     -45.691 -51.597  13.404  1.00  0.00     0.032 A 
HETATM    6  C   UNL     1     -46.152 -52.915  13.487  1.00  0.00     0.002 A 
HETATM    7  C   UNL     1     -45.281 -53.985  13.285  1.00  0.00     0.002 A 
HETATM    8  C   UNL     1     -43.926 -53.776  12.989  1.00  0.00     0.032 A 
HETATM    9  C   UNL     1     -43.483 -52.451  12.907  1.00  0.00     0.062 A 
HETATM   10  N   UNL     1     -42.260 -51.867  12.637  1.00  0.00    -0.332 N 
ENDROOT
BRANCH  10  11
HETATM   11  C   UNL     1     -41.049 -52.589  12.268  1.00  0.00     0.167 C 
BRANCH  11  12
HETATM   12  C   UNL     1     -40.250 -53.098  13.480  1.00  0.00     0.169 C 
BRANCH  12  13
HETATM   13  O   UNL     1     -39.541 -54.298  13.162  1.00  0.00    -0.389 OA
HETATM   14  H   UNL     1     -39.909 -55.023  13.693  1.00  0.00     0.210 HD
ENDBRANCH  12  13
BRANCH  12  15
HETATM   15  C   UNL     1     -39.237 -52.114  14.044  1.00  0.00    -0.028 A 
HETATM   16  C   UNL     1     -38.415 -51.403  13.147  1.00  0.00     0.013 A 
HETATM   17  C   UNL     1     -37.472 -50.482  13.607  1.00  0.00     0.043 A 
HETATM   18  C   UNL     1     -37.349 -50.253  14.970  1.00  0.00     0.116 A 
HETATM   19  F   UNL     1     -36.446 -49.370  15.415  1.00  0.00    -0.206 F 
HETATM   20  C   UNL     1     -38.157 -50.926  15.877  1.00  0.00     0.043 A 
HETATM   21  C   UNL     1     -39.103 -51.848  15.418  1.00  0.00     0.013 A 
ENDBRANCH  12  15
ENDBRANCH  11  12
ENDBRANCH  10  11
BRANCH   1  22
HETATM   22  C   UNL     1     -41.340 -49.483  12.471  1.00  0.00     0.179 C 
BRANCH  22  23
HETATM   23  C   UNL     1     -41.229 -49.112  11.002  1.00  0.00     0.222 C 
HETATM   24  N   UNL     1     -40.372 -49.845  10.235  1.00  0.00    -0.370 N 
HETATM   25  H   UNL     1     -40.331 -49.663   9.243  1.00  0.00     0.159 HD
HETATM   26  H   UNL     1     -40.024 -50.739  10.583  1.00  0.00     0.159 HD
HETATM   27  O   UNL     1     -41.821 -48.144  10.526  1.00  0.00    -0.273 OA
ENDBRANCH  22  23
ENDBRANCH   1  22
TORSDOF 6
ENDMDL
MODEL 7
REMARK VINA RESULT:      -6.5      2.946      4.546
REMARK  6 active torsions:
REMARK  status: ('A' for Active; 'I' for Inactive)
REMARK       I    between atoms: N_1  and  C_2 
REMARK    1  A    between atoms: C_2  and  C_4 
REMARK    2  A    between atoms: C_4  and  C_5 
REMARK    3  A    between atoms: N_14  and  C_15 
REMARK    4  A    between atoms: C_15  and  C_16 
REMARK    5  A    between atoms: C_16  and  O_17 
REMARK    6  A    between atoms: C_16  and  C_18 
ROOT
HETATM    1  C   UNL     1     -41.351 -48.904  11.676  1.00  0.00     0.093 A 
HETATM    2  N   UNL     1     -40.189 -48.731  11.070  1.00  0.00    -0.344 N 
ATOM      3  HN  UNL     1     -39.993 -48.104  10.289  1.00  0.00     0.167 HD
HETATM    4  C   UNL     1     -39.303 -49.561  11.698  1.00  0.00     0.060 A 
HETATM    5  C   UNL     1     -37.937 -49.752  11.442  1.00  0.00     0.032 A 
HETATM    6  C   UNL     1     -37.227 -50.667  12.226  1.00  0.00     0.002 A 
HETATM    7  C   UNL     1     -37.866 -51.378  13.241  1.00  0.00     0.002 A 
HETATM    8  C   UNL     1     -39.230 -51.196  13.511  1.00  0.00     0.032 A 
HETATM    9  C   UNL     1     -39.925 -50.275  12.719  1.00  0.00     0.062 A 
HETATM   10  N   UNL     1     -41.234 -49.834  12.691  1.00  0.00    -0.332 N 
ENDROOT
BRANCH  10  11
HETATM   11  C   UNL     1     -42.272 -50.228  13.634  1.00  0.00     0.167 C 
BRANCH  11  12
HETATM   12  C   UNL     1     -43.486 -50.892  12.962  1.00  0.00     0.169 C 
BRANCH  12  13
HETATM   13  O   UNL     1     -43.150 -52.183  12.451  1.00  0.00    -0.389 OA
HETATM   14  H   UNL     1     -43.237 -52.832  13.169  1.00  0.00     0.210 HD
ENDBRANCH  12  13
BRANCH  12  15
HETATM   15  C   UNL     1     -44.702 -51.067  13.858  1.00  0.00    -0.028 A 
HETATM   16  C   UNL     1     -44.573 -50.791  15.234  1.00  0.00     0.013 A 
HETATM   17  C   UNL     1     -45.657 -50.927  16.103  1.00  0.00     0.043 A 
HETATM   18  C   UNL     1     -46.887 -51.331  15.603  1.00  0.00     0.116 A 
HETATM   19  F   UNL     1     -47.929 -51.464  16.434  1.00  0.00    -0.206 F 
HETATM   20  C   UNL     1     -47.050 -51.595  14.250  1.00  0.00     0.043 A 
HETATM   21  C   UNL     1     -45.965 -51.457  13.378  1.00  0.00     0.013 A 
ENDBRANCH  12  15
ENDBRANCH  11  12
ENDBRANCH  10  11
BRANCH   1  22
HETATM   22  C   UNL     1     -42.604 -48.179  11.298  1.00  0.00     0.179 C 
BRANCH  22  23
HETATM   23  C   UNL     1     -42.433 -47.428   9.988  1.00  0.00     0.222 C 
HETATM   24  N   UNL     1     -42.798 -48.076   8.845  1.00  0.00    -0.370 N 
HETATM   25  H   UNL     1     -42.759 -47.575   7.969  1.00  0.00     0.159 HD
HETATM   26  H   UNL     1     -43.378 -48.913   8.904  1.00  0.00     0.159 HD
HETATM   27  O   UNL     1     -41.917 -46.313   9.937  1.00  0.00    -0.273 OA
ENDBRANCH  22  23
ENDBRANCH   1  22
TORSDOF 6
ENDMDL
MODEL 8
REMARK VINA RESULT:      -6.4      2.661      4.563
REMARK  6 active torsions:
REMARK  status: ('A' for Active; 'I' for Inactive)
REMARK       I    between atoms: N_1  and  C_2 
REMARK    1  A    between atoms: C_2  and  C_4 
REMARK    2  A    between atoms: C_4  and  C_5 
REMARK    3  A    between atoms: N_14  and  C_15 
REMARK    4  A    between atoms: C_15  and  C_16 
REMARK    5  A    between atoms: C_16  and  O_17 
REMARK    6  A    between atoms: C_16  and  C_18 
ROOT
HETATM    1  C   UNL     1     -38.591 -51.208  13.547  1.00  0.00     0.093 A 
HETATM    2  N   UNL     1     -38.101 -50.540  14.577  1.00  0.00    -0.344 N 
ATOM      3  HN  UNL     1     -37.531 -49.694  14.542  1.00  0.00     0.167 HD
HETATM    4  C   UNL     1     -38.509 -51.209  15.697  1.00  0.00     0.060 A 
HETATM    5  C   UNL     1     -38.264 -50.910  17.044  1.00  0.00     0.032 A 
HETATM    6  C   UNL     1     -38.792 -51.751  18.028  1.00  0.00     0.002 A 
HETATM    7  C   UNL     1     -39.547 -52.869  17.675  1.00  0.00     0.002 A 
HETATM    8  C   UNL     1     -39.804 -53.180  16.332  1.00  0.00     0.032 A 
HETATM    9  C   UNL     1     -39.270 -52.326  15.361  1.00  0.00     0.062 A 
HETATM   10  N   UNL     1     -39.314 -52.303  13.980  1.00  0.00    -0.332 N 
ENDROOT
BRANCH  10  11
HETATM   11  C   UNL     1     -40.072 -53.229  13.149  1.00  0.00     0.167 C 
BRANCH  11  12
HETATM   12  C   UNL     1     -41.377 -52.626  12.600  1.00  0.00     0.169 C 
BRANCH  12  13
HETATM   13  O   UNL     1     -41.358 -52.571  11.172  1.00  0.00    -0.389 OA
HETATM   14  H   UNL     1     -40.453 -52.374  10.883  1.00  0.00     0.210 HD
ENDBRANCH  12  13
BRANCH  12  15
HETATM   15  C   UNL     1     -42.646 -53.360  13.004  1.00  0.00    -0.028 A 
HETATM   16  C   UNL     1     -42.585 -54.276  14.073  1.00  0.00     0.013 A 
HETATM   17  C   UNL     1     -43.719 -54.973  14.493  1.00  0.00     0.043 A 
HETATM   18  C   UNL     1     -44.932 -54.754  13.853  1.00  0.00     0.116 A 
HETATM   19  F   UNL     1     -46.022 -55.422  14.252  1.00  0.00    -0.206 F 
HETATM   20  C   UNL     1     -45.027 -53.846  12.807  1.00  0.00     0.043 A 
HETATM   21  C   UNL     1     -43.891 -53.145  12.387  1.00  0.00     0.013 A 
ENDBRANCH  12  15
ENDBRANCH  11  12
ENDBRANCH  10  11
BRANCH   1  22
HETATM   22  C   UNL     1     -38.379 -50.812  12.120  1.00  0.00     0.179 C 
BRANCH  22  23
HETATM   23  C   UNL     1     -39.323 -49.694  11.710  1.00  0.00     0.222 C 
HETATM   24  N   UNL     1     -40.086 -49.898  10.599  1.00  0.00    -0.370 N 
HETATM   25  H   UNL     1     -40.770 -49.200  10.345  1.00  0.00     0.159 HD
HETATM   26  H   UNL     1     -40.187 -50.841  10.223  1.00  0.00     0.159 HD
HETATM   27  O   UNL     1     -39.352 -48.615  12.300  1.00  0.00    -0.273 OA
ENDBRANCH  22  23
ENDBRANCH   1  22
TORSDOF 6
ENDMDL
MODEL 9
REMARK VINA RESULT:      -6.3      3.274      6.152
REMARK  6 active torsions:
REMARK  status: ('A' for Active; 'I' for Inactive)
REMARK       I    between atoms: N_1  and  C_2 
REMARK    1  A    between atoms: C_2  and  C_4 
REMARK    2  A    between atoms: C_4  and  C_5 
REMARK    3  A    between atoms: N_14  and  C_15 
REMARK    4  A    between atoms: C_15  and  C_16 
REMARK    5  A    between atoms: C_16  and  O_17 
REMARK    6  A    between atoms: C_16  and  C_18 
ROOT
HETATM    1  C   UNL     1     -40.800 -54.246  14.017  1.00  0.00     0.093 A 
HETATM    2  N   UNL     1     -41.668 -54.799  14.846  1.00  0.00    -0.344 N 
ATOM      3  HN  UNL     1     -41.455 -55.330  15.690  1.00  0.00     0.167 HD
HETATM    4  C   UNL     1     -42.908 -54.517  14.344  1.00  0.00     0.060 A 
HETATM    5  C   UNL     1     -44.167 -54.870  14.851  1.00  0.00     0.032 A 
HETATM    6  C   UNL     1     -45.311 -54.464  14.156  1.00  0.00     0.002 A 
HETATM    7  C   UNL     1     -45.200 -53.724  12.979  1.00  0.00     0.002 A 
HETATM    8  C   UNL     1     -43.949 -53.361  12.461  1.00  0.00     0.032 A 
HETATM    9  C   UNL     1     -42.815 -53.774  13.171  1.00  0.00     0.062 A 
HETATM   10  N   UNL     1     -41.456 -53.606  12.983  1.00  0.00    -0.332 N 
ENDROOT
BRANCH  10  11
HETATM   11  C   UNL     1     -40.848 -52.814  11.923  1.00  0.00     0.167 C 
BRANCH  11  12
HETATM   12  C   UNL     1     -40.327 -51.448  12.406  1.00  0.00     0.169 C 
BRANCH  12  13
HETATM   13  O   UNL     1     -39.012 -51.194  11.909  1.00  0.00    -0.389 OA
HETATM   14  H   UNL     1     -38.406 -51.852  12.288  1.00  0.00     0.210 HD
ENDBRANCH  12  13
BRANCH  12  15
HETATM   15  C   UNL     1     -41.190 -50.257  12.022  1.00  0.00    -0.028 A 
HETATM   16  C   UNL     1     -42.374 -50.018  12.748  1.00  0.00     0.013 A 
HETATM   17  C   UNL     1     -43.202 -48.936  12.445  1.00  0.00     0.043 A 
HETATM   18  C   UNL     1     -42.849 -48.073  11.416  1.00  0.00     0.116 A 
HETATM   19  F   UNL     1     -43.641 -47.034  11.122  1.00  0.00    -0.206 F 
HETATM   20  C   UNL     1     -41.680 -48.273  10.694  1.00  0.00     0.043 A 
HETATM   21  C   UNL     1     -40.849 -49.356  10.998  1.00  0.00     0.013 A 
ENDBRANCH  12  15
ENDBRANCH  11  12
ENDBRANCH  10  11
BRANCH   1  22
HETATM   22  C   UNL     1     -39.316 -54.315  14.197  1.00  0.00     0.179 C 
BRANCH  22  23
HETATM   23  C   UNL     1     -38.951 -54.886  15.556  1.00  0.00     0.222 C 
HETATM   24  N   UNL     1     -38.608 -54.000  16.534  1.00  0.00    -0.370 N 
HETATM   25  H   UNL     1     -38.427 -54.349  17.464  1.00  0.00     0.159 HD
HETATM   26  H   UNL     1     -38.829 -53.011  16.418  1.00  0.00     0.159 HD
HETATM   27  O   UNL     1     -38.885 -56.098  15.760  1.00  0.00    -0.273 OA
ENDBRANCH  22  23
ENDBRANCH   1  22
TORSDOF 6
ENDMDL
