MODEL 1
REMARK VINA RESULT:      -7.1      0.000      0.000
REMARK  5 active torsions:
REMARK  status: ('A' for Active; 'I' for Inactive)
REMARK       I    between atoms: C_2  and  N_4 
REMARK    1  A    between atoms: N_8  and  C_9 
REMARK    2  A    between atoms: C_9  and  C_10 
REMARK    3  A    between atoms: C_10  and  O_11 
REMARK    4  A    between atoms: C_10  and  C_12 
REMARK    5  A    between atoms: C_12  and  N_13 
ROOT
HETATM    1  C   UNL     1     -40.164 -50.544  12.259  1.00  0.00     0.164 C 
ENDROOT
BRANCH   1   2
HETATM    2  C   UNL     1     -39.915 -49.064  12.677  1.00  0.00     0.305 C 
BRANCH   2   3
HETATM    3  N   UNL     1     -40.498 -48.043  11.774  1.00  0.00     0.092 N 
HETATM    4  C   UNL     1     -40.386 -46.684  12.327  1.00  0.00     0.274 C 
HETATM    5  C   UNL     1     -41.237 -45.561  11.733  1.00  0.00     0.050 C 
HETATM    6  C   UNL     1     -41.289 -45.600  10.215  1.00  0.00     0.127 C 
HETATM    7  N   UNL     1     -42.377 -46.468   9.771  1.00  0.00    -0.351 N 
HETATM    8  C   UNL     1     -43.572 -45.875   9.383  1.00  0.00     0.215 C 
HETATM    9  C   UNL     1     -42.155 -47.912   9.904  1.00  0.00     0.156 C 
HETATM   10  C   UNL     1     -44.717 -46.786   9.023  1.00  0.00     0.117 C 
HETATM   11  O   UNL     1     -43.731 -44.654   9.341  1.00  0.00    -0.274 OA
HETATM   12  C   UNL     1     -41.863 -48.394  11.346  1.00  0.00     0.292 C 
ENDBRANCH   2   3
ENDBRANCH   1   2
BRANCH   1  13
HETATM   13  O   UNL     1     -38.948 -51.185  11.847  1.00  0.00    -0.392 OA
HETATM   14  H   UNL     1     -38.990 -51.342  10.890  1.00  0.00     0.210 HD
ENDBRANCH   1  13
BRANCH   1  15
HETATM   15  C   UNL     1     -40.738 -51.348  13.432  1.00  0.00     0.163 C 
BRANCH  15  16
HETATM   16  N   UNL     1     -42.088 -51.816  13.162  1.00  0.00    -0.339 N 
HETATM   17  C   UNL     1     -42.452 -52.594  12.096  1.00  0.00     0.184 A 
HETATM   18  N   UNL     1     -43.732 -52.884  12.122  1.00  0.00    -0.350 N 
HETATM   19  C   UNL     1     -44.218 -52.246  13.233  1.00  0.00     0.060 A 
ATOM     20  HN  UNL     1     -44.251 -53.460  11.460  1.00  0.00     0.166 HD
HETATM   21  C   UNL     1     -45.525 -52.199  13.735  1.00  0.00     0.039 A 
HETATM   22  C   UNL     1     -43.210 -51.564  13.908  1.00  0.00     0.062 A 
HETATM   23  C   UNL     1     -45.800 -51.473  14.911  1.00  0.00    -0.054 A 
HETATM   24  C   UNL     1     -47.214 -51.460  15.422  1.00  0.00     0.049 C 
HETATM   25  C   UNL     1     -44.760 -50.786  15.572  1.00  0.00    -0.054 A 
HETATM   26  C   UNL     1     -44.980 -49.986  16.832  1.00  0.00     0.049 C 
HETATM   27  C   UNL     1     -43.443 -50.825  15.068  1.00  0.00     0.039 A 
ENDBRANCH  15  16
ENDBRANCH   1  15
TORSDOF 5
ENDMDL
MODEL 2
REMARK VINA RESULT:      -7.0      1.569      2.344
REMARK  5 active torsions:
REMARK  status: ('A' for Active; 'I' for Inactive)
REMARK       I    between atoms: C_2  and  N_4 
REMARK    1  A    between atoms: N_8  and  C_9 
REMARK    2  A    between atoms: C_9  and  C_10 
REMARK    3  A    between atoms: C_10  and  O_11 
REMARK    4  A    between atoms: C_10  and  C_12 
REMARK    5  A    between atoms: C_12  and  N_13 
ROOT
HETATM    1  C   UNL     1     -41.834 -51.768  12.192  1.00  0.00     0.164 C 
ENDROOT
BRANCH   1   2
HETATM    2  C   UNL     1     -40.809 -50.732  12.741  1.00  0.00     0.305 C 
BRANCH   2   3
HETATM    3  N   UNL     1     -41.158 -49.310  12.512  1.00  0.00     0.092 N 
HETATM    4  C   UNL     1     -42.545 -49.146  12.045  1.00  0.00     0.274 C 
HETATM    5  C   UNL     1     -42.971 -47.820  11.414  1.00  0.00     0.050 C 
HETATM    6  C   UNL     1     -42.431 -46.611  12.160  1.00  0.00     0.127 C 
HETATM    7  N   UNL     1     -41.104 -46.262  11.657  1.00  0.00    -0.351 N 
HETATM    8  C   UNL     1     -41.003 -45.222  10.741  1.00  0.00     0.215 C 
HETATM    9  C   UNL     1     -40.000 -47.137  12.067  1.00  0.00     0.156 C 
HETATM   10  C   UNL     1     -39.644 -44.938  10.158  1.00  0.00     0.117 C 
HETATM   11  O   UNL     1     -41.971 -44.549  10.383  1.00  0.00    -0.274 OA
HETATM   12  C   UNL     1     -40.167 -48.622  11.666  1.00  0.00     0.292 C 
ENDBRANCH   2   3
ENDBRANCH   1   2
BRANCH   1  13
HETATM   13  O   UNL     1     -41.305 -52.488  11.070  1.00  0.00    -0.392 OA
HETATM   14  H   UNL     1     -40.987 -53.351  11.378  1.00  0.00     0.210 HD
ENDBRANCH   1  13
BRANCH   1  15
HETATM   15  C   UNL     1     -42.197 -52.794  13.273  1.00  0.00     0.163 C 
BRANCH  15  16
HETATM   16  N   UNL     1     -43.635 -52.951  13.414  1.00  0.00    -0.339 N 
HETATM   17  C   UNL     1     -44.417 -53.768  12.644  1.00  0.00     0.184 A 
HETATM   18  N   UNL     1     -45.675 -53.726  13.014  1.00  0.00    -0.350 N 
HETATM   19  C   UNL     1     -45.712 -52.825  14.045  1.00  0.00     0.060 A 
ATOM     20  HN  UNL     1     -46.456 -54.250  12.619  1.00  0.00     0.166 HD
HETATM   21  C   UNL     1     -46.802 -52.380  14.804  1.00  0.00     0.039 A 
HETATM   22  C   UNL     1     -44.446 -52.317  14.321  1.00  0.00     0.062 A 
HETATM   23  C   UNL     1     -46.605 -51.437  15.833  1.00  0.00    -0.054 A 
HETATM   24  C   UNL     1     -47.801 -50.997  16.631  1.00  0.00     0.049 C 
HETATM   25  C   UNL     1     -45.311 -50.936  16.087  1.00  0.00    -0.054 A 
HETATM   26  C   UNL     1     -45.024 -49.923  17.167  1.00  0.00     0.049 C 
HETATM   27  C   UNL     1     -44.210 -51.375  15.323  1.00  0.00     0.039 A 
ENDBRANCH  15  16
ENDBRANCH   1  15
TORSDOF 5
ENDMDL
MODEL 3
REMARK VINA RESULT:      -6.4      1.963      2.849
REMARK  5 active torsions:
REMARK  status: ('A' for Active; 'I' for Inactive)
REMARK       I    between atoms: C_2  and  N_4 
REMARK    1  A    between atoms: N_8  and  C_9 
REMARK    2  A    between atoms: C_9  and  C_10 
REMARK    3  A    between atoms: C_10  and  O_11 
REMARK    4  A    between atoms: C_10  and  C_12 
REMARK    5  A    between atoms: C_12  and  N_13 
ROOT
HETATM    1  C   UNL     1     -41.051 -53.400  13.197  1.00  0.00     0.164 C 
ENDROOT
BRANCH   1   2
HETATM    2  C   UNL     1     -40.574 -52.293  14.183  1.00  0.00     0.305 C 
BRANCH   2   3
HETATM    3  N   UNL     1     -40.924 -50.905  13.799  1.00  0.00     0.092 N 
HETATM    4  C   UNL     1     -41.925 -50.314  14.701  1.00  0.00     0.274 C 
HETATM    5  C   UNL     1     -42.674 -49.053  14.267  1.00  0.00     0.050 C 
HETATM    6  C   UNL     1     -41.768 -48.028  13.604  1.00  0.00     0.127 C 
HETATM    7  N   UNL     1     -41.672 -48.295  12.170  1.00  0.00    -0.351 N 
HETATM    8  C   UNL     1     -42.461 -47.542  11.310  1.00  0.00     0.215 C 
HETATM    9  C   UNL     1     -40.842 -49.438  11.774  1.00  0.00     0.156 C 
HETATM   10  C   UNL     1     -42.425 -47.894   9.846  1.00  0.00     0.117 C 
HETATM   11  O   UNL     1     -43.188 -46.626  11.697  1.00  0.00    -0.274 OA
HETATM   12  C   UNL     1     -41.279 -50.796  12.373  1.00  0.00     0.292 C 
ENDBRANCH   2   3
ENDBRANCH   1   2
BRANCH   1  13
HETATM   13  O   UNL     1     -40.008 -54.347  12.925  1.00  0.00    -0.392 OA
HETATM   14  H   UNL     1     -39.779 -54.801  13.752  1.00  0.00     0.210 HD
ENDBRANCH   1  13
BRANCH   1  15
HETATM   15  C   UNL     1     -42.238 -54.173  13.784  1.00  0.00     0.163 C 
BRANCH  15  16
HETATM   16  N   UNL     1     -43.503 -53.501  13.535  1.00  0.00    -0.339 N 
HETATM   17  C   UNL     1     -44.033 -53.256  12.297  1.00  0.00     0.184 A 
HETATM   18  N   UNL     1     -45.197 -52.656  12.377  1.00  0.00    -0.350 N 
HETATM   19  C   UNL     1     -45.414 -52.480  13.719  1.00  0.00     0.060 A 
ATOM     20  HN  UNL     1     -45.808 -52.381  11.608  1.00  0.00     0.166 HD
HETATM   21  C   UNL     1     -46.493 -51.878  14.377  1.00  0.00     0.039 A 
HETATM   22  C   UNL     1     -44.366 -52.999  14.474  1.00  0.00     0.062 A 
HETATM   23  C   UNL     1     -46.509 -51.809  15.785  1.00  0.00    -0.054 A 
HETATM   24  C   UNL     1     -47.693 -51.165  16.451  1.00  0.00     0.049 C 
HETATM   25  C   UNL     1     -45.431 -52.338  16.525  1.00  0.00    -0.054 A 
HETATM   26  C   UNL     1     -45.376 -52.297  18.032  1.00  0.00     0.049 C 
HETATM   27  C   UNL     1     -44.338 -52.941  15.867  1.00  0.00     0.039 A 
ENDBRANCH  15  16
ENDBRANCH   1  15
TORSDOF 5
ENDMDL
MODEL 4
REMARK VINA RESULT:      -6.4      4.376      6.152
REMARK  5 active torsions:
REMARK  status: ('A' for Active; 'I' for Inactive)
REMARK       I    between atoms: C_2  and  N_4 
REMARK    1  A    between atoms: N_8  and  C_9 
REMARK    2  A    between atoms: C_9  and  C_10 
REMARK    3  A    between atoms: C_10  and  O_11 
REMARK    4  A    between atoms: C_10  and  C_12 
REMARK    5  A    between atoms: C_12  and  N_13 
ROOT
HETATM    1  C   UNL     1     -39.838 -53.648  13.633  1.00  0.00     0.164 C 
ENDROOT
BRANCH   1   2
HETATM    2  C   UNL     1     -39.873 -53.119  15.097  1.00  0.00     0.305 C 
BRANCH   2   3
HETATM    3  N   UNL     1     -39.032 -51.928  15.362  1.00  0.00     0.092 N 
HETATM    4  C   UNL     1     -38.420 -51.394  14.134  1.00  0.00     0.274 C 
HETATM    5  C   UNL     1     -37.250 -50.415  14.244  1.00  0.00     0.050 C 
HETATM    6  C   UNL     1     -37.455 -49.370  15.328  1.00  0.00     0.127 C 
HETATM    7  N   UNL     1     -36.970 -49.875  16.611  1.00  0.00    -0.351 N 
HETATM    8  C   UNL     1     -35.712 -49.472  17.040  1.00  0.00     0.215 C 
HETATM    9  C   UNL     1     -37.808 -50.879  17.276  1.00  0.00     0.156 C 
HETATM   10  C   UNL     1     -35.184 -50.076  18.314  1.00  0.00     0.117 C 
HETATM   11  O   UNL     1     -35.018 -48.667  16.417  1.00  0.00    -0.274 OA
HETATM   12  C   UNL     1     -38.064 -52.161  16.448  1.00  0.00     0.292 C 
ENDBRANCH   2   3
ENDBRANCH   1   2
BRANCH   1  13
HETATM   13  O   UNL     1     -38.949 -54.766  13.499  1.00  0.00    -0.392 OA
HETATM   14  H   UNL     1     -38.497 -54.701  12.642  1.00  0.00     0.210 HD
ENDBRANCH   1  13
BRANCH   1  15
HETATM   15  C   UNL     1     -41.232 -54.108  13.190  1.00  0.00     0.163 C 
BRANCH  15  16
HETATM   16  N   UNL     1     -42.165 -52.998  13.084  1.00  0.00    -0.339 N 
HETATM   17  C   UNL     1     -42.007 -51.913  12.265  1.00  0.00     0.184 A 
HETATM   18  N   UNL     1     -43.017 -51.082  12.360  1.00  0.00    -0.350 N 
HETATM   19  C   UNL     1     -43.846 -51.637  13.299  1.00  0.00     0.060 A 
ATOM     20  HN  UNL     1     -43.156 -50.212  11.846  1.00  0.00     0.166 HD
HETATM   21  C   UNL     1     -45.064 -51.165  13.805  1.00  0.00     0.039 A 
HETATM   22  C   UNL     1     -43.338 -52.842  13.776  1.00  0.00     0.062 A 
HETATM   23  C   UNL     1     -45.758 -51.912  14.779  1.00  0.00    -0.054 A 
HETATM   24  C   UNL     1     -47.067 -51.375  15.286  1.00  0.00     0.049 C 
HETATM   25  C   UNL     1     -45.216 -53.127  15.248  1.00  0.00    -0.054 A 
HETATM   26  C   UNL     1     -45.898 -53.977  16.291  1.00  0.00     0.049 C 
HETATM   27  C   UNL     1     -43.988 -53.605  14.746  1.00  0.00     0.039 A 
ENDBRANCH  15  16
ENDBRANCH   1  15
TORSDOF 5
ENDMDL
MODEL 5
REMARK VINA RESULT:      -6.4      5.099      8.831
REMARK  5 active torsions:
REMARK  status: ('A' for Active; 'I' for Inactive)
REMARK       I    between atoms: C_2  and  N_4 
REMARK    1  A    between atoms: N_8  and  C_9 
REMARK    2  A    between atoms: C_9  and  C_10 
REMARK    3  A    between atoms: C_10  and  O_11 
REMARK    4  A    between atoms: C_10  and  C_12 
REMARK    5  A    between atoms: C_12  and  N_13 
ROOT
HETATM    1  C   UNL     1     -39.661 -53.865  13.746  1.00  0.00     0.164 C 
ENDROOT
BRANCH   1   2
HETATM    2  C   UNL     1     -39.923 -53.793  15.279  1.00  0.00     0.305 C 
BRANCH   2   3
HETATM    3  N   UNL     1     -39.694 -55.055  16.022  1.00  0.00     0.092 N 
HETATM    4  C   UNL     1     -40.947 -55.636  16.532  1.00  0.00     0.274 C 
HETATM    5  C   UNL     1     -40.887 -56.715  17.614  1.00  0.00     0.050 C 
HETATM    6  C   UNL     1     -39.796 -57.742  17.364  1.00  0.00     0.127 C 
HETATM    7  N   UNL     1     -38.534 -57.287  17.946  1.00  0.00    -0.351 N 
HETATM    8  C   UNL     1     -38.159 -57.801  19.181  1.00  0.00     0.215 C 
HETATM    9  C   UNL     1     -37.834 -56.216  17.228  1.00  0.00     0.156 C 
HETATM   10  C   UNL     1     -36.908 -57.250  19.813  1.00  0.00     0.117 C 
HETATM   11  O   UNL     1     -38.812 -58.662  19.773  1.00  0.00    -0.274 OA
HETATM   12  C   UNL     1     -38.650 -54.913  17.052  1.00  0.00     0.292 C 
ENDBRANCH   2   3
ENDBRANCH   1   2
BRANCH   1  13
HETATM   13  O   UNL     1     -38.686 -54.867  13.425  1.00  0.00    -0.392 OA
HETATM   14  H   UNL     1     -38.413 -54.748  12.501  1.00  0.00     0.210 HD
ENDBRANCH   1  13
BRANCH   1  15
HETATM   15  C   UNL     1     -40.951 -54.215  12.992  1.00  0.00     0.163 C 
BRANCH  15  16
HETATM   16  N   UNL     1     -41.831 -53.066  12.857  1.00  0.00    -0.339 N 
HETATM   17  C   UNL     1     -41.562 -51.952  12.109  1.00  0.00     0.184 A 
HETATM   18  N   UNL     1     -42.549 -51.088  12.153  1.00  0.00    -0.350 N 
HETATM   19  C   UNL     1     -43.479 -51.653  12.985  1.00  0.00     0.060 A 
ATOM     20  HN  UNL     1     -42.610 -50.191  11.671  1.00  0.00     0.166 HD
HETATM   21  C   UNL     1     -44.721 -51.159  13.402  1.00  0.00     0.039 A 
HETATM   22  C   UNL     1     -43.058 -52.897  13.447  1.00  0.00     0.062 A 
HETATM   23  C   UNL     1     -45.526 -51.922  14.272  1.00  0.00    -0.054 A 
HETATM   24  C   UNL     1     -46.858 -51.359  14.683  1.00  0.00     0.049 C 
HETATM   25  C   UNL     1     -45.072 -53.177  14.728  1.00  0.00    -0.054 A 
HETATM   26  C   UNL     1     -45.875 -54.047  15.662  1.00  0.00     0.049 C 
HETATM   27  C   UNL     1     -43.819 -53.678  14.316  1.00  0.00     0.039 A 
ENDBRANCH  15  16
ENDBRANCH   1  15
TORSDOF 5
ENDMDL
MODEL 6
REMARK VINA RESULT:      -6.3      3.238      4.370
REMARK  5 active torsions:
REMARK  status: ('A' for Active; 'I' for Inactive)
REMARK       I    between atoms: C_2  and  N_4 
REMARK    1  A    between atoms: N_8  and  C_9 
REMARK    2  A    between atoms: C_9  and  C_10 
REMARK    3  A    between atoms: C_10  and  O_11 
REMARK    4  A    between atoms: C_10  and  C_12 
REMARK    5  A    between atoms: C_12  and  N_13 
ROOT
HETATM    1  C   UNL     1     -42.388 -52.956  12.904  1.00  0.00     0.164 C 
ENDROOT
BRANCH   1   2
HETATM    2  C   UNL     1     -40.904 -53.169  12.483  1.00  0.00     0.305 C 
BRANCH   2   3
HETATM    3  N   UNL     1     -40.001 -52.021  12.738  1.00  0.00     0.092 N 
HETATM    4  C   UNL     1     -39.227 -52.188  13.979  1.00  0.00     0.274 C 
HETATM    5  C   UNL     1     -38.530 -50.974  14.595  1.00  0.00     0.050 C 
HETATM    6  C   UNL     1     -37.842 -50.100  13.560  1.00  0.00     0.127 C 
HETATM    7  N   UNL     1     -38.783 -49.114  13.031  1.00  0.00    -0.351 N 
HETATM    8  C   UNL     1     -38.737 -47.824  13.544  1.00  0.00     0.215 C 
HETATM    9  C   UNL     1     -39.792 -49.614  12.091  1.00  0.00     0.156 C 
HETATM   10  C   UNL     1     -39.776 -46.846  13.062  1.00  0.00     0.117 C 
HETATM   11  O   UNL     1     -37.905 -47.464  14.378  1.00  0.00    -0.274 OA
HETATM   12  C   UNL     1     -40.705 -50.730  12.652  1.00  0.00     0.292 C 
ENDBRANCH   2   3
ENDBRANCH   1   2
BRANCH   1  13
HETATM   13  O   UNL     1     -43.270 -53.020  11.773  1.00  0.00    -0.392 OA
HETATM   14  H   UNL     1     -43.123 -52.234  11.223  1.00  0.00     0.210 HD
ENDBRANCH   1  13
BRANCH   1  15
HETATM   15  C   UNL     1     -42.830 -54.038  13.897  1.00  0.00     0.163 C 
BRANCH  15  16
HETATM   16  N   UNL     1     -44.260 -53.992  14.154  1.00  0.00    -0.339 N 
HETATM   17  C   UNL     1     -45.174 -54.894  13.681  1.00  0.00     0.184 A 
HETATM   18  N   UNL     1     -46.388 -54.616  14.093  1.00  0.00    -0.350 N 
HETATM   19  C   UNL     1     -46.257 -53.474  14.838  1.00  0.00     0.060 A 
ATOM     20  HN  UNL     1     -47.243 -55.138  13.900  1.00  0.00     0.166 HD
HETATM   21  C   UNL     1     -47.236 -52.725  15.504  1.00  0.00     0.039 A 
HETATM   22  C   UNL     1     -44.932 -53.054  14.895  1.00  0.00     0.062 A 
HETATM   23  C   UNL     1     -46.870 -51.569  16.222  1.00  0.00    -0.054 A 
HETATM   24  C   UNL     1     -47.951 -50.803  16.933  1.00  0.00     0.049 C 
HETATM   25  C   UNL     1     -45.519 -51.164  16.259  1.00  0.00    -0.054 A 
HETATM   26  C   UNL     1     -45.054 -49.937  17.002  1.00  0.00     0.049 C 
HETATM   27  C   UNL     1     -44.530 -51.911  15.585  1.00  0.00     0.039 A 
ENDBRANCH  15  16
ENDBRANCH   1  15
TORSDOF 5
ENDMDL
MODEL 7
REMARK VINA RESULT:      -6.2      3.075      6.986
REMARK  5 active torsions:
REMARK  status: ('A' for Active; 'I' for Inactive)
REMARK       I    between atoms: C_2  and  N_4 
REMARK    1  A    between atoms: N_8  and  C_9 
REMARK    2  A    between atoms: C_9  and  C_10 
REMARK    3  A    between atoms: C_10  and  O_11 
REMARK    4  A    between atoms: C_10  and  C_12 
REMARK    5  A    between atoms: C_12  and  N_13 
ROOT
HETATM    1  C   UNL     1     -40.098 -51.798  12.951  1.00  0.00     0.164 C 
ENDROOT
BRANCH   1   2
HETATM    2  C   UNL     1     -41.155 -52.235  11.895  1.00  0.00     0.305 C 
BRANCH   2   3
HETATM    3  N   UNL     1     -42.569 -52.126  12.329  1.00  0.00     0.092 N 
HETATM    4  C   UNL     1     -42.821 -50.895  13.097  1.00  0.00     0.274 C 
HETATM    5  C   UNL     1     -44.099 -50.781  13.929  1.00  0.00     0.050 C 
HETATM    6  C   UNL     1     -45.325 -51.310  13.204  1.00  0.00     0.127 C 
HETATM    7  N   UNL     1     -45.468 -52.745  13.440  1.00  0.00    -0.351 N 
HETATM    8  C   UNL     1     -46.373 -53.163  14.408  1.00  0.00     0.215 C 
HETATM    9  C   UNL     1     -44.536 -53.621  12.721  1.00  0.00     0.156 C 
HETATM   10  C   UNL     1     -46.438 -54.637  14.710  1.00  0.00     0.117 C 
HETATM   11  O   UNL     1     -47.096 -52.383  15.029  1.00  0.00    -0.274 OA
HETATM   12  C   UNL     1     -43.040 -53.348  13.004  1.00  0.00     0.292 C 
ENDBRANCH   2   3
ENDBRANCH   1   2
BRANCH   1  13
HETATM   13  O   UNL     1     -39.336 -52.918  13.427  1.00  0.00    -0.392 OA
HETATM   14  H   UNL     1     -38.547 -53.013  12.870  1.00  0.00     0.210 HD
ENDBRANCH   1  13
BRANCH   1  15
HETATM   15  C   UNL     1     -39.113 -50.790  12.346  1.00  0.00     0.163 C 
BRANCH  15  16
HETATM   16  N   UNL     1     -38.911 -49.639  13.211  1.00  0.00    -0.339 N 
HETATM   17  C   UNL     1     -38.415 -49.690  14.485  1.00  0.00     0.184 A 
HETATM   18  N   UNL     1     -38.319 -48.494  15.017  1.00  0.00    -0.350 N 
HETATM   19  C   UNL     1     -38.799 -47.640  14.058  1.00  0.00     0.060 A 
ATOM     20  HN  UNL     1     -37.964 -48.253  15.942  1.00  0.00     0.166 HD
HETATM   21  C   UNL     1     -38.943 -46.248  14.095  1.00  0.00     0.039 A 
HETATM   22  C   UNL     1     -39.181 -48.329  12.911  1.00  0.00     0.062 A 
HETATM   23  C   UNL     1     -39.465 -45.565  12.977  1.00  0.00    -0.054 A 
HETATM   24  C   UNL     1     -39.591 -44.069  13.055  1.00  0.00     0.049 C 
HETATM   25  C   UNL     1     -39.849 -46.289  11.830  1.00  0.00    -0.054 A 
HETATM   26  C   UNL     1     -40.418 -45.628  10.599  1.00  0.00     0.049 C 
HETATM   27  C   UNL     1     -39.711 -47.692  11.789  1.00  0.00     0.039 A 
ENDBRANCH  15  16
ENDBRANCH   1  15
TORSDOF 5
ENDMDL
MODEL 8
REMARK VINA RESULT:      -6.1      2.382      3.622
REMARK  5 active torsions:
REMARK  status: ('A' for Active; 'I' for Inactive)
REMARK       I    between atoms: C_2  and  N_4 
REMARK    1  A    between atoms: N_8  and  C_9 
REMARK    2  A    between atoms: C_9  and  C_10 
REMARK    3  A    between atoms: C_10  and  O_11 
REMARK    4  A    between atoms: C_10  and  C_12 
REMARK    5  A    between atoms: C_12  and  N_13 
ROOT
HETATM    1  C   UNL     1     -41.181 -52.921  12.426  1.00  0.00     0.164 C 
ENDROOT
BRANCH   1   2
HETATM    2  C   UNL     1     -40.260 -51.967  13.243  1.00  0.00     0.305 C 
BRANCH   2   3
HETATM    3  N   UNL     1     -40.617 -50.530  13.178  1.00  0.00     0.092 N 
HETATM    4  C   UNL     1     -41.210 -50.162  11.882  1.00  0.00     0.274 C 
HETATM    5  C   UNL     1     -41.302 -48.686  11.493  1.00  0.00     0.050 C 
HETATM    6  C   UNL     1     -41.749 -47.799  12.642  1.00  0.00     0.127 C 
HETATM    7  N   UNL     1     -40.592 -47.374  13.428  1.00  0.00    -0.351 N 
HETATM    8  C   UNL     1     -40.074 -46.106  13.197  1.00  0.00     0.215 C 
HETATM    9  C   UNL     1     -39.992 -48.385  14.305  1.00  0.00     0.156 C 
HETATM   10  C   UNL     1     -38.823 -45.719  13.942  1.00  0.00     0.117 C 
HETATM   11  O   UNL     1     -40.581 -45.309  12.406  1.00  0.00    -0.274 OA
HETATM   12  C   UNL     1     -39.498 -49.660  13.581  1.00  0.00     0.292 C 
ENDBRANCH   2   3
ENDBRANCH   1   2
BRANCH   1  13
HETATM   13  O   UNL     1     -40.519 -53.413  11.252  1.00  0.00    -0.392 OA
HETATM   14  H   UNL     1     -39.608 -53.650  11.487  1.00  0.00     0.210 HD
ENDBRANCH   1  13
BRANCH   1  15
HETATM   15  C   UNL     1     -41.590 -54.134  13.271  1.00  0.00     0.163 C 
BRANCH  15  16
HETATM   16  N   UNL     1     -42.373 -53.749  14.433  1.00  0.00    -0.339 N 
HETATM   17  C   UNL     1     -42.002 -53.951  15.735  1.00  0.00     0.184 A 
HETATM   18  N   UNL     1     -42.893 -53.479  16.574  1.00  0.00    -0.350 N 
HETATM   19  C   UNL     1     -43.894 -52.978  15.783  1.00  0.00     0.060 A 
ATOM     20  HN  UNL     1     -42.851 -53.484  17.593  1.00  0.00     0.166 HD
HETATM   21  C   UNL     1     -45.101 -52.370  16.149  1.00  0.00     0.039 A 
HETATM   22  C   UNL     1     -43.599 -53.133  14.431  1.00  0.00     0.062 A 
HETATM   23  C   UNL     1     -45.993 -51.921  15.153  1.00  0.00    -0.054 A 
HETATM   24  C   UNL     1     -47.272 -51.262  15.591  1.00  0.00     0.049 C 
HETATM   25  C   UNL     1     -45.670 -52.096  13.791  1.00  0.00    -0.054 A 
HETATM   26  C   UNL     1     -46.576 -51.646  12.672  1.00  0.00     0.049 C 
HETATM   27  C   UNL     1     -44.458 -52.713  13.417  1.00  0.00     0.039 A 
ENDBRANCH  15  16
ENDBRANCH   1  15
TORSDOF 5
ENDMDL
MODEL 9
REMARK VINA RESULT:      -6.1      2.743      7.005
REMARK  5 active torsions:
REMARK  status: ('A' for Active; 'I' for Inactive)
REMARK       I    between atoms: C_2  and  N_4 
REMARK    1  A    between atoms: N_8  and  C_9 
REMARK    2  A    between atoms: C_9  and  C_10 
REMARK    3  A    between atoms: C_10  and  O_11 
REMARK    4  A    between atoms: C_10  and  C_12 
REMARK    5  A    between atoms: C_12  and  N_13 
ROOT
HETATM    1  C   UNL     1     -39.803 -50.704  14.195  1.00  0.00     0.164 C 
ENDROOT
BRANCH   1   2
HETATM    2  C   UNL     1     -40.169 -52.206  14.009  1.00  0.00     0.305 C 
BRANCH   2   3
HETATM    3  N   UNL     1     -41.522 -52.593  14.475  1.00  0.00     0.092 N 
HETATM    4  C   UNL     1     -41.778 -54.032  14.305  1.00  0.00     0.274 C 
HETATM    5  C   UNL     1     -43.215 -54.551  14.379  1.00  0.00     0.050 C 
HETATM    6  C   UNL     1     -44.013 -53.918  15.507  1.00  0.00     0.127 C 
HETATM    7  N   UNL     1     -44.635 -52.678  15.047  1.00  0.00    -0.351 N 
HETATM    8  C   UNL     1     -45.973 -52.714  14.677  1.00  0.00     0.215 C 
HETATM    9  C   UNL     1     -43.745 -51.522  14.889  1.00  0.00     0.156 C 
HETATM   10  C   UNL     1     -46.573 -51.453  14.113  1.00  0.00     0.117 C 
HETATM   11  O   UNL     1     -46.668 -53.726  14.775  1.00  0.00    -0.274 OA
HETATM   12  C   UNL     1     -42.574 -51.736  13.901  1.00  0.00     0.292 C 
ENDBRANCH   2   3
ENDBRANCH   1   2
BRANCH   1  13
HETATM   13  O   UNL     1     -39.035 -50.493  15.389  1.00  0.00    -0.392 OA
HETATM   14  H   UNL     1     -39.293 -51.160  16.045  1.00  0.00     0.210 HD
ENDBRANCH   1  13
BRANCH   1  15
HETATM   15  C   UNL     1     -38.969 -50.199  13.011  1.00  0.00     0.163 C 
BRANCH  15  16
HETATM   16  N   UNL     1     -39.757 -49.395  12.093  1.00  0.00    -0.339 N 
HETATM   17  C   UNL     1     -40.478 -49.885  11.038  1.00  0.00     0.184 A 
HETATM   18  N   UNL     1     -41.111 -48.931  10.397  1.00  0.00    -0.350 N 
HETATM   19  C   UNL     1     -40.763 -47.776  11.046  1.00  0.00     0.060 A 
ATOM     20  HN  UNL     1     -41.729 -49.028   9.591  1.00  0.00     0.166 HD
HETATM   21  C   UNL     1     -41.136 -46.453  10.777  1.00  0.00     0.039 A 
HETATM   22  C   UNL     1     -39.911 -48.032  12.117  1.00  0.00     0.062 A 
HETATM   23  C   UNL     1     -40.653 -45.406  11.589  1.00  0.00    -0.054 A 
HETATM   24  C   UNL     1     -41.088 -44.003  11.272  1.00  0.00     0.049 C 
HETATM   25  C   UNL     1     -39.786 -45.695  12.664  1.00  0.00    -0.054 A 
HETATM   26  C   UNL     1     -39.226 -44.629  13.571  1.00  0.00     0.049 C 
HETATM   27  C   UNL     1     -39.402 -47.025  12.937  1.00  0.00     0.039 A 
ENDBRANCH  15  16
ENDBRANCH   1  15
TORSDOF 5
ENDMDL
