MODEL 1
REMARK VINA RESULT:      -6.5      0.000      0.000
REMARK  4 active torsions:
REMARK  status: ('A' for Active; 'I' for Inactive)
REMARK    1  A    between atoms: C_8  and  C_9 
REMARK    2  A    between atoms: C_9  and  O_10 
REMARK    3  A    between atoms: C_9  and  C_11 
REMARK    4  A    between atoms: C_11  and  N_12 
ROOT
HETATM    1  C   UNL     1     -40.757 -53.800  13.277  1.00  0.00     0.170 C 
ENDROOT
BRANCH   1   2
HETATM    2  C   UNL     1     -42.272 -53.933  13.414  1.00  0.00    -0.022 A 
HETATM    3  C   UNL     1     -42.958 -54.611  14.452  1.00  0.00    -0.050 A 
HETATM    4  C   UNL     1     -42.282 -55.362  15.566  1.00  0.00     0.049 C 
HETATM    5  C   UNL     1     -44.368 -54.586  14.478  1.00  0.00     0.049 A 
HETATM    6  C   UNL     1     -45.089 -53.893  13.518  1.00  0.00     0.117 A 
HETATM    7  F   UNL     1     -46.426 -53.873  13.582  1.00  0.00    -0.206 F 
HETATM    8  C   UNL     1     -44.440 -53.210  12.506  1.00  0.00     0.043 A 
HETATM    9  C   UNL     1     -43.045 -53.228  12.459  1.00  0.00     0.013 A 
ENDBRANCH   1   2
BRANCH   1  10
HETATM   10  O   UNL     1     -40.497 -53.569  11.893  1.00  0.00    -0.389 OA
HETATM   11  H   UNL     1     -39.682 -54.047  11.643  1.00  0.00     0.210 HD
ENDBRANCH   1  10
BRANCH   1  12
HETATM   12  C   UNL     1     -40.038 -52.794  14.202  1.00  0.00     0.169 C 
BRANCH  12  13
HETATM   13  N   UNL     1     -39.850 -51.472  13.606  1.00  0.00    -0.307 N 
HETATM   14  C   UNL     1     -40.806 -50.503  13.724  1.00  0.00     0.186 A 
HETATM   15  N   UNL     1     -40.757 -49.340  13.169  1.00  0.00    -0.355 N 
HETATM   16  C   UNL     1     -39.678 -49.071  12.359  1.00  0.00     0.017 A 
ATOM     17  HN  UNL     1     -41.489 -48.647  13.324  1.00  0.00     0.166 HD
HETATM   18  C   UNL     1     -39.747 -47.738  11.660  1.00  0.00     0.069 C 
HETATM   19  C   UNL     1     -38.647 -49.919  12.179  1.00  0.00     0.028 A 
HETATM   20  C   UNL     1     -37.466 -49.710  11.281  1.00  0.00     0.056 C 
HETATM   21  C   UNL     1     -38.689 -51.214  12.910  1.00  0.00     0.256 A 
HETATM   22  O   UNL     1     -37.745 -52.003  12.864  1.00  0.00    -0.267 OA
ENDBRANCH  12  13
ENDBRANCH   1  12
TORSDOF 4
ENDMDL
MODEL 2
REMARK VINA RESULT:      -6.3      1.863      2.473
REMARK  4 active torsions:
REMARK  status: ('A' for Active; 'I' for Inactive)
REMARK    1  A    between atoms: C_8  and  C_9 
REMARK    2  A    between atoms: C_9  and  O_10 
REMARK    3  A    between atoms: C_9  and  C_11 
REMARK    4  A    between atoms: C_11  and  N_12 
ROOT
HETATM    1  C   UNL     1     -40.612 -53.345  12.907  1.00  0.00     0.170 C 
ENDROOT
BRANCH   1   2
HETATM    2  C   UNL     1     -41.975 -53.863  13.360  1.00  0.00    -0.022 A 
HETATM    3  C   UNL     1     -42.249 -54.529  14.580  1.00  0.00    -0.050 A 
HETATM    4  C   UNL     1     -41.207 -54.880  15.607  1.00  0.00     0.049 C 
HETATM    5  C   UNL     1     -43.578 -54.886  14.888  1.00  0.00     0.049 A 
HETATM    6  C   UNL     1     -44.620 -54.578  14.026  1.00  0.00     0.117 A 
HETATM    7  F   UNL     1     -45.872 -54.915  14.356  1.00  0.00    -0.206 F 
HETATM    8  C   UNL     1     -44.377 -53.914  12.838  1.00  0.00     0.043 A 
HETATM    9  C   UNL     1     -43.068 -53.558  12.512  1.00  0.00     0.013 A 
ENDBRANCH   1   2
BRANCH   1  10
HETATM   10  O   UNL     1     -40.586 -53.473  11.485  1.00  0.00    -0.389 OA
HETATM   11  H   UNL     1     -41.495 -53.371  11.144  1.00  0.00     0.210 HD
ENDBRANCH   1  10
BRANCH   1  12
HETATM   12  C   UNL     1     -40.177 -51.947  13.395  1.00  0.00     0.169 C 
BRANCH  12  13
HETATM   13  N   UNL     1     -40.743 -50.845  12.618  1.00  0.00    -0.307 N 
HETATM   14  C   UNL     1     -40.274 -50.551  11.368  1.00  0.00     0.186 A 
HETATM   15  N   UNL     1     -40.661 -49.556  10.645  1.00  0.00    -0.355 N 
HETATM   16  C   UNL     1     -41.586 -48.697  11.193  1.00  0.00     0.017 A 
ATOM     17  HN  UNL     1     -40.296 -49.410   9.704  1.00  0.00     0.166 HD
HETATM   18  C   UNL     1     -41.904 -47.501  10.335  1.00  0.00     0.069 C 
HETATM   19  C   UNL     1     -42.157 -48.883  12.400  1.00  0.00     0.028 A 
HETATM   20  C   UNL     1     -43.134 -47.970  13.075  1.00  0.00     0.056 C 
HETATM   21  C   UNL     1     -41.759 -50.094  13.167  1.00  0.00     0.256 A 
HETATM   22  O   UNL     1     -42.298 -50.376  14.237  1.00  0.00    -0.267 OA
ENDBRANCH  12  13
ENDBRANCH   1  12
TORSDOF 4
ENDMDL
MODEL 3
REMARK VINA RESULT:      -6.2      1.563      2.037
REMARK  4 active torsions:
REMARK  status: ('A' for Active; 'I' for Inactive)
REMARK    1  A    between atoms: C_8  and  C_9 
REMARK    2  A    between atoms: C_9  and  O_10 
REMARK    3  A    between atoms: C_9  and  C_11 
REMARK    4  A    between atoms: C_11  and  N_12 
ROOT
HETATM    1  C   UNL     1     -41.201 -53.187  12.803  1.00  0.00     0.170 C 
ENDROOT
BRANCH   1   2
HETATM    2  C   UNL     1     -42.531 -53.777  13.269  1.00  0.00    -0.022 A 
HETATM    3  C   UNL     1     -42.740 -54.522  14.455  1.00  0.00    -0.050 A 
HETATM    4  C   UNL     1     -41.653 -54.900  15.424  1.00  0.00     0.049 C 
HETATM    5  C   UNL     1     -44.046 -54.942  14.785  1.00  0.00     0.049 A 
HETATM    6  C   UNL     1     -45.127 -54.617  13.979  1.00  0.00     0.117 A 
HETATM    7  F   UNL     1     -46.356 -55.014  14.330  1.00  0.00    -0.206 F 
HETATM    8  C   UNL     1     -44.947 -53.876  12.825  1.00  0.00     0.043 A 
HETATM    9  C   UNL     1     -43.662 -53.457  12.479  1.00  0.00     0.013 A 
ENDBRANCH   1   2
BRANCH   1  10
HETATM   10  O   UNL     1     -40.505 -54.241  12.139  1.00  0.00    -0.389 OA
HETATM   11  H   UNL     1     -40.602 -55.059  12.662  1.00  0.00     0.210 HD
ENDBRANCH   1  10
BRANCH   1  12
HETATM   12  C   UNL     1     -41.244 -51.880  11.983  1.00  0.00     0.169 C 
BRANCH  12  13
HETATM   13  N   UNL     1     -40.268 -50.880  12.412  1.00  0.00    -0.307 N 
HETATM   14  C   UNL     1     -39.255 -51.205  13.271  1.00  0.00     0.186 A 
HETATM   15  N   UNL     1     -38.399 -50.374  13.759  1.00  0.00    -0.355 N 
HETATM   16  C   UNL     1     -38.544 -49.047  13.424  1.00  0.00     0.017 A 
ATOM     17  HN  UNL     1     -37.644 -50.687  14.369  1.00  0.00     0.166 HD
HETATM   18  C   UNL     1     -37.577 -48.125  14.119  1.00  0.00     0.069 C 
HETATM   19  C   UNL     1     -39.474 -48.589  12.564  1.00  0.00     0.028 A 
HETATM   20  C   UNL     1     -39.716 -47.159  12.189  1.00  0.00     0.056 C 
HETATM   21  C   UNL     1     -40.386 -49.589  11.944  1.00  0.00     0.256 A 
HETATM   22  O   UNL     1     -41.204 -49.259  11.086  1.00  0.00    -0.267 OA
ENDBRANCH  12  13
ENDBRANCH   1  12
TORSDOF 4
ENDMDL
MODEL 4
REMARK VINA RESULT:      -6.2      3.825      7.290
REMARK  4 active torsions:
REMARK  status: ('A' for Active; 'I' for Inactive)
REMARK    1  A    between atoms: C_8  and  C_9 
REMARK    2  A    between atoms: C_9  and  O_10 
REMARK    3  A    between atoms: C_9  and  C_11 
REMARK    4  A    between atoms: C_11  and  N_12 
ROOT
HETATM    1  C   UNL     1     -41.364 -49.299  11.028  1.00  0.00     0.170 C 
ENDROOT
BRANCH   1   2
HETATM    2  C   UNL     1     -41.311 -47.779  10.880  1.00  0.00    -0.022 A 
HETATM    3  C   UNL     1     -42.389 -46.941  10.503  1.00  0.00    -0.050 A 
HETATM    4  C   UNL     1     -43.759 -47.437  10.131  1.00  0.00     0.049 C 
HETATM    5  C   UNL     1     -42.200 -45.544  10.478  1.00  0.00     0.049 A 
HETATM    6  C   UNL     1     -40.985 -44.979  10.837  1.00  0.00     0.117 A 
HETATM    7  F   UNL     1     -40.845 -43.648  10.822  1.00  0.00    -0.206 F 
HETATM    8  C   UNL     1     -39.925 -45.777  11.225  1.00  0.00     0.043 A 
HETATM    9  C   UNL     1     -40.089 -47.163  11.249  1.00  0.00     0.013 A 
ENDBRANCH   1   2
BRANCH   1  10
HETATM   10  O   UNL     1     -40.370 -49.823  10.148  1.00  0.00    -0.389 OA
HETATM   11  H   UNL     1     -40.620 -49.608   9.229  1.00  0.00     0.210 HD
ENDBRANCH   1  10
BRANCH   1  12
HETATM   12  C   UNL     1     -41.280 -49.885  12.453  1.00  0.00     0.169 C 
BRANCH  12  13
HETATM   13  N   UNL     1     -42.240 -50.956  12.710  1.00  0.00    -0.307 N 
HETATM   14  C   UNL     1     -42.018 -52.226  12.257  1.00  0.00     0.186 A 
HETATM   15  N   UNL     1     -42.843 -53.211  12.372  1.00  0.00    -0.355 N 
HETATM   16  C   UNL     1     -44.061 -52.951  12.957  1.00  0.00     0.017 A 
ATOM     17  HN  UNL     1     -42.602 -54.145  12.041  1.00  0.00     0.166 HD
HETATM   18  C   UNL     1     -45.010 -54.121  12.955  1.00  0.00     0.069 C 
HETATM   19  C   UNL     1     -44.401 -51.756  13.478  1.00  0.00     0.028 A 
HETATM   20  C   UNL     1     -45.720 -51.392  14.089  1.00  0.00     0.056 C 
HETATM   21  C   UNL     1     -43.389 -50.667  13.414  1.00  0.00     0.256 A 
HETATM   22  O   UNL     1     -43.594 -49.575  13.944  1.00  0.00    -0.267 OA
ENDBRANCH  12  13
ENDBRANCH   1  12
TORSDOF 4
ENDMDL
MODEL 5
REMARK VINA RESULT:      -6.1      3.180      6.683
REMARK  4 active torsions:
REMARK  status: ('A' for Active; 'I' for Inactive)
REMARK    1  A    between atoms: C_8  and  C_9 
REMARK    2  A    between atoms: C_9  and  O_10 
REMARK    3  A    between atoms: C_9  and  C_11 
REMARK    4  A    between atoms: C_11  and  N_12 
ROOT
HETATM    1  C   UNL     1     -39.154 -49.955  11.781  1.00  0.00     0.170 C 
ENDROOT
BRANCH   1   2
HETATM    2  C   UNL     1     -39.095 -48.575  12.434  1.00  0.00    -0.022 A 
HETATM    3  C   UNL     1     -39.900 -47.460  12.096  1.00  0.00    -0.050 A 
HETATM    4  C   UNL     1     -40.916 -47.451  10.986  1.00  0.00     0.049 C 
HETATM    5  C   UNL     1     -39.776 -46.269  12.841  1.00  0.00     0.049 A 
HETATM    6  C   UNL     1     -38.895 -46.181  13.908  1.00  0.00     0.117 A 
HETATM    7  F   UNL     1     -38.814 -45.042  14.607  1.00  0.00    -0.206 F 
HETATM    8  C   UNL     1     -38.111 -47.263  14.266  1.00  0.00     0.043 A 
HETATM    9  C   UNL     1     -38.215 -48.448  13.537  1.00  0.00     0.013 A 
ENDBRANCH   1   2
BRANCH   1  10
HETATM   10  O   UNL     1     -38.161 -49.956  10.755  1.00  0.00    -0.389 OA
HETATM   11  H   UNL     1     -37.458 -49.325  10.998  1.00  0.00     0.210 HD
ENDBRANCH   1  10
BRANCH   1  12
HETATM   12  C   UNL     1     -39.071 -51.190  12.703  1.00  0.00     0.169 C 
BRANCH  12  13
HETATM   13  N   UNL     1     -40.286 -52.004  12.712  1.00  0.00    -0.307 N 
HETATM   14  C   UNL     1     -41.278 -51.800  11.795  1.00  0.00     0.186 A 
HETATM   15  N   UNL     1     -42.410 -52.417  11.776  1.00  0.00    -0.355 N 
HETATM   16  C   UNL     1     -42.655 -53.320  12.784  1.00  0.00     0.017 A 
ATOM     17  HN  UNL     1     -43.097 -52.243  11.042  1.00  0.00     0.166 HD
HETATM   18  C   UNL     1     -44.038 -53.918  12.757  1.00  0.00     0.069 C 
HETATM   19  C   UNL     1     -41.756 -53.645  13.733  1.00  0.00     0.028 A 
HETATM   20  C   UNL     1     -41.970 -54.583  14.881  1.00  0.00     0.056 C 
HETATM   21  C   UNL     1     -40.424 -52.984  13.670  1.00  0.00     0.256 A 
HETATM   22  O   UNL     1     -39.523 -53.292  14.450  1.00  0.00    -0.267 OA
ENDBRANCH  12  13
ENDBRANCH   1  12
TORSDOF 4
ENDMDL
MODEL 6
REMARK VINA RESULT:      -5.9      3.462      6.791
REMARK  4 active torsions:
REMARK  status: ('A' for Active; 'I' for Inactive)
REMARK    1  A    between atoms: C_8  and  C_9 
REMARK    2  A    between atoms: C_9  and  O_10 
REMARK    3  A    between atoms: C_9  and  C_11 
REMARK    4  A    between atoms: C_11  and  N_12 
ROOT
HETATM    1  C   UNL     1     -38.924 -50.983  12.812  1.00  0.00     0.170 C 
ENDROOT
BRANCH   1   2
HETATM    2  C   UNL     1     -38.194 -49.934  13.649  1.00  0.00    -0.022 A 
HETATM    3  C   UNL     1     -38.365 -48.531  13.559  1.00  0.00    -0.050 A 
HETATM    4  C   UNL     1     -39.266 -47.847  12.567  1.00  0.00     0.049 C 
HETATM    5  C   UNL     1     -37.668 -47.692  14.454  1.00  0.00     0.049 A 
HETATM    6  C   UNL     1     -36.837 -48.221  15.430  1.00  0.00     0.117 A 
HETATM    7  F   UNL     1     -36.204 -47.399  16.276  1.00  0.00    -0.206 F 
HETATM    8  C   UNL     1     -36.670 -49.589  15.547  1.00  0.00     0.043 A 
HETATM    9  C   UNL     1     -37.346 -50.435  14.668  1.00  0.00     0.013 A 
ENDBRANCH   1   2
BRANCH   1  10
HETATM   10  O   UNL     1     -38.137 -51.176  11.636  1.00  0.00    -0.389 OA
HETATM   11  H   UNL     1     -38.445 -51.984  11.183  1.00  0.00     0.210 HD
ENDBRANCH   1  10
BRANCH   1  12
HETATM   12  C   UNL     1     -39.316 -52.307  13.501  1.00  0.00     0.169 C 
BRANCH  12  13
HETATM   13  N   UNL     1     -40.681 -52.744  13.210  1.00  0.00    -0.307 N 
HETATM   14  C   UNL     1     -41.387 -52.205  12.171  1.00  0.00     0.186 A 
HETATM   15  N   UNL     1     -42.616 -52.475  11.890  1.00  0.00    -0.355 N 
HETATM   16  C   UNL     1     -43.282 -53.340  12.728  1.00  0.00     0.017 A 
ATOM     17  HN  UNL     1     -43.077 -52.064  11.078  1.00  0.00     0.166 HD
HETATM   18  C   UNL     1     -44.742 -53.519  12.400  1.00  0.00     0.069 C 
HETATM   19  C   UNL     1     -42.702 -53.969  13.769  1.00  0.00     0.028 A 
HETATM   20  C   UNL     1     -43.374 -54.885  14.745  1.00  0.00     0.056 C 
HETATM   21  C   UNL     1     -41.256 -53.708  14.008  1.00  0.00     0.256 A 
HETATM   22  O   UNL     1     -40.638 -54.310  14.885  1.00  0.00    -0.267 OA
ENDBRANCH  12  13
ENDBRANCH   1  12
TORSDOF 4
ENDMDL
MODEL 7
REMARK VINA RESULT:      -5.8      2.310      3.408
REMARK  4 active torsions:
REMARK  status: ('A' for Active; 'I' for Inactive)
REMARK    1  A    between atoms: C_8  and  C_9 
REMARK    2  A    between atoms: C_9  and  O_10 
REMARK    3  A    between atoms: C_9  and  C_11 
REMARK    4  A    between atoms: C_11  and  N_12 
ROOT
HETATM    1  C   UNL     1     -41.261 -50.992  12.337  1.00  0.00     0.170 C 
ENDROOT
BRANCH   1   2
HETATM    2  C   UNL     1     -41.711 -52.295  12.994  1.00  0.00    -0.022 A 
HETATM    3  C   UNL     1     -40.921 -53.123  13.828  1.00  0.00    -0.050 A 
HETATM    4  C   UNL     1     -39.474 -52.868  14.152  1.00  0.00     0.049 C 
HETATM    5  C   UNL     1     -41.503 -54.264  14.420  1.00  0.00     0.049 A 
HETATM    6  C   UNL     1     -42.839 -54.573  14.214  1.00  0.00     0.117 A 
HETATM    7  F   UNL     1     -43.367 -55.652  14.806  1.00  0.00    -0.206 F 
HETATM    8  C   UNL     1     -43.634 -53.769  13.418  1.00  0.00     0.043 A 
HETATM    9  C   UNL     1     -43.074 -52.640  12.818  1.00  0.00     0.013 A 
ENDBRANCH   1   2
BRANCH   1  10
HETATM   10  O   UNL     1     -40.829 -51.335  11.020  1.00  0.00    -0.389 OA
HETATM   11  H   UNL     1     -39.876 -51.138  10.941  1.00  0.00     0.210 HD
ENDBRANCH   1  10
BRANCH   1  12
HETATM   12  C   UNL     1     -42.241 -49.800  12.360  1.00  0.00     0.169 C 
BRANCH  12  13
HETATM   13  N   UNL     1     -41.645 -48.536  11.930  1.00  0.00    -0.307 N 
HETATM   14  C   UNL     1     -41.753 -48.110  10.636  1.00  0.00     0.186 A 
HETATM   15  N   UNL     1     -41.197 -47.050  10.155  1.00  0.00    -0.355 N 
HETATM   16  C   UNL     1     -40.396 -46.316  10.999  1.00  0.00     0.017 A 
ATOM     17  HN  UNL     1     -41.345 -46.768   9.186  1.00  0.00     0.166 HD
HETATM   18  C   UNL     1     -39.696 -45.159  10.336  1.00  0.00     0.069 C 
HETATM   19  C   UNL     1     -40.227 -46.600  12.305  1.00  0.00     0.028 A 
HETATM   20  C   UNL     1     -39.340 -45.873  13.269  1.00  0.00     0.056 C 
HETATM   21  C   UNL     1     -40.959 -47.775  12.851  1.00  0.00     0.256 A 
HETATM   22  O   UNL     1     -40.922 -48.047  14.051  1.00  0.00    -0.267 OA
ENDBRANCH  12  13
ENDBRANCH   1  12
TORSDOF 4
ENDMDL
MODEL 8
REMARK VINA RESULT:      -5.8      3.540      5.430
REMARK  4 active torsions:
REMARK  status: ('A' for Active; 'I' for Inactive)
REMARK    1  A    between atoms: C_8  and  C_9 
REMARK    2  A    between atoms: C_9  and  O_10 
REMARK    3  A    between atoms: C_9  and  C_11 
REMARK    4  A    between atoms: C_11  and  N_12 
ROOT
HETATM    1  C   UNL     1     -45.132 -54.604  14.649  1.00  0.00     0.170 C 
ENDROOT
BRANCH   1   2
HETATM    2  C   UNL     1     -45.858 -53.398  15.242  1.00  0.00    -0.022 A 
HETATM    3  C   UNL     1     -46.454 -52.342  14.509  1.00  0.00    -0.050 A 
HETATM    4  C   UNL     1     -46.412 -52.220  13.011  1.00  0.00     0.049 C 
HETATM    5  C   UNL     1     -47.153 -51.331  15.201  1.00  0.00     0.049 A 
HETATM    6  C   UNL     1     -47.283 -51.366  16.581  1.00  0.00     0.117 A 
HETATM    7  F   UNL     1     -47.969 -50.401  17.206  1.00  0.00    -0.206 F 
HETATM    8  C   UNL     1     -46.724 -52.397  17.315  1.00  0.00     0.043 A 
HETATM    9  C   UNL     1     -46.023 -53.403  16.650  1.00  0.00     0.013 A 
ENDBRANCH   1   2
BRANCH   1  10
HETATM   10  O   UNL     1     -46.124 -55.380  13.977  1.00  0.00    -0.389 OA
HETATM   11  H   UNL     1     -46.535 -54.829  13.283  1.00  0.00     0.210 HD
ENDBRANCH   1  10
BRANCH   1  12
HETATM   12  C   UNL     1     -43.884 -54.335  13.781  1.00  0.00     0.169 C 
BRANCH  12  13
HETATM   13  N   UNL     1     -42.621 -54.649  14.447  1.00  0.00    -0.307 N 
HETATM   14  C   UNL     1     -42.598 -55.345  15.623  1.00  0.00     0.186 A 
HETATM   15  N   UNL     1     -41.540 -55.599  16.315  1.00  0.00    -0.355 N 
HETATM   16  C   UNL     1     -40.346 -55.092  15.855  1.00  0.00     0.017 A 
ATOM     17  HN  UNL     1     -41.586 -56.155  17.169  1.00  0.00     0.166 HD
HETATM   18  C   UNL     1     -39.176 -55.336  16.772  1.00  0.00     0.069 C 
HETATM   19  C   UNL     1     -40.216 -54.417  14.696  1.00  0.00     0.028 A 
HETATM   20  C   UNL     1     -38.961 -53.802  14.158  1.00  0.00     0.056 C 
HETATM   21  C   UNL     1     -41.442 -54.224  13.874  1.00  0.00     0.256 A 
HETATM   22  O   UNL     1     -41.388 -53.694  12.765  1.00  0.00    -0.267 OA
ENDBRANCH  12  13
ENDBRANCH   1  12
TORSDOF 4
ENDMDL
MODEL 9
REMARK VINA RESULT:      -5.8      4.028      5.806
REMARK  4 active torsions:
REMARK  status: ('A' for Active; 'I' for Inactive)
REMARK    1  A    between atoms: C_8  and  C_9 
REMARK    2  A    between atoms: C_9  and  O_10 
REMARK    3  A    between atoms: C_9  and  C_11 
REMARK    4  A    between atoms: C_11  and  N_12 
ROOT
HETATM    1  C   UNL     1     -46.122 -51.994  13.346  1.00  0.00     0.170 C 
ENDROOT
BRANCH   1   2
HETATM    2  C   UNL     1     -45.586 -51.199  14.536  1.00  0.00    -0.022 A 
HETATM    3  C   UNL     1     -46.165 -51.143  15.827  1.00  0.00    -0.050 A 
HETATM    4  C   UNL     1     -47.449 -51.825  16.213  1.00  0.00     0.049 C 
HETATM    5  C   UNL     1     -45.511 -50.418  16.845  1.00  0.00     0.049 A 
HETATM    6  C   UNL     1     -44.303 -49.780  16.606  1.00  0.00     0.117 A 
HETATM    7  F   UNL     1     -43.698 -49.116  17.599  1.00  0.00    -0.206 F 
HETATM    8  C   UNL     1     -43.712 -49.836  15.357  1.00  0.00     0.043 A 
HETATM    9  C   UNL     1     -44.346 -50.543  14.335  1.00  0.00     0.013 A 
ENDBRANCH   1   2
BRANCH   1  10
HETATM   10  O   UNL     1     -45.833 -51.218  12.183  1.00  0.00    -0.389 OA
HETATM   11  H   UNL     1     -44.866 -51.186  12.059  1.00  0.00     0.210 HD
ENDBRANCH   1  10
BRANCH   1  12
HETATM   12  C   UNL     1     -45.686 -53.468  13.213  1.00  0.00     0.169 C 
BRANCH  12  13
HETATM   13  N   UNL     1     -44.259 -53.687  13.448  1.00  0.00    -0.307 N 
HETATM   14  C   UNL     1     -43.328 -53.328  12.515  1.00  0.00     0.186 A 
HETATM   15  N   UNL     1     -42.061 -53.551  12.606  1.00  0.00    -0.355 N 
HETATM   16  C   UNL     1     -41.619 -54.246  13.708  1.00  0.00     0.017 A 
ATOM     17  HN  UNL     1     -41.412 -53.226  11.889  1.00  0.00     0.166 HD
HETATM   18  C   UNL     1     -40.146 -54.564  13.689  1.00  0.00     0.069 C 
HETATM   19  C   UNL     1     -42.419 -54.632  14.720  1.00  0.00     0.028 A 
HETATM   20  C   UNL     1     -42.015 -55.426  15.925  1.00  0.00     0.056 C 
HETATM   21  C   UNL     1     -43.861 -54.274  14.629  1.00  0.00     0.256 A 
HETATM   22  O   UNL     1     -44.637 -54.518  15.553  1.00  0.00    -0.267 OA
ENDBRANCH  12  13
ENDBRANCH   1  12
TORSDOF 4
ENDMDL
