MODEL 1
REMARK VINA RESULT:      -5.4      0.000      0.000
REMARK  3 active torsions:
REMARK  status: ('A' for Active; 'I' for Inactive)
REMARK    1  A    between atoms: N_5  and  C_6 
REMARK    2  A    between atoms: C_6  and  C_7 
REMARK       I    between atoms: C_7  and  N_9 
REMARK    3  A    between atoms: N_9  and  C_10 
ROOT
HETATM    1  C   UNL     1     -45.690 -54.542  14.329  1.00  0.00     0.234 C 
ENDROOT
BRANCH   1   2
HETATM    2  N   UNL     1     -46.118 -53.464  15.228  1.00  0.00    -0.316 N 
HETATM    3  C   UNL     1     -46.753 -52.351  14.703  1.00  0.00     0.095 A 
HETATM    4  C   UNL     1     -47.272 -51.410  15.500  1.00  0.00     0.024 A 
HETATM    5  C   UNL     1     -47.206 -51.549  16.940  1.00  0.00    -0.055 A 
HETATM    6  C   UNL     1     -47.875 -50.515  17.795  1.00  0.00     0.048 C 
HETATM    7  C   UNL     1     -46.583 -52.612  17.472  1.00  0.00     0.081 A 
HETATM    8  C   UNL     1     -45.975 -53.656  16.603  1.00  0.00     0.248 A 
HETATM    9  O   UNL     1     -45.408 -54.615  17.117  1.00  0.00    -0.268 OA
ENDBRANCH   1   2
BRANCH   1  10
HETATM   10  C   UNL     1     -44.423 -54.301  13.500  1.00  0.00     0.236 C 
HETATM   11  O   UNL     1     -44.471 -54.292  12.270  1.00  0.00    -0.272 OA
HETATM   12  N   UNL     1     -43.259 -54.071  14.197  1.00  0.00    -0.355 N 
HETATM   13  H   UNL     1     -43.318 -53.964  15.202  1.00  0.00     0.162 HD
BRANCH  12  14
HETATM   14  C   UNL     1     -42.006 -53.818  13.514  1.00  0.00     0.084 C 
HETATM   15  C   UNL     1     -40.787 -54.301  14.300  1.00  0.00     0.025 C 
HETATM   16  C   UNL     1     -39.651 -53.339  13.948  1.00  0.00     0.002 C 
HETATM   17  C   UNL     1     -40.243 -52.307  12.995  1.00  0.00     0.002 C 
HETATM   18  C   UNL     1     -41.735 -52.333  13.287  1.00  0.00     0.025 C 
ENDBRANCH  12  14
ENDBRANCH   1  10
TORSDOF 3
ENDMDL
MODEL 2
REMARK VINA RESULT:      -5.3      3.071      6.934
REMARK  3 active torsions:
REMARK  status: ('A' for Active; 'I' for Inactive)
REMARK    1  A    between atoms: N_5  and  C_6 
REMARK    2  A    between atoms: C_6  and  C_7 
REMARK       I    between atoms: C_7  and  N_9 
REMARK    3  A    between atoms: N_9  and  C_10 
ROOT
HETATM    1  C   UNL     1     -40.915 -52.454  12.044  1.00  0.00     0.234 C 
ENDROOT
BRANCH   1   2
HETATM    2  N   UNL     1     -39.976 -51.405  12.454  1.00  0.00    -0.316 N 
HETATM    3  C   UNL     1     -40.205 -50.096  12.067  1.00  0.00     0.095 A 
HETATM    4  C   UNL     1     -39.446 -49.094  12.527  1.00  0.00     0.024 A 
HETATM    5  C   UNL     1     -38.376 -49.356  13.467  1.00  0.00    -0.055 A 
HETATM    6  C   UNL     1     -37.605 -48.195  14.022  1.00  0.00     0.048 C 
HETATM    7  C   UNL     1     -38.125 -50.619  13.845  1.00  0.00     0.081 A 
HETATM    8  C   UNL     1     -38.940 -51.749  13.325  1.00  0.00     0.248 A 
HETATM    9  O   UNL     1     -38.686 -52.894  13.685  1.00  0.00    -0.268 OA
ENDBRANCH   1   2
BRANCH   1  10
HETATM   10  C   UNL     1     -42.132 -52.694  12.944  1.00  0.00     0.236 C 
HETATM   11  O   UNL     1     -42.026 -53.347  13.982  1.00  0.00    -0.272 OA
HETATM   12  N   UNL     1     -43.321 -52.126  12.546  1.00  0.00    -0.355 N 
HETATM   13  H   UNL     1     -43.306 -51.497  11.752  1.00  0.00     0.162 HD
BRANCH  12  14
HETATM   14  C   UNL     1     -44.532 -52.277  13.327  1.00  0.00     0.084 C 
HETATM   15  C   UNL     1     -45.802 -52.242  12.478  1.00  0.00     0.025 C 
HETATM   16  C   UNL     1     -46.883 -51.619  13.363  1.00  0.00     0.002 C 
HETATM   17  C   UNL     1     -46.210 -51.283  14.689  1.00  0.00     0.002 C 
HETATM   18  C   UNL     1     -44.735 -51.157  14.344  1.00  0.00     0.025 C 
ENDBRANCH  12  14
ENDBRANCH   1  10
TORSDOF 3
ENDMDL
MODEL 3
REMARK VINA RESULT:      -5.2      2.894      3.918
REMARK  3 active torsions:
REMARK  status: ('A' for Active; 'I' for Inactive)
REMARK    1  A    between atoms: N_5  and  C_6 
REMARK    2  A    between atoms: C_6  and  C_7 
REMARK       I    between atoms: C_7  and  N_9 
REMARK    3  A    between atoms: N_9  and  C_10 
ROOT
HETATM    1  C   UNL     1     -43.433 -53.017  12.389  1.00  0.00     0.234 C 
ENDROOT
BRANCH   1   2
HETATM    2  N   UNL     1     -44.451 -52.666  13.385  1.00  0.00    -0.316 N 
HETATM    3  C   UNL     1     -44.074 -52.443  14.698  1.00  0.00     0.095 A 
HETATM    4  C   UNL     1     -44.949 -51.995  15.605  1.00  0.00     0.024 A 
HETATM    5  C   UNL     1     -46.317 -51.706  15.224  1.00  0.00    -0.055 A 
HETATM    6  C   UNL     1     -47.243 -51.126  16.251  1.00  0.00     0.048 C 
HETATM    7  C   UNL     1     -46.710 -51.928  13.961  1.00  0.00     0.081 A 
HETATM    8  C   UNL     1     -45.758 -52.451  12.943  1.00  0.00     0.248 A 
HETATM    9  O   UNL     1     -46.148 -52.647  11.797  1.00  0.00    -0.268 OA
ENDBRANCH   1   2
BRANCH   1  10
HETATM   10  C   UNL     1     -42.188 -52.126  12.316  1.00  0.00     0.236 C 
HETATM   11  O   UNL     1     -41.065 -52.604  12.480  1.00  0.00    -0.272 OA
HETATM   12  N   UNL     1     -42.392 -50.794  12.036  1.00  0.00    -0.355 N 
HETATM   13  H   UNL     1     -43.328 -50.498  11.787  1.00  0.00     0.162 HD
BRANCH  12  14
HETATM   14  C   UNL     1     -41.286 -49.865  11.930  1.00  0.00     0.084 C 
HETATM   15  C   UNL     1     -40.940 -49.191  13.259  1.00  0.00     0.025 C 
HETATM   16  C   UNL     1     -40.422 -47.797  12.901  1.00  0.00     0.002 C 
HETATM   17  C   UNL     1     -40.508 -47.684  11.383  1.00  0.00     0.002 C 
HETATM   18  C   UNL     1     -41.569 -48.699  10.986  1.00  0.00     0.025 C 
ENDBRANCH  12  14
ENDBRANCH   1  10
TORSDOF 3
ENDMDL
MODEL 4
REMARK VINA RESULT:      -5.2      1.465      5.946
REMARK  3 active torsions:
REMARK  status: ('A' for Active; 'I' for Inactive)
REMARK    1  A    between atoms: N_5  and  C_6 
REMARK    2  A    between atoms: C_6  and  C_7 
REMARK       I    between atoms: C_7  and  N_9 
REMARK    3  A    between atoms: N_9  and  C_10 
ROOT
HETATM    1  C   UNL     1     -45.878 -54.506  14.597  1.00  0.00     0.234 C 
ENDROOT
BRANCH   1   2
HETATM    2  N   UNL     1     -44.603 -54.206  13.936  1.00  0.00    -0.316 N 
HETATM    3  C   UNL     1     -44.564 -53.257  12.930  1.00  0.00     0.095 A 
HETATM    4  C   UNL     1     -43.403 -52.863  12.393  1.00  0.00     0.024 A 
HETATM    5  C   UNL     1     -42.150 -53.405  12.877  1.00  0.00    -0.055 A 
HETATM    6  C   UNL     1     -40.868 -52.874  12.308  1.00  0.00     0.048 C 
HETATM    7  C   UNL     1     -42.164 -54.337  13.843  1.00  0.00     0.081 A 
HETATM    8  C   UNL     1     -43.446 -54.808  14.433  1.00  0.00     0.248 A 
HETATM    9  O   UNL     1     -43.428 -55.664  15.312  1.00  0.00    -0.268 OA
ENDBRANCH   1   2
BRANCH   1  10
HETATM   10  C   UNL     1     -46.142 -53.833  15.949  1.00  0.00     0.236 C 
HETATM   11  O   UNL     1     -46.015 -54.464  16.999  1.00  0.00    -0.272 OA
HETATM   12  N   UNL     1     -46.495 -52.503  15.923  1.00  0.00    -0.355 N 
HETATM   13  H   UNL     1     -46.454 -52.017  15.036  1.00  0.00     0.162 HD
BRANCH  12  14
HETATM   14  C   UNL     1     -46.753 -51.765  17.143  1.00  0.00     0.084 C 
HETATM   15  C   UNL     1     -48.180 -51.221  17.223  1.00  0.00     0.025 C 
HETATM   16  C   UNL     1     -48.089 -49.916  18.016  1.00  0.00     0.002 C 
HETATM   17  C   UNL     1     -46.614 -49.720  18.349  1.00  0.00     0.002 C 
HETATM   18  C   UNL     1     -45.875 -50.525  17.293  1.00  0.00     0.025 C 
ENDBRANCH  12  14
ENDBRANCH   1  10
TORSDOF 3
ENDMDL
MODEL 5
REMARK VINA RESULT:      -5.2      3.659      4.687
REMARK  3 active torsions:
REMARK  status: ('A' for Active; 'I' for Inactive)
REMARK    1  A    between atoms: N_5  and  C_6 
REMARK    2  A    between atoms: C_6  and  C_7 
REMARK       I    between atoms: C_7  and  N_9 
REMARK    3  A    between atoms: N_9  and  C_10 
ROOT
HETATM    1  C   UNL     1     -43.169 -52.109  12.784  1.00  0.00     0.234 C 
ENDROOT
BRANCH   1   2
HETATM    2  N   UNL     1     -44.311 -52.029  13.701  1.00  0.00    -0.316 N 
HETATM    3  C   UNL     1     -44.142 -51.465  14.953  1.00  0.00     0.095 A 
HETATM    4  C   UNL     1     -45.184 -51.256  15.766  1.00  0.00     0.024 A 
HETATM    5  C   UNL     1     -46.527 -51.593  15.339  1.00  0.00    -0.055 A 
HETATM    6  C   UNL     1     -47.675 -51.265  16.247  1.00  0.00     0.048 C 
HETATM    7  C   UNL     1     -46.714 -52.155  14.135  1.00  0.00     0.081 A 
HETATM    8  C   UNL     1     -45.565 -52.420  13.228  1.00  0.00     0.248 A 
HETATM    9  O   UNL     1     -45.767 -52.938  12.134  1.00  0.00    -0.268 OA
ENDBRANCH   1   2
BRANCH   1  10
HETATM   10  C   UNL     1     -42.286 -50.863  12.654  1.00  0.00     0.236 C 
HETATM   11  O   UNL     1     -41.091 -50.908  12.945  1.00  0.00    -0.272 OA
HETATM   12  N   UNL     1     -42.889 -49.722  12.176  1.00  0.00    -0.355 N 
HETATM   13  H   UNL     1     -43.841 -49.792  11.837  1.00  0.00     0.162 HD
BRANCH  12  14
HETATM   14  C   UNL     1     -42.147 -48.490  12.001  1.00  0.00     0.084 C 
HETATM   15  C   UNL     1     -42.952 -47.246  12.374  1.00  0.00     0.025 C 
HETATM   16  C   UNL     1     -42.453 -46.130  11.454  1.00  0.00     0.002 C 
HETATM   17  C   UNL     1     -41.396 -46.758  10.554  1.00  0.00     0.002 C 
HETATM   18  C   UNL     1     -41.730 -48.241  10.553  1.00  0.00     0.025 C 
ENDBRANCH  12  14
ENDBRANCH   1  10
TORSDOF 3
ENDMDL
MODEL 6
REMARK VINA RESULT:      -5.1      3.738      6.936
REMARK  3 active torsions:
REMARK  status: ('A' for Active; 'I' for Inactive)
REMARK    1  A    between atoms: N_5  and  C_6 
REMARK    2  A    between atoms: C_6  and  C_7 
REMARK       I    between atoms: C_7  and  N_9 
REMARK    3  A    between atoms: N_9  and  C_10 
ROOT
HETATM    1  C   UNL     1     -40.912 -50.811  11.677  1.00  0.00     0.234 C 
ENDROOT
BRANCH   1   2
HETATM    2  N   UNL     1     -39.926 -50.111  12.508  1.00  0.00    -0.316 N 
HETATM    3  C   UNL     1     -38.630 -49.961  12.047  1.00  0.00     0.095 A 
HETATM    4  C   UNL     1     -37.738 -49.219  12.714  1.00  0.00     0.024 A 
HETATM    5  C   UNL     1     -38.120 -48.530  13.930  1.00  0.00    -0.055 A 
HETATM    6  C   UNL     1     -37.115 -47.642  14.600  1.00  0.00     0.048 C 
HETATM    7  C   UNL     1     -39.367 -48.673  14.404  1.00  0.00     0.081 A 
HETATM    8  C   UNL     1     -40.366 -49.515  13.691  1.00  0.00     0.248 A 
HETATM    9  O   UNL     1     -41.497 -49.630  14.151  1.00  0.00    -0.268 OA
ENDBRANCH   1   2
BRANCH   1  10
HETATM   10  C   UNL     1     -41.294 -52.236  12.094  1.00  0.00     0.236 C 
HETATM   11  O   UNL     1     -40.481 -53.155  12.001  1.00  0.00    -0.272 OA
HETATM   12  N   UNL     1     -42.564 -52.418  12.592  1.00  0.00    -0.355 N 
HETATM   13  H   UNL     1     -43.133 -51.597  12.760  1.00  0.00     0.162 HD
BRANCH  12  14
HETATM   14  C   UNL     1     -43.026 -53.720  13.029  1.00  0.00     0.084 C 
HETATM   15  C   UNL     1     -44.518 -53.942  12.779  1.00  0.00     0.025 C 
HETATM   16  C   UNL     1     -45.001 -54.857  13.906  1.00  0.00     0.002 C 
HETATM   17  C   UNL     1     -43.791 -55.120  14.794  1.00  0.00     0.002 C 
HETATM   18  C   UNL     1     -42.864 -53.943  14.530  1.00  0.00     0.025 C 
ENDBRANCH  12  14
ENDBRANCH   1  10
TORSDOF 3
ENDMDL
MODEL 7
REMARK VINA RESULT:      -5.1      5.663      7.905
REMARK  3 active torsions:
REMARK  status: ('A' for Active; 'I' for Inactive)
REMARK    1  A    between atoms: N_5  and  C_6 
REMARK    2  A    between atoms: C_6  and  C_7 
REMARK       I    between atoms: C_7  and  N_9 
REMARK    3  A    between atoms: N_9  and  C_10 
ROOT
HETATM    1  C   UNL     1     -40.483 -49.817  11.007  1.00  0.00     0.234 C 
ENDROOT
BRANCH   1   2
HETATM    2  N   UNL     1     -40.446 -50.889  12.008  1.00  0.00    -0.316 N 
HETATM    3  C   UNL     1     -41.283 -51.983  11.866  1.00  0.00     0.095 A 
HETATM    4  C   UNL     1     -41.188 -53.039  12.683  1.00  0.00     0.024 A 
HETATM    5  C   UNL     1     -40.182 -53.072  13.725  1.00  0.00    -0.055 A 
HETATM    6  C   UNL     1     -40.055 -54.309  14.563  1.00  0.00     0.048 C 
HETATM    7  C   UNL     1     -39.370 -52.017  13.891  1.00  0.00     0.081 A 
HETATM    8  C   UNL     1     -39.477 -50.823  13.010  1.00  0.00     0.248 A 
HETATM    9  O   UNL     1     -38.723 -49.871  13.188  1.00  0.00    -0.268 OA
ENDBRANCH   1   2
BRANCH   1  10
HETATM   10  C   UNL     1     -41.550 -48.730  11.184  1.00  0.00     0.236 C 
HETATM   11  O   UNL     1     -41.743 -48.214  12.285  1.00  0.00    -0.272 OA
HETATM   12  N   UNL     1     -42.246 -48.353  10.058  1.00  0.00    -0.355 N 
HETATM   13  H   UNL     1     -41.946 -48.727   9.166  1.00  0.00     0.162 HD
BRANCH  12  14
HETATM   14  C   UNL     1     -43.266 -47.326  10.108  1.00  0.00     0.084 C 
HETATM   15  C   UNL     1     -44.669 -47.861   9.817  1.00  0.00     0.025 C 
HETATM   16  C   UNL     1     -45.421 -46.718   9.132  1.00  0.00     0.002 C 
HETATM   17  C   UNL     1     -44.432 -45.564   9.015  1.00  0.00     0.002 C 
HETATM   18  C   UNL     1     -43.065 -46.228   9.067  1.00  0.00     0.025 C 
ENDBRANCH  12  14
ENDBRANCH   1  10
TORSDOF 3
ENDMDL
MODEL 8
REMARK VINA RESULT:      -5.0      2.287      6.365
REMARK  3 active torsions:
REMARK  status: ('A' for Active; 'I' for Inactive)
REMARK    1  A    between atoms: N_5  and  C_6 
REMARK    2  A    between atoms: C_6  and  C_7 
REMARK       I    between atoms: C_7  and  N_9 
REMARK    3  A    between atoms: N_9  and  C_10 
ROOT
HETATM    1  C   UNL     1     -41.171 -54.386  14.314  1.00  0.00     0.234 C 
ENDROOT
BRANCH   1   2
HETATM    2  N   UNL     1     -40.397 -53.143  14.417  1.00  0.00    -0.316 N 
HETATM    3  C   UNL     1     -39.929 -52.732  15.653  1.00  0.00     0.095 A 
HETATM    4  C   UNL     1     -39.113 -51.678  15.769  1.00  0.00     0.024 A 
HETATM    5  C   UNL     1     -38.677 -50.954  14.593  1.00  0.00    -0.055 A 
HETATM    6  C   UNL     1     -37.696 -49.832  14.760  1.00  0.00     0.048 C 
HETATM    7  C   UNL     1     -39.129 -51.325  13.385  1.00  0.00     0.081 A 
HETATM    8  C   UNL     1     -40.058 -52.478  13.237  1.00  0.00     0.248 A 
HETATM    9  O   UNL     1     -40.458 -52.792  12.121  1.00  0.00    -0.268 OA
ENDBRANCH   1   2
BRANCH   1  10
HETATM   10  C   UNL     1     -42.696 -54.271  14.412  1.00  0.00     0.236 C 
HETATM   11  O   UNL     1     -43.361 -55.172  14.924  1.00  0.00    -0.272 OA
HETATM   12  N   UNL     1     -43.265 -53.115  13.928  1.00  0.00    -0.355 N 
HETATM   13  H   UNL     1     -42.648 -52.365  13.639  1.00  0.00     0.162 HD
BRANCH  12  14
HETATM   14  C   UNL     1     -44.695 -52.895  13.983  1.00  0.00     0.084 C 
HETATM   15  C   UNL     1     -45.340 -52.800  12.600  1.00  0.00     0.025 C 
HETATM   16  C   UNL     1     -46.519 -51.836  12.751  1.00  0.00     0.002 C 
HETATM   17  C   UNL     1     -46.512 -51.375  14.204  1.00  0.00     0.002 C 
HETATM   18  C   UNL     1     -45.077 -51.581  14.660  1.00  0.00     0.025 C 
ENDBRANCH  12  14
ENDBRANCH   1  10
TORSDOF 3
ENDMDL
MODEL 9
REMARK VINA RESULT:      -5.0      1.878      2.446
REMARK  3 active torsions:
REMARK  status: ('A' for Active; 'I' for Inactive)
REMARK    1  A    between atoms: N_5  and  C_6 
REMARK    2  A    between atoms: C_6  and  C_7 
REMARK       I    between atoms: C_7  and  N_9 
REMARK    3  A    between atoms: N_9  and  C_10 
ROOT
HETATM    1  C   UNL     1     -44.683 -53.722  12.877  1.00  0.00     0.234 C 
ENDROOT
BRANCH   1   2
HETATM    2  N   UNL     1     -45.605 -53.134  13.855  1.00  0.00    -0.316 N 
HETATM    3  C   UNL     1     -45.755 -53.728  15.096  1.00  0.00     0.095 A 
HETATM    4  C   UNL     1     -46.485 -53.151  16.057  1.00  0.00     0.024 A 
HETATM    5  C   UNL     1     -47.118 -51.869  15.828  1.00  0.00    -0.055 A 
HETATM    6  C   UNL     1     -47.857 -51.218  16.960  1.00  0.00     0.048 C 
HETATM    7  C   UNL     1     -47.000 -51.280  14.628  1.00  0.00     0.081 A 
HETATM    8  C   UNL     1     -46.215 -51.918  13.537  1.00  0.00     0.248 A 
HETATM    9  O   UNL     1     -46.127 -51.358  12.449  1.00  0.00    -0.268 OA
ENDBRANCH   1   2
BRANCH   1  10
HETATM   10  C   UNL     1     -43.215 -53.288  12.950  1.00  0.00     0.236 C 
HETATM   11  O   UNL     1     -42.732 -52.562  12.081  1.00  0.00    -0.272 OA
HETATM   12  N   UNL     1     -42.491 -53.724  14.036  1.00  0.00    -0.355 N 
HETATM   13  H   UNL     1     -42.986 -54.209  14.776  1.00  0.00     0.162 HD
BRANCH  12  14
HETATM   14  C   UNL     1     -41.099 -53.363  14.213  1.00  0.00     0.084 C 
HETATM   15  C   UNL     1     -40.134 -54.375  13.596  1.00  0.00     0.025 C 
HETATM   16  C   UNL     1     -38.881 -54.352  14.475  1.00  0.00     0.002 C 
HETATM   17  C   UNL     1     -39.161 -53.352  15.592  1.00  0.00     0.002 C 
HETATM   18  C   UNL     1     -40.677 -53.294  15.678  1.00  0.00     0.025 C 
ENDBRANCH  12  14
ENDBRANCH   1  10
TORSDOF 3
ENDMDL
