MODEL 1
REMARK VINA RESULT:      -6.8      0.000      0.000
REMARK  5 active torsions:
REMARK  status: ('A' for Active; 'I' for Inactive)
REMARK    1  A    between atoms: N_5  and  C_6 
REMARK    2  A    between atoms: C_6  and  C_7 
REMARK    3  A    between atoms: C_7  and  N_8 
REMARK       I    between atoms: N_8  and  C_9 
REMARK       I    between atoms: C_9  and  N_11 
REMARK    4  A    between atoms: N_11  and  C_12 
REMARK    5  A    between atoms: C_15  and  N_19 
ROOT
HETATM    1  N   UNL     1     -41.101 -51.122  11.357  1.00  0.00    -0.341 N 
HETATM    2  C   UNL     1     -41.202 -49.796  11.718  1.00  0.00     0.320 C 
HETATM    3  O   UNL     1     -41.403 -49.420  12.860  1.00  0.00    -0.247 OA
HETATM    4  N   UNL     1     -41.154 -48.986  10.605  1.00  0.00    -0.308 N 
HETATM    5  H   UNL     1     -40.362 -51.304  10.692  1.00  0.00     0.164 HD
HETATM    6  H   UNL     1     -41.515 -49.426   9.770  1.00  0.00     0.170 HD
ENDROOT
BRANCH   4   7
HETATM    7  C   UNL     1     -41.297 -47.590  10.705  1.00  0.00     0.051 A 
HETATM    8  C   UNL     1     -40.171 -46.812  10.920  1.00  0.00     0.035 A 
HETATM    9  C   UNL     1     -40.318 -45.428  11.024  1.00  0.00     0.051 A 
HETATM   10  C   UNL     1     -41.587 -44.844  10.981  1.00  0.00     0.103 A 
HETATM   11  N   UNL     1     -42.688 -45.597  10.784  1.00  0.00    -0.350 N 
HETATM   12  C   UNL     1     -42.522 -46.936  10.618  1.00  0.00     0.119 A 
ATOM     13  HN  UNL     1     -43.615 -45.175  10.761  1.00  0.00     0.166 HD
BRANCH  10  14
HETATM   14  N   UNL     1     -41.707 -43.492  11.258  1.00  0.00    -0.363 N 
HETATM   15  C   UNL     1     -40.496 -42.751  11.627  1.00  0.00     0.150 C 
HETATM   16  C   UNL     1     -40.431 -42.434  13.126  1.00  0.00     0.187 C 
HETATM   17  O   UNL     1     -41.645 -41.814  13.587  1.00  0.00    -0.388 OA
HETATM   18  C   UNL     1     -42.747 -42.708  13.379  1.00  0.00     0.187 C 
HETATM   19  C   UNL     1     -42.949 -43.016  11.886  1.00  0.00     0.150 C 
ENDBRANCH  10  14
ENDBRANCH   4   7
BRANCH   1  20
HETATM   20  C   UNL     1     -41.347 -52.156  12.353  1.00  0.00     0.154 C 
BRANCH  20  21
HETATM   21  C   UNL     1     -42.747 -52.788  12.186  1.00  0.00     0.292 C 
BRANCH  21  22
HETATM   22  N   UNL     1     -43.487 -53.005  13.443  1.00  0.00     0.090 N 
HETATM   23  C   UNL     1     -44.810 -53.614  13.268  1.00  0.00     0.273 C 
HETATM   24  C   UNL     1     -45.836 -52.681  12.618  1.00  0.00     0.034 C 
HETATM   25  C   UNL     1     -45.968 -51.349  13.368  1.00  0.00    -0.015 C 
HETATM   26  C   UNL     1     -46.759 -51.518  14.669  1.00  0.00     0.010 C 
HETATM   27  C   UNL     1     -44.582 -50.742  13.629  1.00  0.00     0.034 C 
HETATM   28  C   UNL     1     -43.594 -51.757  14.217  1.00  0.00     0.273 C 
ENDBRANCH  21  22
ENDBRANCH  20  21
ENDBRANCH   1  20
TORSDOF 5
ENDMDL
MODEL 2
REMARK VINA RESULT:      -6.8      1.232      1.464
REMARK  5 active torsions:
REMARK  status: ('A' for Active; 'I' for Inactive)
REMARK    1  A    between atoms: N_5  and  C_6 
REMARK    2  A    between atoms: C_6  and  C_7 
REMARK    3  A    between atoms: C_7  and  N_8 
REMARK       I    between atoms: N_8  and  C_9 
REMARK       I    between atoms: C_9  and  N_11 
REMARK    4  A    between atoms: N_11  and  C_12 
REMARK    5  A    between atoms: C_15  and  N_19 
ROOT
HETATM    1  N   UNL     1     -41.406 -52.523  11.883  1.00  0.00    -0.341 N 
HETATM    2  C   UNL     1     -41.350 -51.167  12.121  1.00  0.00     0.320 C 
HETATM    3  O   UNL     1     -41.741 -50.645  13.151  1.00  0.00    -0.247 OA
HETATM    4  N   UNL     1     -40.903 -50.497  11.004  1.00  0.00    -0.308 N 
HETATM    5  H   UNL     1     -40.578 -52.888  11.434  1.00  0.00     0.164 HD
HETATM    6  H   UNL     1     -41.133 -50.961  10.136  1.00  0.00     0.170 HD
ENDROOT
BRANCH   4   7
HETATM    7  C   UNL     1     -40.814 -49.093  10.975  1.00  0.00     0.051 A 
HETATM    8  C   UNL     1     -39.784 -48.470  11.660  1.00  0.00     0.035 A 
HETATM    9  C   UNL     1     -39.703 -47.077  11.632  1.00  0.00     0.051 A 
HETATM   10  C   UNL     1     -40.683 -46.322  10.983  1.00  0.00     0.103 A 
HETATM   11  N   UNL     1     -41.694 -46.922  10.324  1.00  0.00    -0.350 N 
HETATM   12  C   UNL     1     -41.723 -48.281  10.303  1.00  0.00     0.119 A 
ATOM     13  HN  UNL     1     -42.415 -46.374   9.856  1.00  0.00     0.166 HD
BRANCH  10  14
HETATM   14  N   UNL     1     -40.662 -44.943  11.123  1.00  0.00    -0.363 N 
HETATM   15  C   UNL     1     -39.592 -44.345  11.927  1.00  0.00     0.150 C 
HETATM   16  C   UNL     1     -40.080 -43.870  13.301  1.00  0.00     0.187 C 
HETATM   17  O   UNL     1     -41.246 -43.034  13.186  1.00  0.00    -0.388 OA
HETATM   18  C   UNL     1     -42.311 -43.780  12.580  1.00  0.00     0.187 C 
HETATM   19  C   UNL     1     -41.946 -44.226  11.154  1.00  0.00     0.150 C 
ENDBRANCH  10  14
ENDBRANCH   4   7
BRANCH   1  20
HETATM   20  C   UNL     1     -42.057 -53.394  12.852  1.00  0.00     0.154 C 
BRANCH  20  21
HETATM   21  C   UNL     1     -43.593 -53.385  12.688  1.00  0.00     0.292 C 
BRANCH  21  22
HETATM   22  N   UNL     1     -44.355 -53.608  13.930  1.00  0.00     0.090 N 
HETATM   23  C   UNL     1     -45.794 -53.809  13.730  1.00  0.00     0.273 C 
HETATM   24  C   UNL     1     -46.537 -52.544  13.292  1.00  0.00     0.034 C 
HETATM   25  C   UNL     1     -46.302 -51.369  14.251  1.00  0.00    -0.015 C 
HETATM   26  C   UNL     1     -47.099 -51.540  15.548  1.00  0.00     0.010 C 
HETATM   27  C   UNL     1     -44.802 -51.201  14.533  1.00  0.00     0.034 C 
HETATM   28  C   UNL     1     -44.117 -52.524  14.899  1.00  0.00     0.273 C 
ENDBRANCH  21  22
ENDBRANCH  20  21
ENDBRANCH   1  20
TORSDOF 5
ENDMDL
MODEL 3
REMARK VINA RESULT:      -6.0      1.681      2.541
REMARK  5 active torsions:
REMARK  status: ('A' for Active; 'I' for Inactive)
REMARK    1  A    between atoms: N_5  and  C_6 
REMARK    2  A    between atoms: C_6  and  C_7 
REMARK    3  A    between atoms: C_7  and  N_8 
REMARK       I    between atoms: N_8  and  C_9 
REMARK       I    between atoms: C_9  and  N_11 
REMARK    4  A    between atoms: N_11  and  C_12 
REMARK    5  A    between atoms: C_15  and  N_19 
ROOT
HETATM    1  N   UNL     1     -41.239 -52.476  11.590  1.00  0.00    -0.341 N 
HETATM    2  C   UNL     1     -40.987 -51.232  12.128  1.00  0.00     0.320 C 
HETATM    3  O   UNL     1     -40.455 -51.060  13.212  1.00  0.00    -0.247 OA
HETATM    4  N   UNL     1     -41.514 -50.242  11.329  1.00  0.00    -0.308 N 
HETATM    5  H   UNL     1     -41.041 -52.534  10.601  1.00  0.00     0.164 HD
HETATM    6  H   UNL     1     -42.331 -50.535  10.811  1.00  0.00     0.170 HD
ENDROOT
BRANCH   4   7
HETATM    7  C   UNL     1     -41.440 -48.885  11.694  1.00  0.00     0.051 A 
HETATM    8  C   UNL     1     -42.599 -48.226  12.071  1.00  0.00     0.035 A 
HETATM    9  C   UNL     1     -42.522 -46.880  12.428  1.00  0.00     0.051 A 
HETATM   10  C   UNL     1     -41.310 -46.190  12.338  1.00  0.00     0.103 A 
HETATM   11  N   UNL     1     -40.181 -46.823  11.960  1.00  0.00    -0.350 N 
HETATM   12  C   UNL     1     -40.259 -48.151  11.680  1.00  0.00     0.119 A 
ATOM     13  HN  UNL     1     -39.297 -46.321  11.886  1.00  0.00     0.166 HD
BRANCH  10  14
HETATM   14  N   UNL     1     -41.309 -44.818  12.535  1.00  0.00    -0.363 N 
HETATM   15  C   UNL     1     -42.586 -44.104  12.443  1.00  0.00     0.150 C 
HETATM   16  C   UNL     1     -42.725 -43.307  11.139  1.00  0.00     0.187 C 
HETATM   17  O   UNL     1     -41.580 -42.466  10.912  1.00  0.00    -0.388 OA
HETATM   18  C   UNL     1     -40.404 -43.279  10.801  1.00  0.00     0.187 C 
HETATM   19  C   UNL     1     -40.130 -44.053  12.101  1.00  0.00     0.150 C 
ENDBRANCH  10  14
ENDBRANCH   4   7
BRANCH   1  20
HETATM   20  C   UNL     1     -40.961 -53.667  12.381  1.00  0.00     0.154 C 
BRANCH  20  21
HETATM   21  C   UNL     1     -42.179 -54.083  13.235  1.00  0.00     0.292 C 
BRANCH  21  22
HETATM   22  N   UNL     1     -43.357 -53.205  13.110  1.00  0.00     0.090 N 
HETATM   23  C   UNL     1     -43.698 -52.472  14.335  1.00  0.00     0.273 C 
HETATM   24  C   UNL     1     -44.259 -53.363  15.448  1.00  0.00     0.034 C 
HETATM   25  C   UNL     1     -45.464 -54.190  14.980  1.00  0.00    -0.015 C 
HETATM   26  C   UNL     1     -46.723 -53.325  14.866  1.00  0.00     0.010 C 
HETATM   27  C   UNL     1     -45.145 -54.896  13.655  1.00  0.00     0.034 C 
HETATM   28  C   UNL     1     -44.526 -53.952  12.616  1.00  0.00     0.273 C 
ENDBRANCH  21  22
ENDBRANCH  20  21
ENDBRANCH   1  20
TORSDOF 5
ENDMDL
MODEL 4
REMARK VINA RESULT:      -5.9      2.056      2.989
REMARK  5 active torsions:
REMARK  status: ('A' for Active; 'I' for Inactive)
REMARK    1  A    between atoms: N_5  and  C_6 
REMARK    2  A    between atoms: C_6  and  C_7 
REMARK    3  A    between atoms: C_7  and  N_8 
REMARK       I    between atoms: N_8  and  C_9 
REMARK       I    between atoms: C_9  and  N_11 
REMARK    4  A    between atoms: N_11  and  C_12 
REMARK    5  A    between atoms: C_15  and  N_19 
ROOT
HETATM    1  N   UNL     1     -39.789 -48.888  11.015  1.00  0.00    -0.341 N 
HETATM    2  C   UNL     1     -40.069 -47.631  11.504  1.00  0.00     0.320 C 
HETATM    3  O   UNL     1     -40.039 -47.345  12.690  1.00  0.00    -0.247 OA
HETATM    4  N   UNL     1     -40.485 -46.797  10.490  1.00  0.00    -0.308 N 
HETATM    5  H   UNL     1     -39.228 -48.878  10.174  1.00  0.00     0.164 HD
HETATM    6  H   UNL     1     -40.952 -47.282   9.736  1.00  0.00     0.170 HD
ENDROOT
BRANCH   4   7
HETATM    7  C   UNL     1     -40.888 -45.473  10.745  1.00  0.00     0.051 A 
HETATM    8  C   UNL     1     -42.225 -45.214  10.998  1.00  0.00     0.035 A 
HETATM    9  C   UNL     1     -42.621 -43.899  11.246  1.00  0.00     0.051 A 
HETATM   10  C   UNL     1     -41.696 -42.854  11.171  1.00  0.00     0.103 A 
HETATM   11  N   UNL     1     -40.396 -43.099  10.913  1.00  0.00    -0.350 N 
HETATM   12  C   UNL     1     -40.013 -44.391  10.740  1.00  0.00     0.119 A 
ATOM     13  HN  UNL     1     -39.720 -42.338  10.850  1.00  0.00     0.166 HD
BRANCH  10  14
HETATM   14  N   UNL     1     -42.157 -41.550  11.253  1.00  0.00    -0.363 N 
HETATM   15  C   UNL     1     -41.229 -40.515  11.719  1.00  0.00     0.150 C 
HETATM   16  C   UNL     1     -41.517 -40.067  13.157  1.00  0.00     0.187 C 
HETATM   17  O   UNL     1     -42.901 -39.715  13.332  1.00  0.00    -0.388 OA
HETATM   18  C   UNL     1     -43.723 -40.858  13.061  1.00  0.00     0.187 C 
HETATM   19  C   UNL     1     -43.569 -41.330  11.605  1.00  0.00     0.150 C 
ENDBRANCH  10  14
ENDBRANCH   4   7
BRANCH   1  20
HETATM   20  C   UNL     1     -39.543 -49.981  11.946  1.00  0.00     0.154 C 
BRANCH  20  21
HETATM   21  C   UNL     1     -40.704 -51.001  11.949  1.00  0.00     0.292 C 
BRANCH  21  22
HETATM   22  N   UNL     1     -41.206 -51.368  13.286  1.00  0.00     0.090 N 
HETATM   23  C   UNL     1     -40.555 -52.543  13.875  1.00  0.00     0.273 C 
HETATM   24  C   UNL     1     -40.917 -53.860  13.182  1.00  0.00     0.034 C 
HETATM   25  C   UNL     1     -42.433 -54.083  13.112  1.00  0.00    -0.015 C 
HETATM   26  C   UNL     1     -42.999 -54.499  14.473  1.00  0.00     0.010 C 
HETATM   27  C   UNL     1     -43.134 -52.828  12.573  1.00  0.00     0.034 C 
HETATM   28  C   UNL     1     -42.669 -51.545  13.272  1.00  0.00     0.273 C 
ENDBRANCH  21  22
ENDBRANCH  20  21
ENDBRANCH   1  20
TORSDOF 5
ENDMDL
MODEL 5
REMARK VINA RESULT:      -5.7      2.984      8.910
REMARK  5 active torsions:
REMARK  status: ('A' for Active; 'I' for Inactive)
REMARK    1  A    between atoms: N_5  and  C_6 
REMARK    2  A    between atoms: C_6  and  C_7 
REMARK    3  A    between atoms: C_7  and  N_8 
REMARK       I    between atoms: N_8  and  C_9 
REMARK       I    between atoms: C_9  and  N_11 
REMARK    4  A    between atoms: N_11  and  C_12 
REMARK    5  A    between atoms: C_15  and  N_19 
ROOT
HETATM    1  N   UNL     1     -41.352 -48.424  10.184  1.00  0.00    -0.341 N 
HETATM    2  C   UNL     1     -41.419 -49.322  11.227  1.00  0.00     0.320 C 
HETATM    3  O   UNL     1     -42.050 -49.122  12.251  1.00  0.00    -0.247 OA
HETATM    4  N   UNL     1     -40.595 -50.401  10.992  1.00  0.00    -0.308 N 
HETATM    5  H   UNL     1     -41.418 -48.859   9.274  1.00  0.00     0.164 HD
HETATM    6  H   UNL     1     -39.791 -50.177  10.423  1.00  0.00     0.170 HD
ENDROOT
BRANCH   4   7
HETATM    7  C   UNL     1     -40.442 -51.429  11.940  1.00  0.00     0.051 A 
HETATM    8  C   UNL     1     -41.285 -52.527  11.883  1.00  0.00     0.035 A 
HETATM    9  C   UNL     1     -41.133 -53.543  12.828  1.00  0.00     0.051 A 
HETATM   10  C   UNL     1     -40.194 -53.421  13.855  1.00  0.00     0.103 A 
HETATM   11  N   UNL     1     -39.378 -52.350  13.923  1.00  0.00    -0.350 N 
HETATM   12  C   UNL     1     -39.493 -51.400  12.957  1.00  0.00     0.119 A 
ATOM     13  HN  UNL     1     -38.697 -52.255  14.675  1.00  0.00     0.166 HD
BRANCH  10  14
HETATM   14  N   UNL     1     -40.190 -54.366  14.869  1.00  0.00    -0.363 N 
HETATM   15  C   UNL     1     -41.333 -54.402  15.786  1.00  0.00     0.150 C 
HETATM   16  C   UNL     1     -41.007 -53.809  17.162  1.00  0.00     0.187 C 
HETATM   17  O   UNL     1     -39.811 -54.388  17.715  1.00  0.00    -0.388 OA
HETATM   18  C   UNL     1     -38.702 -54.112  16.848  1.00  0.00     0.187 C 
HETATM   19  C   UNL     1     -38.899 -54.748  15.462  1.00  0.00     0.150 C 
ENDBRANCH  10  14
ENDBRANCH   4   7
BRANCH   1  20
HETATM   20  C   UNL     1     -41.973 -47.115  10.326  1.00  0.00     0.154 C 
BRANCH  20  21
HETATM   21  C   UNL     1     -40.997 -46.082  10.933  1.00  0.00     0.292 C 
BRANCH  21  22
HETATM   22  N   UNL     1     -41.522 -45.336  12.091  1.00  0.00     0.090 N 
HETATM   23  C   UNL     1     -42.040 -44.002  11.767  1.00  0.00     0.273 C 
HETATM   24  C   UNL     1     -40.951 -42.995  11.385  1.00  0.00     0.034 C 
HETATM   25  C   UNL     1     -39.859 -42.884  12.458  1.00  0.00    -0.015 C 
HETATM   26  C   UNL     1     -40.348 -42.087  13.671  1.00  0.00     0.010 C 
HETATM   27  C   UNL     1     -39.367 -44.280  12.865  1.00  0.00     0.034 C 
HETATM   28  C   UNL     1     -40.517 -45.249  13.165  1.00  0.00     0.273 C 
ENDBRANCH  21  22
ENDBRANCH  20  21
ENDBRANCH   1  20
TORSDOF 5
ENDMDL
MODEL 6
REMARK VINA RESULT:      -5.6      1.895      8.497
REMARK  5 active torsions:
REMARK  status: ('A' for Active; 'I' for Inactive)
REMARK    1  A    between atoms: N_5  and  C_6 
REMARK    2  A    between atoms: C_6  and  C_7 
REMARK    3  A    between atoms: C_7  and  N_8 
REMARK       I    between atoms: N_8  and  C_9 
REMARK       I    between atoms: C_9  and  N_11 
REMARK    4  A    between atoms: N_11  and  C_12 
REMARK    5  A    between atoms: C_15  and  N_19 
ROOT
HETATM    1  N   UNL     1     -40.147 -46.126  10.278  1.00  0.00    -0.341 N 
HETATM    2  C   UNL     1     -40.589 -47.017  11.232  1.00  0.00     0.320 C 
HETATM    3  O   UNL     1     -40.460 -46.842  12.432  1.00  0.00    -0.247 OA
HETATM    4  N   UNL     1     -41.083 -48.158  10.639  1.00  0.00    -0.308 N 
HETATM    5  H   UNL     1     -40.796 -45.998   9.515  1.00  0.00     0.164 HD
HETATM    6  H   UNL     1     -40.648 -48.371   9.751  1.00  0.00     0.170 HD
ENDROOT
BRANCH   4   7
HETATM    7  C   UNL     1     -41.542 -49.246  11.404  1.00  0.00     0.051 A 
HETATM    8  C   UNL     1     -40.741 -50.370  11.522  1.00  0.00     0.035 A 
HETATM    9  C   UNL     1     -41.201 -51.448  12.278  1.00  0.00     0.051 A 
HETATM   10  C   UNL     1     -42.477 -51.422  12.847  1.00  0.00     0.103 A 
HETATM   11  N   UNL     1     -43.266 -50.336  12.726  1.00  0.00    -0.350 N 
HETATM   12  C   UNL     1     -42.777 -49.266  12.043  1.00  0.00     0.119 A 
ATOM     13  HN  UNL     1     -44.200 -50.316  13.134  1.00  0.00     0.166 HD
BRANCH  10  14
HETATM   14  N   UNL     1     -42.964 -52.575  13.443  1.00  0.00    -0.363 N 
HETATM   15  C   UNL     1     -43.813 -53.462  12.642  1.00  0.00     0.150 C 
HETATM   16  C   UNL     1     -45.295 -53.365  13.023  1.00  0.00     0.187 C 
HETATM   17  O   UNL     1     -45.486 -53.516  14.441  1.00  0.00    -0.388 OA
HETATM   18  C   UNL     1     -44.790 -52.468  15.131  1.00  0.00     0.187 C 
HETATM   19  C   UNL     1     -43.275 -52.539  14.880  1.00  0.00     0.150 C 
ENDBRANCH  10  14
ENDBRANCH   4   7
BRANCH   1  20
HETATM   20  C   UNL     1     -39.389 -44.953  10.692  1.00  0.00     0.154 C 
BRANCH  20  21
HETATM   21  C   UNL     1     -40.265 -43.681  10.701  1.00  0.00     0.292 C 
BRANCH  21  22
HETATM   22  N   UNL     1     -41.042 -43.468  11.936  1.00  0.00     0.090 N 
HETATM   23  C   UNL     1     -42.476 -43.749  11.805  1.00  0.00     0.273 C 
HETATM   24  C   UNL     1     -43.226 -42.726  10.946  1.00  0.00     0.034 C 
HETATM   25  C   UNL     1     -43.018 -41.288  11.438  1.00  0.00    -0.015 C 
HETATM   26  C   UNL     1     -43.832 -41.008  12.705  1.00  0.00     0.010 C 
HETATM   27  C   UNL     1     -41.524 -41.009  11.657  1.00  0.00     0.034 C 
HETATM   28  C   UNL     1     -40.831 -42.111  12.469  1.00  0.00     0.273 C 
ENDBRANCH  21  22
ENDBRANCH  20  21
ENDBRANCH   1  20
TORSDOF 5
ENDMDL
MODEL 7
REMARK VINA RESULT:      -5.6      4.417      5.323
REMARK  5 active torsions:
REMARK  status: ('A' for Active; 'I' for Inactive)
REMARK    1  A    between atoms: N_5  and  C_6 
REMARK    2  A    between atoms: C_6  and  C_7 
REMARK    3  A    between atoms: C_7  and  N_8 
REMARK       I    between atoms: N_8  and  C_9 
REMARK       I    between atoms: C_9  and  N_11 
REMARK    4  A    between atoms: N_11  and  C_12 
REMARK    5  A    between atoms: C_15  and  N_19 
ROOT
HETATM    1  N   UNL     1     -42.630 -53.466  12.323  1.00  0.00    -0.341 N 
HETATM    2  C   UNL     1     -41.927 -52.480  12.980  1.00  0.00     0.320 C 
HETATM    3  O   UNL     1     -42.453 -51.613  13.658  1.00  0.00    -0.247 OA
HETATM    4  N   UNL     1     -40.587 -52.552  12.672  1.00  0.00    -0.308 N 
HETATM    5  H   UNL     1     -42.197 -54.378  12.383  1.00  0.00     0.164 HD
HETATM    6  H   UNL     1     -40.404 -52.930  11.752  1.00  0.00     0.170 HD
ENDROOT
BRANCH   4   7
HETATM    7  C   UNL     1     -39.665 -51.613  13.173  1.00  0.00     0.051 A 
HETATM    8  C   UNL     1     -39.062 -51.851  14.397  1.00  0.00     0.035 A 
HETATM    9  C   UNL     1     -38.152 -50.916  14.892  1.00  0.00     0.051 A 
HETATM   10  C   UNL     1     -37.908 -49.728  14.199  1.00  0.00     0.103 A 
HETATM   11  N   UNL     1     -38.502 -49.485  13.013  1.00  0.00    -0.350 N 
HETATM   12  C   UNL     1     -39.334 -50.436  12.511  1.00  0.00     0.119 A 
ATOM     13  HN  UNL     1     -38.332 -48.616  12.508  1.00  0.00     0.166 HD
BRANCH  10  14
HETATM   14  N   UNL     1     -37.133 -48.751  14.804  1.00  0.00    -0.363 N 
HETATM   15  C   UNL     1     -36.352 -49.122  15.987  1.00  0.00     0.150 C 
HETATM   16  C   UNL     1     -36.963 -48.588  17.290  1.00  0.00     0.187 C 
HETATM   17  O   UNL     1     -37.237 -47.178  17.203  1.00  0.00    -0.388 OA
HETATM   18  C   UNL     1     -38.181 -46.938  16.150  1.00  0.00     0.187 C 
HETATM   19  C   UNL     1     -37.619 -47.363  14.783  1.00  0.00     0.150 C 
ENDBRANCH  10  14
ENDBRANCH   4   7
BRANCH   1  20
HETATM   20  C   UNL     1     -44.086 -53.437  12.334  1.00  0.00     0.154 C 
BRANCH  20  21
HETATM   21  C   UNL     1     -44.662 -54.135  13.586  1.00  0.00     0.292 C 
BRANCH  21  22
HETATM   22  N   UNL     1     -46.073 -53.824  13.879  1.00  0.00     0.090 N 
HETATM   23  C   UNL     1     -46.468 -52.448  13.562  1.00  0.00     0.273 C 
HETATM   24  C   UNL     1     -45.859 -51.401  14.500  1.00  0.00     0.034 C 
HETATM   25  C   UNL     1     -46.151 -51.702  15.975  1.00  0.00    -0.015 C 
HETATM   26  C   UNL     1     -47.601 -51.365  16.337  1.00  0.00     0.010 C 
HETATM   27  C   UNL     1     -45.818 -53.166  16.299  1.00  0.00     0.034 C 
HETATM   28  C   UNL     1     -46.408 -54.146  15.277  1.00  0.00     0.273 C 
ENDBRANCH  21  22
ENDBRANCH  20  21
ENDBRANCH   1  20
TORSDOF 5
ENDMDL
MODEL 8
REMARK VINA RESULT:      -5.5      7.114     11.036
REMARK  5 active torsions:
REMARK  status: ('A' for Active; 'I' for Inactive)
REMARK    1  A    between atoms: N_5  and  C_6 
REMARK    2  A    between atoms: C_6  and  C_7 
REMARK    3  A    between atoms: C_7  and  N_8 
REMARK       I    between atoms: N_8  and  C_9 
REMARK       I    between atoms: C_9  and  N_11 
REMARK    4  A    between atoms: N_11  and  C_12 
REMARK    5  A    between atoms: C_15  and  N_19 
ROOT
HETATM    1  N   UNL     1     -37.976 -55.402  17.667  1.00  0.00    -0.341 N 
HETATM    2  C   UNL     1     -39.106 -55.692  16.934  1.00  0.00     0.320 C 
HETATM    3  O   UNL     1     -39.409 -56.817  16.575  1.00  0.00    -0.247 OA
HETATM    4  N   UNL     1     -39.764 -54.535  16.580  1.00  0.00    -0.308 N 
HETATM    5  H   UNL     1     -38.134 -54.725  18.400  1.00  0.00     0.164 HD
HETATM    6  H   UNL     1     -39.151 -53.737  16.478  1.00  0.00     0.170 HD
ENDROOT
BRANCH   4   7
HETATM    7  C   UNL     1     -40.918 -54.561  15.775  1.00  0.00     0.051 A 
HETATM    8  C   UNL     1     -40.824 -54.164  14.452  1.00  0.00     0.035 A 
HETATM    9  C   UNL     1     -41.972 -54.188  13.658  1.00  0.00     0.051 A 
HETATM   10  C   UNL     1     -43.207 -54.539  14.209  1.00  0.00     0.103 A 
HETATM   11  N   UNL     1     -43.307 -54.915  15.499  1.00  0.00    -0.350 N 
HETATM   12  C   UNL     1     -42.169 -54.951  16.242  1.00  0.00     0.119 A 
ATOM     13  HN  UNL     1     -44.208 -55.164  15.906  1.00  0.00     0.166 HD
BRANCH  10  14
HETATM   14  N   UNL     1     -44.348 -54.385  13.436  1.00  0.00    -0.363 N 
HETATM   15  C   UNL     1     -44.404 -53.257  12.501  1.00  0.00     0.150 C 
HETATM   16  C   UNL     1     -45.318 -52.127  12.992  1.00  0.00     0.187 C 
HETATM   17  O   UNL     1     -46.614 -52.624  13.369  1.00  0.00    -0.388 OA
HETATM   18  C   UNL     1     -46.472 -53.566  14.442  1.00  0.00     0.187 C 
HETATM   19  C   UNL     1     -45.640 -54.786  14.014  1.00  0.00     0.150 C 
ENDBRANCH  10  14
ENDBRANCH   4   7
BRANCH   1  20
HETATM   20  C   UNL     1     -37.019 -56.462  17.955  1.00  0.00     0.154 C 
BRANCH  20  21
HETATM   21  C   UNL     1     -35.607 -56.115  17.432  1.00  0.00     0.292 C 
BRANCH  21  22
HETATM   22  N   UNL     1     -34.511 -56.362  18.386  1.00  0.00     0.090 N 
HETATM   23  C   UNL     1     -34.163 -55.208  19.221  1.00  0.00     0.273 C 
HETATM   24  C   UNL     1     -33.476 -54.076  18.450  1.00  0.00     0.034 C 
HETATM   25  C   UNL     1     -32.236 -54.562  17.687  1.00  0.00    -0.015 C 
HETATM   26  C   UNL     1     -31.057 -54.803  18.634  1.00  0.00     0.010 C 
HETATM   27  C   UNL     1     -32.568 -55.820  16.873  1.00  0.00     0.034 C 
HETATM   28  C   UNL     1     -33.315 -56.877  17.697  1.00  0.00     0.273 C 
ENDBRANCH  21  22
ENDBRANCH  20  21
ENDBRANCH   1  20
TORSDOF 5
ENDMDL
MODEL 9
REMARK VINA RESULT:      -5.4      2.550      3.314
REMARK  5 active torsions:
REMARK  status: ('A' for Active; 'I' for Inactive)
REMARK    1  A    between atoms: N_5  and  C_6 
REMARK    2  A    between atoms: C_6  and  C_7 
REMARK    3  A    between atoms: C_7  and  N_8 
REMARK       I    between atoms: N_8  and  C_9 
REMARK       I    between atoms: C_9  and  N_11 
REMARK    4  A    between atoms: N_11  and  C_12 
REMARK    5  A    between atoms: C_15  and  N_19 
ROOT
HETATM    1  N   UNL     1     -39.332 -51.781  15.156  1.00  0.00    -0.341 N 
HETATM    2  C   UNL     1     -39.748 -50.960  14.131  1.00  0.00     0.320 C 
HETATM    3  O   UNL     1     -40.344 -51.359  13.145  1.00  0.00    -0.247 OA
HETATM    4  N   UNL     1     -39.303 -49.671  14.330  1.00  0.00    -0.308 N 
HETATM    5  H   UNL     1     -39.478 -51.385  16.075  1.00  0.00     0.164 HD
HETATM    6  H   UNL     1     -38.435 -49.620  14.847  1.00  0.00     0.170 HD
ENDROOT
BRANCH   4   7
HETATM    7  C   UNL     1     -39.548 -48.654  13.389  1.00  0.00     0.051 A 
HETATM    8  C   UNL     1     -40.229 -47.518  13.790  1.00  0.00     0.035 A 
HETATM    9  C   UNL     1     -40.474 -46.514  12.852  1.00  0.00     0.051 A 
HETATM   10  C   UNL     1     -40.100 -46.684  11.516  1.00  0.00     0.103 A 
HETATM   11  N   UNL     1     -39.447 -47.793  11.118  1.00  0.00    -0.350 N 
HETATM   12  C   UNL     1     -39.156 -48.733  12.056  1.00  0.00     0.119 A 
ATOM     13  HN  UNL     1     -39.179 -47.924  10.143  1.00  0.00     0.166 HD
BRANCH  10  14
HETATM   14  N   UNL     1     -40.511 -45.744  10.585  1.00  0.00    -0.363 N 
HETATM   15  C   UNL     1     -39.776 -44.478  10.508  1.00  0.00     0.150 C 
HETATM   16  C   UNL     1     -40.546 -43.307  11.131  1.00  0.00     0.187 C 
HETATM   17  O   UNL     1     -41.886 -43.223  10.614  1.00  0.00    -0.388 OA
HETATM   18  C   UNL     1     -42.597 -44.429  10.929  1.00  0.00     0.187 C 
HETATM   19  C   UNL     1     -41.945 -45.655  10.269  1.00  0.00     0.150 C 
ENDBRANCH  10  14
ENDBRANCH   4   7
BRANCH   1  20
HETATM   20  C   UNL     1     -39.506 -53.222  15.035  1.00  0.00     0.154 C 
BRANCH  20  21
HETATM   21  C   UNL     1     -40.839 -53.691  15.659  1.00  0.00     0.292 C 
BRANCH  21  22
HETATM   22  N   UNL     1     -41.543 -54.745  14.906  1.00  0.00     0.090 N 
HETATM   23  C   UNL     1     -42.065 -54.314  13.605  1.00  0.00     0.273 C 
HETATM   24  C   UNL     1     -43.250 -53.348  13.708  1.00  0.00     0.034 C 
HETATM   25  C   UNL     1     -44.389 -53.914  14.566  1.00  0.00    -0.015 C 
HETATM   26  C   UNL     1     -45.172 -54.994  13.814  1.00  0.00     0.010 C 
HETATM   27  C   UNL     1     -43.841 -54.444  15.899  1.00  0.00     0.034 C 
HETATM   28  C   UNL     1     -42.615 -55.349  15.716  1.00  0.00     0.273 C 
ENDBRANCH  21  22
ENDBRANCH  20  21
ENDBRANCH   1  20
TORSDOF 5
ENDMDL
