MODEL 1
REMARK VINA RESULT:      -6.8      0.000      0.000
REMARK  4 active torsions:
REMARK  status: ('A' for Active; 'I' for Inactive)
REMARK    1  A    between atoms: N_11  and  C_12 
REMARK    2  A    between atoms: C_12  and  C_13 
REMARK    3  A    between atoms: C_13  and  O_14 
REMARK    4  A    between atoms: C_13  and  C_15 
ROOT
HETATM    1  C   UNL     1     -41.764 -56.132  16.851  1.00  0.00     0.164 C 
HETATM    2  N   UNL     1     -41.569 -55.219  15.741  1.00  0.00    -0.269 N 
HETATM    3  C   UNL     1     -40.274 -54.712  15.511  1.00  0.00     0.332 A 
HETATM    4  O   UNL     1     -39.322 -55.032  16.228  1.00  0.00    -0.246 OA
HETATM    5  N   UNL     1     -40.117 -53.831  14.438  1.00  0.00    -0.287 N 
HETATM    6  C   UNL     1     -38.814 -53.270  14.128  1.00  0.00     0.163 C 
HETATM    7  C   UNL     1     -41.208 -53.506  13.666  1.00  0.00     0.145 A 
HETATM    8  N   UNL     1     -41.218 -52.664  12.596  1.00  0.00    -0.336 N 
ATOM      9  HN  UNL     1     -40.434 -52.141  12.206  1.00  0.00     0.168 HD
HETATM   10  C   UNL     1     -42.467 -52.675  12.176  1.00  0.00     0.185 A 
HETATM   11  N   UNL     1     -43.250 -53.497  12.945  1.00  0.00    -0.333 N 
HETATM   12  C   UNL     1     -42.441 -54.026  13.912  1.00  0.00     0.149 A 
HETATM   13  C   UNL     1     -42.702 -54.936  14.972  1.00  0.00     0.282 A 
HETATM   14  O   UNL     1     -43.812 -55.421  15.179  1.00  0.00    -0.265 OA
ENDROOT
BRANCH  11  15
HETATM   15  C   UNL     1     -44.673 -53.733  12.769  1.00  0.00     0.167 C 
BRANCH  15  16
HETATM   16  C   UNL     1     -45.483 -52.428  12.694  1.00  0.00     0.169 C 
BRANCH  16  17
HETATM   17  O   UNL     1     -46.770 -52.622  12.104  1.00  0.00    -0.389 OA
HETATM   18  H   UNL     1     -46.899 -51.940  11.417  1.00  0.00     0.210 HD
ENDBRANCH  16  17
BRANCH  16  19
HETATM   19  C   UNL     1     -45.698 -51.779  14.046  1.00  0.00    -0.025 A 
HETATM   20  C   UNL     1     -44.664 -51.089  14.706  1.00  0.00     0.010 A 
HETATM   21  C   UNL     1     -44.859 -50.560  15.986  1.00  0.00     0.004 A 
HETATM   22  C   UNL     1     -46.089 -50.710  16.622  1.00  0.00     0.042 A 
HETATM   23  C   UNL     1     -47.114 -51.383  15.972  1.00  0.00     0.117 A 
HETATM   24  F   UNL     1     -48.296 -51.532  16.584  1.00  0.00    -0.206 F 
HETATM   25  C   UNL     1     -46.932 -51.916  14.698  1.00  0.00     0.052 A 
ENDBRANCH  16  19
ENDBRANCH  15  16
ENDBRANCH  11  15
TORSDOF 4
ENDMDL
MODEL 2
REMARK VINA RESULT:      -6.6      4.805      6.367
REMARK  4 active torsions:
REMARK  status: ('A' for Active; 'I' for Inactive)
REMARK    1  A    between atoms: N_11  and  C_12 
REMARK    2  A    between atoms: C_12  and  C_13 
REMARK    3  A    between atoms: C_13  and  O_14 
REMARK    4  A    between atoms: C_13  and  C_15 
ROOT
HETATM    1  C   UNL     1     -38.605 -46.917  15.522  1.00  0.00     0.164 C 
HETATM    2  N   UNL     1     -39.145 -47.312  14.236  1.00  0.00    -0.269 N 
HETATM    3  C   UNL     1     -39.302 -46.324  13.243  1.00  0.00     0.332 A 
HETATM    4  O   UNL     1     -38.988 -45.149  13.451  1.00  0.00    -0.246 OA
HETATM    5  N   UNL     1     -39.829 -46.734  12.015  1.00  0.00    -0.287 N 
HETATM    6  C   UNL     1     -40.015 -45.780  10.936  1.00  0.00     0.163 C 
HETATM    7  C   UNL     1     -40.162 -48.056  11.830  1.00  0.00     0.145 A 
HETATM    8  N   UNL     1     -40.688 -48.606  10.701  1.00  0.00    -0.336 N 
ATOM      9  HN  UNL     1     -40.923 -48.133   9.828  1.00  0.00     0.168 HD
HETATM   10  C   UNL     1     -40.825 -49.884  10.988  1.00  0.00     0.185 A 
HETATM   11  N   UNL     1     -40.404 -50.164  12.262  1.00  0.00    -0.333 N 
HETATM   12  C   UNL     1     -39.986 -48.983  12.810  1.00  0.00     0.149 A 
HETATM   13  C   UNL     1     -39.448 -48.670  14.088  1.00  0.00     0.282 A 
HETATM   14  O   UNL     1     -39.270 -49.514  14.963  1.00  0.00    -0.265 OA
ENDROOT
BRANCH  11  15
HETATM   15  C   UNL     1     -40.427 -51.468  12.903  1.00  0.00     0.167 C 
BRANCH  15  16
HETATM   16  C   UNL     1     -41.269 -52.493  12.128  1.00  0.00     0.169 C 
BRANCH  16  17
HETATM   17  O   UNL     1     -40.462 -53.403  11.379  1.00  0.00    -0.389 OA
HETATM   18  H   UNL     1     -39.690 -53.650  11.923  1.00  0.00     0.210 HD
ENDBRANCH  16  17
BRANCH  16  19
HETATM   19  C   UNL     1     -42.175 -53.319  13.018  1.00  0.00    -0.025 A 
HETATM   20  C   UNL     1     -41.669 -54.059  14.103  1.00  0.00     0.010 A 
HETATM   21  C   UNL     1     -42.510 -54.874  14.868  1.00  0.00     0.004 A 
HETATM   22  C   UNL     1     -43.866 -54.959  14.562  1.00  0.00     0.042 A 
HETATM   23  C   UNL     1     -44.371 -54.224  13.498  1.00  0.00     0.117 A 
HETATM   24  F   UNL     1     -45.674 -54.306  13.200  1.00  0.00    -0.206 F 
HETATM   25  C   UNL     1     -43.544 -53.410  12.728  1.00  0.00     0.052 A 
ENDBRANCH  16  19
ENDBRANCH  15  16
ENDBRANCH  11  15
TORSDOF 4
ENDMDL
MODEL 3
REMARK VINA RESULT:      -6.3      2.441      3.262
REMARK  4 active torsions:
REMARK  status: ('A' for Active; 'I' for Inactive)
REMARK    1  A    between atoms: N_11  and  C_12 
REMARK    2  A    between atoms: C_12  and  C_13 
REMARK    3  A    between atoms: C_13  and  O_14 
REMARK    4  A    between atoms: C_13  and  C_15 
ROOT
HETATM    1  C   UNL     1     -38.339 -51.563  16.766  1.00  0.00     0.164 C 
HETATM    2  N   UNL     1     -38.803 -51.504  15.394  1.00  0.00    -0.269 N 
HETATM    3  C   UNL     1     -38.033 -50.785  14.457  1.00  0.00     0.332 A 
HETATM    4  O   UNL     1     -36.987 -50.218  14.785  1.00  0.00    -0.246 OA
HETATM    5  N   UNL     1     -38.507 -50.742  13.143  1.00  0.00    -0.287 N 
HETATM    6  C   UNL     1     -37.769 -50.030  12.114  1.00  0.00     0.163 C 
HETATM    7  C   UNL     1     -39.678 -51.392  12.826  1.00  0.00     0.145 A 
HETATM    8  N   UNL     1     -40.268 -51.438  11.600  1.00  0.00    -0.336 N 
ATOM      9  HN  UNL     1     -39.949 -51.000  10.736  1.00  0.00     0.168 HD
HETATM   10  C   UNL     1     -41.346 -52.175  11.778  1.00  0.00     0.185 A 
HETATM   11  N   UNL     1     -41.458 -52.599  13.078  1.00  0.00    -0.333 N 
HETATM   12  C   UNL     1     -40.388 -52.085  13.756  1.00  0.00     0.149 A 
HETATM   13  C   UNL     1     -39.985 -52.197  15.115  1.00  0.00     0.282 A 
HETATM   14  O   UNL     1     -40.616 -52.843  15.948  1.00  0.00    -0.265 OA
ENDROOT
BRANCH  11  15
HETATM   15  C   UNL     1     -42.528 -53.417  13.621  1.00  0.00     0.167 C 
BRANCH  15  16
HETATM   16  C   UNL     1     -43.867 -53.194  12.899  1.00  0.00     0.169 C 
BRANCH  16  17
HETATM   17  O   UNL     1     -44.294 -54.350  12.178  1.00  0.00    -0.389 OA
HETATM   18  H   UNL     1     -45.129 -54.135  11.718  1.00  0.00     0.210 HD
ENDBRANCH  16  17
BRANCH  16  19
HETATM   19  C   UNL     1     -44.993 -52.802  13.835  1.00  0.00    -0.025 A 
HETATM   20  C   UNL     1     -45.876 -51.751  13.527  1.00  0.00     0.010 A 
HETATM   21  C   UNL     1     -46.863 -51.355  14.436  1.00  0.00     0.004 A 
HETATM   22  C   UNL     1     -46.983 -52.005  15.662  1.00  0.00     0.042 A 
HETATM   23  C   UNL     1     -46.118 -53.048  15.966  1.00  0.00     0.117 A 
HETATM   24  F   UNL     1     -46.229 -53.672  17.146  1.00  0.00    -0.206 F 
HETATM   25  C   UNL     1     -45.131 -53.450  15.070  1.00  0.00     0.052 A 
ENDBRANCH  16  19
ENDBRANCH  15  16
ENDBRANCH  11  15
TORSDOF 4
ENDMDL
MODEL 4
REMARK VINA RESULT:      -6.3      4.494      5.600
REMARK  4 active torsions:
REMARK  status: ('A' for Active; 'I' for Inactive)
REMARK    1  A    between atoms: N_11  and  C_12 
REMARK    2  A    between atoms: C_12  and  C_13 
REMARK    3  A    between atoms: C_13  and  O_14 
REMARK    4  A    between atoms: C_13  and  C_15 
ROOT
HETATM    1  C   UNL     1     -45.004 -54.815  13.932  1.00  0.00     0.164 C 
HETATM    2  N   UNL     1     -43.665 -54.276  14.074  1.00  0.00    -0.269 N 
HETATM    3  C   UNL     1     -42.752 -54.960  14.902  1.00  0.00     0.332 A 
HETATM    4  O   UNL     1     -43.072 -55.995  15.493  1.00  0.00    -0.246 OA
HETATM    5  N   UNL     1     -41.472 -54.414  15.023  1.00  0.00    -0.287 N 
HETATM    6  C   UNL     1     -40.468 -55.062  15.849  1.00  0.00     0.163 C 
HETATM    7  C   UNL     1     -41.162 -53.260  14.341  1.00  0.00     0.145 A 
HETATM    8  N   UNL     1     -39.967 -52.607  14.361  1.00  0.00    -0.336 N 
ATOM      9  HN  UNL     1     -39.126 -52.859  14.881  1.00  0.00     0.168 HD
HETATM   10  C   UNL     1     -40.139 -51.576  13.558  1.00  0.00     0.185 A 
HETATM   11  N   UNL     1     -41.405 -51.554  13.030  1.00  0.00    -0.333 N 
HETATM   12  C   UNL     1     -42.068 -52.634  13.543  1.00  0.00     0.149 A 
HETATM   13  C   UNL     1     -43.391 -53.114  13.346  1.00  0.00     0.282 A 
HETATM   14  O   UNL     1     -44.200 -52.559  12.606  1.00  0.00    -0.265 OA
ENDROOT
BRANCH  11  15
HETATM   15  C   UNL     1     -41.933 -50.553  12.119  1.00  0.00     0.167 C 
BRANCH  15  16
HETATM   16  C   UNL     1     -40.838 -49.643  11.541  1.00  0.00     0.169 C 
BRANCH  16  17
HETATM   17  O   UNL     1     -40.270 -50.172  10.342  1.00  0.00    -0.389 OA
HETATM   18  H   UNL     1     -40.797 -50.947  10.067  1.00  0.00     0.210 HD
ENDBRANCH  16  17
BRANCH  16  19
HETATM   19  C   UNL     1     -41.325 -48.242  11.232  1.00  0.00    -0.025 A 
HETATM   20  C   UNL     1     -42.681 -47.974  10.967  1.00  0.00     0.010 A 
HETATM   21  C   UNL     1     -43.101 -46.688  10.610  1.00  0.00     0.004 A 
HETATM   22  C   UNL     1     -42.173 -45.653  10.518  1.00  0.00     0.042 A 
HETATM   23  C   UNL     1     -40.836 -45.911  10.786  1.00  0.00     0.117 A 
HETATM   24  F   UNL     1     -39.942 -44.918  10.694  1.00  0.00    -0.206 F 
HETATM   25  C   UNL     1     -40.406 -47.187  11.140  1.00  0.00     0.052 A 
ENDBRANCH  16  19
ENDBRANCH  15  16
ENDBRANCH  11  15
TORSDOF 4
ENDMDL
MODEL 5
REMARK VINA RESULT:      -6.1      3.036      4.079
REMARK  4 active torsions:
REMARK  status: ('A' for Active; 'I' for Inactive)
REMARK    1  A    between atoms: N_11  and  C_12 
REMARK    2  A    between atoms: C_12  and  C_13 
REMARK    3  A    between atoms: C_13  and  O_14 
REMARK    4  A    between atoms: C_13  and  C_15 
ROOT
HETATM    1  C   UNL     1     -39.964 -49.030  16.322  1.00  0.00     0.164 C 
HETATM    2  N   UNL     1     -40.090 -49.831  15.120  1.00  0.00    -0.269 N 
HETATM    3  C   UNL     1     -39.524 -49.341  13.926  1.00  0.00     0.332 A 
HETATM    4  O   UNL     1     -38.931 -48.259  13.894  1.00  0.00    -0.246 OA
HETATM    5  N   UNL     1     -39.665 -50.132  12.783  1.00  0.00    -0.287 N 
HETATM    6  C   UNL     1     -39.103 -49.703  11.514  1.00  0.00     0.163 C 
HETATM    7  C   UNL     1     -40.332 -51.332  12.871  1.00  0.00     0.145 A 
HETATM    8  N   UNL     1     -40.556 -52.207  11.852  1.00  0.00    -0.336 N 
ATOM      9  HN  UNL     1     -40.276 -52.113  10.875  1.00  0.00     0.168 HD
HETATM   10  C   UNL     1     -41.214 -53.204  12.409  1.00  0.00     0.185 A 
HETATM   11  N   UNL     1     -41.415 -52.989  13.748  1.00  0.00    -0.333 N 
HETATM   12  C   UNL     1     -40.856 -51.777  14.045  1.00  0.00     0.149 A 
HETATM   13  C   UNL     1     -40.757 -51.052  15.263  1.00  0.00     0.282 A 
HETATM   14  O   UNL     1     -41.212 -51.467  16.327  1.00  0.00    -0.265 OA
ENDROOT
BRANCH  11  15
HETATM   15  C   UNL     1     -42.113 -53.878  14.661  1.00  0.00     0.167 C 
BRANCH  15  16
HETATM   16  C   UNL     1     -43.434 -54.406  14.078  1.00  0.00     0.169 C 
BRANCH  16  17
HETATM   17  O   UNL     1     -44.006 -55.441  14.879  1.00  0.00    -0.389 OA
HETATM   18  H   UNL     1     -44.706 -55.881  14.359  1.00  0.00     0.210 HD
ENDBRANCH  16  17
BRANCH  16  19
HETATM   19  C   UNL     1     -44.487 -53.329  13.910  1.00  0.00    -0.025 A 
HETATM   20  C   UNL     1     -44.829 -52.460  14.963  1.00  0.00     0.010 A 
HETATM   21  C   UNL     1     -45.855 -51.521  14.813  1.00  0.00     0.004 A 
HETATM   22  C   UNL     1     -46.549 -51.435  13.609  1.00  0.00     0.042 A 
HETATM   23  C   UNL     1     -46.210 -52.284  12.565  1.00  0.00     0.117 A 
HETATM   24  F   UNL     1     -46.879 -52.205  11.407  1.00  0.00    -0.206 F 
HETATM   25  C   UNL     1     -45.192 -53.223  12.702  1.00  0.00     0.052 A 
ENDBRANCH  16  19
ENDBRANCH  15  16
ENDBRANCH  11  15
TORSDOF 4
ENDMDL
MODEL 6
REMARK VINA RESULT:      -6.1      3.384      6.339
REMARK  4 active torsions:
REMARK  status: ('A' for Active; 'I' for Inactive)
REMARK    1  A    between atoms: N_11  and  C_12 
REMARK    2  A    between atoms: C_12  and  C_13 
REMARK    3  A    between atoms: C_13  and  O_14 
REMARK    4  A    between atoms: C_13  and  C_15 
ROOT
HETATM    1  C   UNL     1     -46.316 -51.610  13.201  1.00  0.00     0.164 C 
HETATM    2  N   UNL     1     -45.536 -52.453  14.088  1.00  0.00    -0.269 N 
HETATM    3  C   UNL     1     -46.085 -52.796  15.340  1.00  0.00     0.332 A 
HETATM    4  O   UNL     1     -47.201 -52.397  15.682  1.00  0.00    -0.246 OA
HETATM    5  N   UNL     1     -45.309 -53.604  16.174  1.00  0.00    -0.287 N 
HETATM    6  C   UNL     1     -45.804 -54.011  17.478  1.00  0.00     0.163 C 
HETATM    7  C   UNL     1     -44.071 -54.026  15.746  1.00  0.00     0.145 A 
HETATM    8  N   UNL     1     -43.200 -54.808  16.441  1.00  0.00    -0.336 N 
ATOM      9  HN  UNL     1     -43.318 -55.195  17.377  1.00  0.00     0.168 HD
HETATM   10  C   UNL     1     -42.169 -54.954  15.634  1.00  0.00     0.185 A 
HETATM   11  N   UNL     1     -42.357 -54.290  14.449  1.00  0.00    -0.333 N 
HETATM   12  C   UNL     1     -43.580 -53.682  14.525  1.00  0.00     0.149 A 
HETATM   13  C   UNL     1     -44.294 -52.873  13.600  1.00  0.00     0.282 A 
HETATM   14  O   UNL     1     -43.858 -52.583  12.489  1.00  0.00    -0.265 OA
ENDROOT
BRANCH  11  15
HETATM   15  C   UNL     1     -41.418 -54.232  13.343  1.00  0.00     0.167 C 
BRANCH  15  16
HETATM   16  C   UNL     1     -40.050 -53.664  13.757  1.00  0.00     0.169 C 
BRANCH  16  17
HETATM   17  O   UNL     1     -38.967 -54.488  13.325  1.00  0.00    -0.389 OA
HETATM   18  H   UNL     1     -39.032 -55.348  13.783  1.00  0.00     0.210 HD
ENDBRANCH  16  17
BRANCH  16  19
HETATM   19  C   UNL     1     -39.797 -52.268  13.228  1.00  0.00    -0.025 A 
HETATM   20  C   UNL     1     -40.639 -51.678  12.267  1.00  0.00     0.010 A 
HETATM   21  C   UNL     1     -40.348 -50.417  11.735  1.00  0.00     0.004 A 
HETATM   22  C   UNL     1     -39.214 -49.728  12.158  1.00  0.00     0.042 A 
HETATM   23  C   UNL     1     -38.384 -50.302  13.112  1.00  0.00     0.117 A 
HETATM   24  F   UNL     1     -37.291 -49.643  13.517  1.00  0.00    -0.206 F 
HETATM   25  C   UNL     1     -38.663 -51.557  13.647  1.00  0.00     0.052 A 
ENDBRANCH  16  19
ENDBRANCH  15  16
ENDBRANCH  11  15
TORSDOF 4
ENDMDL
MODEL 7
REMARK VINA RESULT:      -6.0      2.638      4.012
REMARK  4 active torsions:
REMARK  status: ('A' for Active; 'I' for Inactive)
REMARK    1  A    between atoms: N_11  and  C_12 
REMARK    2  A    between atoms: C_12  and  C_13 
REMARK    3  A    between atoms: C_13  and  O_14 
REMARK    4  A    between atoms: C_13  and  C_15 
ROOT
HETATM    1  C   UNL     1     -37.510 -50.672  13.081  1.00  0.00     0.164 C 
HETATM    2  N   UNL     1     -38.318 -51.268  14.127  1.00  0.00    -0.269 N 
HETATM    3  C   UNL     1     -37.979 -51.004  15.470  1.00  0.00     0.332 A 
HETATM    4  O   UNL     1     -37.020 -50.282  15.759  1.00  0.00    -0.246 OA
HETATM    5  N   UNL     1     -38.772 -51.595  16.455  1.00  0.00    -0.287 N 
HETATM    6  C   UNL     1     -38.495 -51.366  17.863  1.00  0.00     0.163 C 
HETATM    7  C   UNL     1     -39.831 -52.391  16.083  1.00  0.00     0.145 A 
HETATM    8  N   UNL     1     -40.689 -53.037  16.920  1.00  0.00    -0.336 N 
ATOM      9  HN  UNL     1     -40.680 -53.043  17.940  1.00  0.00     0.168 HD
HETATM   10  C   UNL     1     -41.533 -53.654  16.118  1.00  0.00     0.185 A 
HETATM   11  N   UNL     1     -41.239 -53.420  14.799  1.00  0.00    -0.333 N 
HETATM   12  C   UNL     1     -40.135 -52.614  14.776  1.00  0.00     0.149 A 
HETATM   13  C   UNL     1     -39.396 -52.051  13.700  1.00  0.00     0.282 A 
HETATM   14  O   UNL     1     -39.686 -52.236  12.520  1.00  0.00    -0.265 OA
ENDROOT
BRANCH  11  15
HETATM   15  C   UNL     1     -41.957 -53.955  13.655  1.00  0.00     0.167 C 
BRANCH  15  16
HETATM   16  C   UNL     1     -42.986 -52.963  13.087  1.00  0.00     0.169 C 
BRANCH  16  17
HETATM   17  O   UNL     1     -43.130 -53.083  11.671  1.00  0.00    -0.389 OA
HETATM   18  H   UNL     1     -43.470 -52.237  11.324  1.00  0.00     0.210 HD
ENDBRANCH  16  17
BRANCH  16  19
HETATM   19  C   UNL     1     -44.364 -53.115  13.698  1.00  0.00    -0.025 A 
HETATM   20  C   UNL     1     -44.890 -54.377  14.028  1.00  0.00     0.010 A 
HETATM   21  C   UNL     1     -46.193 -54.504  14.522  1.00  0.00     0.004 A 
HETATM   22  C   UNL     1     -46.985 -53.371  14.695  1.00  0.00     0.042 A 
HETATM   23  C   UNL     1     -46.467 -52.123  14.379  1.00  0.00     0.117 A 
HETATM   24  F   UNL     1     -47.228 -51.033  14.542  1.00  0.00    -0.206 F 
HETATM   25  C   UNL     1     -45.172 -51.984  13.885  1.00  0.00     0.052 A 
ENDBRANCH  16  19
ENDBRANCH  15  16
ENDBRANCH  11  15
TORSDOF 4
ENDMDL
MODEL 8
REMARK VINA RESULT:      -6.0      3.596      5.064
REMARK  4 active torsions:
REMARK  status: ('A' for Active; 'I' for Inactive)
REMARK    1  A    between atoms: N_11  and  C_12 
REMARK    2  A    between atoms: C_12  and  C_13 
REMARK    3  A    between atoms: C_13  and  O_14 
REMARK    4  A    between atoms: C_13  and  C_15 
ROOT
HETATM    1  C   UNL     1     -38.101 -51.920  18.162  1.00  0.00     0.164 C 
HETATM    2  N   UNL     1     -38.114 -51.273  16.864  1.00  0.00    -0.269 N 
HETATM    3  C   UNL     1     -37.480 -50.021  16.734  1.00  0.00     0.332 A 
HETATM    4  O   UNL     1     -36.922 -49.481  17.693  1.00  0.00    -0.246 OA
HETATM    5  N   UNL     1     -37.512 -49.419  15.473  1.00  0.00    -0.287 N 
HETATM    6  C   UNL     1     -36.874 -48.133  15.252  1.00  0.00     0.163 C 
HETATM    7  C   UNL     1     -38.144 -50.062  14.434  1.00  0.00     0.145 A 
HETATM    8  N   UNL     1     -38.264 -49.606  13.156  1.00  0.00    -0.336 N 
ATOM      9  HN  UNL     1     -37.918 -48.727  12.773  1.00  0.00     0.168 HD
HETATM   10  C   UNL     1     -38.928 -50.555  12.527  1.00  0.00     0.185 A 
HETATM   11  N   UNL     1     -39.232 -51.598  13.363  1.00  0.00    -0.333 N 
HETATM   12  C   UNL     1     -38.736 -51.276  14.596  1.00  0.00     0.149 A 
HETATM   13  C   UNL     1     -38.749 -51.974  15.834  1.00  0.00     0.282 A 
HETATM   14  O   UNL     1     -39.265 -53.081  15.972  1.00  0.00    -0.265 OA
ENDROOT
BRANCH  11  15
HETATM   15  C   UNL     1     -39.964 -52.799  13.000  1.00  0.00     0.167 C 
BRANCH  15  16
HETATM   16  C   UNL     1     -41.360 -52.492  12.435  1.00  0.00     0.169 C 
BRANCH  16  17
HETATM   17  O   UNL     1     -41.412 -52.626  11.014  1.00  0.00    -0.389 OA
HETATM   18  H   UNL     1     -42.279 -53.004  10.771  1.00  0.00     0.210 HD
ENDBRANCH  16  17
BRANCH  16  19
HETATM   19  C   UNL     1     -42.447 -53.374  13.013  1.00  0.00    -0.025 A 
HETATM   20  C   UNL     1     -43.770 -53.325  12.536  1.00  0.00     0.010 A 
HETATM   21  C   UNL     1     -44.776 -54.092  13.132  1.00  0.00     0.004 A 
HETATM   22  C   UNL     1     -44.474 -54.922  14.209  1.00  0.00     0.042 A 
HETATM   23  C   UNL     1     -43.169 -54.981  14.677  1.00  0.00     0.117 A 
HETATM   24  F   UNL     1     -42.877 -55.775  15.716  1.00  0.00    -0.206 F 
HETATM   25  C   UNL     1     -42.159 -54.220  14.094  1.00  0.00     0.052 A 
ENDBRANCH  16  19
ENDBRANCH  15  16
ENDBRANCH  11  15
TORSDOF 4
ENDMDL
MODEL 9
REMARK VINA RESULT:      -5.9      5.877      7.403
REMARK  4 active torsions:
REMARK  status: ('A' for Active; 'I' for Inactive)
REMARK    1  A    between atoms: N_11  and  C_12 
REMARK    2  A    between atoms: C_12  and  C_13 
REMARK    3  A    between atoms: C_13  and  O_14 
REMARK    4  A    between atoms: C_13  and  C_15 
ROOT
HETATM    1  C   UNL     1     -39.168 -45.584  15.336  1.00  0.00     0.164 C 
HETATM    2  N   UNL     1     -39.623 -45.953  14.010  1.00  0.00    -0.269 N 
HETATM    3  C   UNL     1     -39.408 -45.047  12.952  1.00  0.00     0.332 A 
HETATM    4  O   UNL     1     -38.846 -43.964  13.138  1.00  0.00    -0.246 OA
HETATM    5  N   UNL     1     -39.862 -45.427  11.686  1.00  0.00    -0.287 N 
HETATM    6  C   UNL     1     -39.672 -44.554  10.541  1.00  0.00     0.163 C 
HETATM    7  C   UNL     1     -40.481 -46.645  11.529  1.00  0.00     0.145 A 
HETATM    8  N   UNL     1     -40.979 -47.154  10.367  1.00  0.00    -0.336 N 
ATOM      9  HN  UNL     1     -40.980 -46.718   9.445  1.00  0.00     0.168 HD
HETATM   10  C   UNL     1     -41.459 -48.335  10.702  1.00  0.00     0.185 A 
HETATM   11  N   UNL     1     -41.281 -48.592  12.037  1.00  0.00    -0.333 N 
HETATM   12  C   UNL     1     -40.660 -47.499  12.573  1.00  0.00     0.149 A 
HETATM   13  C   UNL     1     -40.227 -47.209  13.895  1.00  0.00     0.282 A 
HETATM   14  O   UNL     1     -40.370 -47.991  14.832  1.00  0.00    -0.265 OA
ENDROOT
BRANCH  11  15
HETATM   15  C   UNL     1     -41.701 -49.793  12.738  1.00  0.00     0.167 C 
BRANCH  15  16
HETATM   16  C   UNL     1     -41.298 -51.080  12.002  1.00  0.00     0.169 C 
BRANCH  16  17
HETATM   17  O   UNL     1     -39.881 -51.219  11.888  1.00  0.00    -0.389 OA
HETATM   18  H   UNL     1     -39.578 -51.853  12.567  1.00  0.00     0.210 HD
ENDBRANCH  16  17
BRANCH  16  19
HETATM   19  C   UNL     1     -41.825 -52.338  12.662  1.00  0.00    -0.025 A 
HETATM   20  C   UNL     1     -43.162 -52.748  12.508  1.00  0.00     0.010 A 
HETATM   21  C   UNL     1     -43.650 -53.870  13.185  1.00  0.00     0.004 A 
HETATM   22  C   UNL     1     -42.809 -54.600  14.021  1.00  0.00     0.042 A 
HETATM   23  C   UNL     1     -41.486 -54.204  14.170  1.00  0.00     0.117 A 
HETATM   24  F   UNL     1     -40.676 -54.903  14.976  1.00  0.00    -0.206 F 
HETATM   25  C   UNL     1     -40.989 -53.088  13.502  1.00  0.00     0.052 A 
ENDBRANCH  16  19
ENDBRANCH  15  16
ENDBRANCH  11  15
TORSDOF 4
ENDMDL
