MODEL 1
REMARK VINA RESULT:      -5.8      0.000      0.000
REMARK  6 active torsions:
REMARK  status: ('A' for Active; 'I' for Inactive)
REMARK    1  A    between atoms: C_2  and  C_3 
REMARK    2  A    between atoms: C_6  and  C_7 
REMARK    3  A    between atoms: C_7  and  C_8 
REMARK       I    between atoms: C_8  and  N_10 
REMARK    4  A    between atoms: N_10  and  C_11 
REMARK    5  A    between atoms: C_11  and  C_12 
REMARK    6  A    between atoms: C_12  and  C_13 
ROOT
HETATM    1  C   UNL     1     -41.271 -50.265  11.795  1.00  0.00     0.223 C 
HETATM    2  O   UNL     1     -42.378 -50.248  12.331  1.00  0.00    -0.273 OA
HETATM    3  N   UNL     1     -40.575 -51.439  11.549  1.00  0.00    -0.361 N 
HETATM    4  H   UNL     1     -39.879 -51.385  10.809  1.00  0.00     0.162 HD
ENDROOT
BRANCH   1   5
HETATM    5  C   UNL     1     -40.560 -48.972  11.440  1.00  0.00     0.160 C 
BRANCH   5   6
HETATM    6  C   UNL     1     -41.458 -47.958  10.820  1.00  0.00     0.025 A 
HETATM    7  N   UNL     1     -42.436 -48.383   9.929  1.00  0.00    -0.356 N 
HETATM    8  C   UNL     1     -43.086 -47.344   9.449  1.00  0.00     0.050 A 
ATOM      9  HN  UNL     1     -42.621 -49.355   9.683  1.00  0.00     0.166 HD
HETATM   10  S   UNL     1     -42.565 -45.810  10.023  1.00  0.00    -0.087 SA
HETATM   11  C   UNL     1     -41.398 -46.589  11.002  1.00  0.00     0.077 A 
BRANCH   8  12
HETATM   12  C   UNL     1     -44.227 -47.440   8.487  1.00  0.00     0.060 C 
HETATM   13  C   UNL     1     -45.556 -47.273   9.206  1.00  0.00     0.012 C 
ENDBRANCH   8  12
ENDBRANCH   5   6
ENDBRANCH   1   5
BRANCH   3  14
HETATM   14  C   UNL     1     -41.282 -52.681  11.788  1.00  0.00     0.123 C 
BRANCH  14  15
HETATM   15  C   UNL     1     -41.358 -53.135  13.246  1.00  0.00     0.024 C 
BRANCH  15  16
HETATM   16  C   UNL     1     -42.468 -54.204  13.453  1.00  0.00    -0.010 C 
HETATM   17  C   UNL     1     -43.807 -53.784  12.821  1.00  0.00     0.035 C 
HETATM   18  C   UNL     1     -44.559 -52.742  13.658  1.00  0.00     0.272 C 
HETATM   19  N   UNL     1     -44.743 -53.113  15.067  1.00  0.00     0.084 N 
HETATM   20  C   UNL     1     -45.776 -54.134  15.244  1.00  0.00     0.309 C 
HETATM   21  C   UNL     1     -43.472 -53.499  15.690  1.00  0.00     0.272 C 
HETATM   22  C   UNL     1     -42.717 -54.587  14.923  1.00  0.00     0.035 C 
ENDBRANCH  15  16
ENDBRANCH  14  15
ENDBRANCH   3  14
TORSDOF 6
ENDMDL
MODEL 2
REMARK VINA RESULT:      -5.7      1.627      2.390
REMARK  6 active torsions:
REMARK  status: ('A' for Active; 'I' for Inactive)
REMARK    1  A    between atoms: C_2  and  C_3 
REMARK    2  A    between atoms: C_6  and  C_7 
REMARK    3  A    between atoms: C_7  and  C_8 
REMARK       I    between atoms: C_8  and  N_10 
REMARK    4  A    between atoms: N_10  and  C_11 
REMARK    5  A    between atoms: C_11  and  C_12 
REMARK    6  A    between atoms: C_12  and  C_13 
ROOT
HETATM    1  C   UNL     1     -41.027 -51.024  12.231  1.00  0.00     0.223 C 
HETATM    2  O   UNL     1     -40.549 -51.187  13.352  1.00  0.00    -0.273 OA
HETATM    3  N   UNL     1     -42.037 -51.828  11.722  1.00  0.00    -0.361 N 
HETATM    4  H   UNL     1     -42.594 -51.410  10.980  1.00  0.00     0.162 HD
ENDROOT
BRANCH   1   5
HETATM    5  C   UNL     1     -40.472 -49.966  11.295  1.00  0.00     0.160 C 
BRANCH   5   6
HETATM    6  C   UNL     1     -41.387 -48.804  11.114  1.00  0.00     0.025 A 
HETATM    7  N   UNL     1     -41.816 -48.481   9.833  1.00  0.00    -0.356 N 
HETATM    8  C   UNL     1     -42.566 -47.399   9.871  1.00  0.00     0.050 A 
ATOM      9  HN  UNL     1     -41.584 -49.004   8.988  1.00  0.00     0.166 HD
HETATM   10  S   UNL     1     -42.792 -46.706  11.428  1.00  0.00    -0.087 SA
HETATM   11  C   UNL     1     -41.836 -47.952  12.106  1.00  0.00     0.077 A 
BRANCH   8  12
HETATM   12  C   UNL     1     -43.222 -46.792   8.674  1.00  0.00     0.060 C 
HETATM   13  C   UNL     1     -43.473 -47.841   7.602  1.00  0.00     0.012 C 
ENDBRANCH   8  12
ENDBRANCH   5   6
ENDBRANCH   1   5
BRANCH   3  14
HETATM   14  C   UNL     1     -42.644 -52.772  12.638  1.00  0.00     0.123 C 
BRANCH  14  15
HETATM   15  C   UNL     1     -44.166 -52.899  12.553  1.00  0.00     0.024 C 
BRANCH  15  16
HETATM   16  C   UNL     1     -44.877 -51.671  13.190  1.00  0.00    -0.010 C 
HETATM   17  C   UNL     1     -44.307 -51.322  14.576  1.00  0.00     0.035 C 
HETATM   18  C   UNL     1     -44.803 -52.267  15.678  1.00  0.00     0.272 C 
HETATM   19  N   UNL     1     -46.263 -52.417  15.739  1.00  0.00     0.084 N 
HETATM   20  C   UNL     1     -46.919 -51.246  16.322  1.00  0.00     0.309 C 
HETATM   21  C   UNL     1     -46.820 -52.768  14.428  1.00  0.00     0.272 C 
HETATM   22  C   UNL     1     -46.406 -51.811  13.308  1.00  0.00     0.035 C 
ENDBRANCH  15  16
ENDBRANCH  14  15
ENDBRANCH   3  14
TORSDOF 6
ENDMDL
MODEL 3
REMARK VINA RESULT:      -5.6      1.594      2.117
REMARK  6 active torsions:
REMARK  status: ('A' for Active; 'I' for Inactive)
REMARK    1  A    between atoms: C_2  and  C_3 
REMARK    2  A    between atoms: C_6  and  C_7 
REMARK    3  A    between atoms: C_7  and  C_8 
REMARK       I    between atoms: C_8  and  N_10 
REMARK    4  A    between atoms: N_10  and  C_11 
REMARK    5  A    between atoms: C_11  and  C_12 
REMARK    6  A    between atoms: C_12  and  C_13 
ROOT
HETATM    1  C   UNL     1     -42.024 -48.900  11.553  1.00  0.00     0.223 C 
HETATM    2  O   UNL     1     -42.439 -48.265  12.521  1.00  0.00    -0.273 OA
HETATM    3  N   UNL     1     -41.641 -50.231  11.637  1.00  0.00    -0.361 N 
HETATM    4  H   UNL     1     -41.665 -50.746  10.761  1.00  0.00     0.162 HD
ENDROOT
BRANCH   1   5
HETATM    5  C   UNL     1     -41.829 -48.226  10.207  1.00  0.00     0.160 C 
BRANCH   5   6
HETATM    6  C   UNL     1     -42.970 -47.351   9.818  1.00  0.00     0.025 A 
HETATM    7  N   UNL     1     -44.239 -47.908   9.716  1.00  0.00    -0.356 N 
HETATM    8  C   UNL     1     -45.097 -46.997   9.309  1.00  0.00     0.050 A 
ATOM      9  HN  UNL     1     -44.471 -48.879   9.926  1.00  0.00     0.166 HD
HETATM   10  S   UNL     1     -44.441 -45.435   9.017  1.00  0.00    -0.087 SA
HETATM   11  C   UNL     1     -42.900 -46.010   9.488  1.00  0.00     0.077 A 
BRANCH   8  12
HETATM   12  C   UNL     1     -46.559 -47.246   9.124  1.00  0.00     0.060 C 
HETATM   13  C   UNL     1     -46.828 -48.718   8.855  1.00  0.00     0.012 C 
ENDBRANCH   8  12
ENDBRANCH   5   6
ENDBRANCH   1   5
BRANCH   3  14
HETATM   14  C   UNL     1     -41.917 -50.912  12.885  1.00  0.00     0.123 C 
BRANCH  14  15
HETATM   15  C   UNL     1     -42.592 -52.279  12.764  1.00  0.00     0.024 C 
BRANCH  15  16
HETATM   16  C   UNL     1     -43.359 -52.654  14.064  1.00  0.00    -0.010 C 
HETATM   17  C   UNL     1     -44.138 -53.973  13.919  1.00  0.00     0.035 C 
HETATM   18  C   UNL     1     -45.435 -53.813  13.118  1.00  0.00     0.272 C 
HETATM   19  N   UNL     1     -46.316 -52.738  13.595  1.00  0.00     0.084 N 
HETATM   20  C   UNL     1     -47.016 -53.099  14.828  1.00  0.00     0.309 C 
HETATM   21  C   UNL     1     -45.592 -51.469  13.720  1.00  0.00     0.272 C 
HETATM   22  C   UNL     1     -44.324 -51.566  14.571  1.00  0.00     0.035 C 
ENDBRANCH  15  16
ENDBRANCH  14  15
ENDBRANCH   3  14
TORSDOF 6
ENDMDL
MODEL 4
REMARK VINA RESULT:      -5.5      2.840      6.937
REMARK  6 active torsions:
REMARK  status: ('A' for Active; 'I' for Inactive)
REMARK    1  A    between atoms: C_2  and  C_3 
REMARK    2  A    between atoms: C_6  and  C_7 
REMARK    3  A    between atoms: C_7  and  C_8 
REMARK       I    between atoms: C_8  and  N_10 
REMARK    4  A    between atoms: N_10  and  C_11 
REMARK    5  A    between atoms: C_11  and  C_12 
REMARK    6  A    between atoms: C_12  and  C_13 
ROOT
HETATM    1  C   UNL     1     -41.283 -51.641  12.544  1.00  0.00     0.223 C 
HETATM    2  O   UNL     1     -41.417 -50.959  13.557  1.00  0.00    -0.273 OA
HETATM    3  N   UNL     1     -40.831 -51.118  11.341  1.00  0.00    -0.361 N 
HETATM    4  H   UNL     1     -40.420 -51.792  10.700  1.00  0.00     0.162 HD
ENDROOT
BRANCH   1   5
HETATM    5  C   UNL     1     -41.689 -53.104  12.531  1.00  0.00     0.160 C 
BRANCH   5   6
HETATM    6  C   UNL     1     -43.124 -53.317  12.867  1.00  0.00     0.025 A 
HETATM    7  N   UNL     1     -44.011 -52.257  12.728  1.00  0.00    -0.356 N 
HETATM    8  C   UNL     1     -45.212 -52.623  13.124  1.00  0.00     0.050 A 
ATOM      9  HN  UNL     1     -43.767 -51.332  12.373  1.00  0.00     0.166 HD
HETATM   10  S   UNL     1     -45.349 -54.240  13.689  1.00  0.00    -0.087 SA
HETATM   11  C   UNL     1     -43.687 -54.479  13.363  1.00  0.00     0.077 A 
BRANCH   8  12
HETATM   12  C   UNL     1     -46.415 -51.737  13.078  1.00  0.00     0.060 C 
HETATM   13  C   UNL     1     -46.829 -51.313  14.479  1.00  0.00     0.012 C 
ENDBRANCH   8  12
ENDBRANCH   5   6
ENDBRANCH   1   5
BRANCH   3  14
HETATM   14  C   UNL     1     -40.344 -49.753  11.364  1.00  0.00     0.123 C 
BRANCH  14  15
HETATM   15  C   UNL     1     -41.261 -48.707  10.729  1.00  0.00     0.024 C 
BRANCH  15  16
HETATM   16  C   UNL     1     -41.836 -47.730  11.793  1.00  0.00    -0.010 C 
HETATM   17  C   UNL     1     -43.101 -47.008  11.296  1.00  0.00     0.035 C 
HETATM   18  C   UNL     1     -42.791 -45.869  10.318  1.00  0.00     0.272 C 
HETATM   19  N   UNL     1     -41.798 -44.902  10.806  1.00  0.00     0.084 N 
HETATM   20  C   UNL     1     -42.349 -44.003  11.819  1.00  0.00     0.309 C 
HETATM   21  C   UNL     1     -40.578 -45.574  11.265  1.00  0.00     0.272 C 
HETATM   22  C   UNL     1     -40.834 -46.675  12.296  1.00  0.00     0.035 C 
ENDBRANCH  15  16
ENDBRANCH  14  15
ENDBRANCH   3  14
TORSDOF 6
ENDMDL
MODEL 5
REMARK VINA RESULT:      -5.4      2.223      2.950
REMARK  6 active torsions:
REMARK  status: ('A' for Active; 'I' for Inactive)
REMARK    1  A    between atoms: C_2  and  C_3 
REMARK    2  A    between atoms: C_6  and  C_7 
REMARK    3  A    between atoms: C_7  and  C_8 
REMARK       I    between atoms: C_8  and  N_10 
REMARK    4  A    between atoms: N_10  and  C_11 
REMARK    5  A    between atoms: C_11  and  C_12 
REMARK    6  A    between atoms: C_12  and  C_13 
ROOT
HETATM    1  C   UNL     1     -42.380 -48.677  12.848  1.00  0.00     0.223 C 
HETATM    2  O   UNL     1     -41.387 -48.843  13.554  1.00  0.00    -0.273 OA
HETATM    3  N   UNL     1     -43.191 -49.725  12.436  1.00  0.00    -0.361 N 
HETATM    4  H   UNL     1     -44.141 -49.465  12.182  1.00  0.00     0.162 HD
ENDROOT
BRANCH   1   5
HETATM    5  C   UNL     1     -42.731 -47.302  12.311  1.00  0.00     0.160 C 
BRANCH   5   6
HETATM    6  C   UNL     1     -43.263 -47.333  10.920  1.00  0.00     0.025 A 
HETATM    7  N   UNL     1     -44.639 -47.340  10.727  1.00  0.00    -0.356 N 
HETATM    8  C   UNL     1     -44.911 -47.425   9.442  1.00  0.00     0.050 A 
ATOM      9  HN  UNL     1     -45.335 -47.287  11.471  1.00  0.00     0.166 HD
HETATM   10  S   UNL     1     -43.548 -47.511   8.397  1.00  0.00    -0.087 SA
HETATM   11  C   UNL     1     -42.517 -47.405   9.758  1.00  0.00     0.077 A 
BRANCH   8  12
HETATM   12  C   UNL     1     -46.294 -47.423   8.876  1.00  0.00     0.060 C 
HETATM   13  C   UNL     1     -46.613 -48.757   8.220  1.00  0.00     0.012 C 
ENDBRANCH   8  12
ENDBRANCH   5   6
ENDBRANCH   1   5
BRANCH   3  14
HETATM   14  C   UNL     1     -42.928 -51.023  13.022  1.00  0.00     0.123 C 
BRANCH  14  15
HETATM   15  C   UNL     1     -44.158 -51.878  13.329  1.00  0.00     0.024 C 
BRANCH  15  16
HETATM   16  C   UNL     1     -45.261 -51.053  14.050  1.00  0.00    -0.010 C 
HETATM   17  C   UNL     1     -44.893 -50.742  15.512  1.00  0.00     0.035 C 
HETATM   18  C   UNL     1     -45.087 -51.944  16.443  1.00  0.00     0.272 C 
HETATM   19  N   UNL     1     -46.416 -52.566  16.363  1.00  0.00     0.084 N 
HETATM   20  C   UNL     1     -47.445 -51.769  17.029  1.00  0.00     0.309 C 
HETATM   21  C   UNL     1     -46.774 -52.887  14.977  1.00  0.00     0.272 C 
HETATM   22  C   UNL     1     -46.660 -51.696  14.022  1.00  0.00     0.035 C 
ENDBRANCH  15  16
ENDBRANCH  14  15
ENDBRANCH   3  14
TORSDOF 6
ENDMDL
MODEL 6
REMARK VINA RESULT:      -5.4      4.716      6.820
REMARK  6 active torsions:
REMARK  status: ('A' for Active; 'I' for Inactive)
REMARK    1  A    between atoms: C_2  and  C_3 
REMARK    2  A    between atoms: C_6  and  C_7 
REMARK    3  A    between atoms: C_7  and  C_8 
REMARK       I    between atoms: C_8  and  N_10 
REMARK    4  A    between atoms: N_10  and  C_11 
REMARK    5  A    between atoms: C_11  and  C_12 
REMARK    6  A    between atoms: C_12  and  C_13 
ROOT
HETATM    1  C   UNL     1     -44.231 -53.464  12.529  1.00  0.00     0.223 C 
HETATM    2  O   UNL     1     -44.853 -54.523  12.585  1.00  0.00    -0.273 OA
HETATM    3  N   UNL     1     -44.855 -52.225  12.558  1.00  0.00    -0.361 N 
HETATM    4  H   UNL     1     -44.272 -51.451  12.865  1.00  0.00     0.162 HD
ENDROOT
BRANCH   1   5
HETATM    5  C   UNL     1     -42.725 -53.455  12.340  1.00  0.00     0.160 C 
BRANCH   5   6
HETATM    6  C   UNL     1     -41.976 -53.806  13.579  1.00  0.00     0.025 A 
HETATM    7  N   UNL     1     -42.579 -54.636  14.515  1.00  0.00    -0.356 N 
HETATM    8  C   UNL     1     -41.789 -54.784  15.558  1.00  0.00     0.050 A 
ATOM      9  HN  UNL     1     -43.498 -55.067  14.411  1.00  0.00     0.166 HD
HETATM   10  S   UNL     1     -40.295 -53.937  15.484  1.00  0.00    -0.087 SA
HETATM   11  C   UNL     1     -40.722 -53.346  13.937  1.00  0.00     0.077 A 
BRANCH   8  12
HETATM   12  C   UNL     1     -42.111 -55.640  16.740  1.00  0.00     0.060 C 
HETATM   13  C   UNL     1     -41.132 -56.798  16.853  1.00  0.00     0.012 C 
ENDBRANCH   8  12
ENDBRANCH   5   6
ENDBRANCH   1   5
BRANCH   3  14
HETATM   14  C   UNL     1     -46.276 -52.216  12.840  1.00  0.00     0.123 C 
BRANCH  14  15
HETATM   15  C   UNL     1     -46.716 -51.357  14.026  1.00  0.00     0.024 C 
BRANCH  15  16
HETATM   16  C   UNL     1     -47.115 -52.233  15.248  1.00  0.00    -0.010 C 
HETATM   17  C   UNL     1     -47.529 -51.383  16.462  1.00  0.00     0.035 C 
HETATM   18  C   UNL     1     -46.330 -50.777  17.201  1.00  0.00     0.272 C 
HETATM   19  N   UNL     1     -45.294 -51.748  17.576  1.00  0.00     0.084 N 
HETATM   20  C   UNL     1     -45.692 -52.577  18.714  1.00  0.00     0.309 C 
HETATM   21  C   UNL     1     -44.874 -52.554  16.424  1.00  0.00     0.272 C 
HETATM   22  C   UNL     1     -46.034 -53.234  15.694  1.00  0.00     0.035 C 
ENDBRANCH  15  16
ENDBRANCH  14  15
ENDBRANCH   3  14
TORSDOF 6
ENDMDL
MODEL 7
REMARK VINA RESULT:      -5.3      1.948      2.836
REMARK  6 active torsions:
REMARK  status: ('A' for Active; 'I' for Inactive)
REMARK    1  A    between atoms: C_2  and  C_3 
REMARK    2  A    between atoms: C_6  and  C_7 
REMARK    3  A    between atoms: C_7  and  C_8 
REMARK       I    between atoms: C_8  and  N_10 
REMARK    4  A    between atoms: N_10  and  C_11 
REMARK    5  A    between atoms: C_11  and  C_12 
REMARK    6  A    between atoms: C_12  and  C_13 
ROOT
HETATM    1  C   UNL     1     -40.695 -51.225  12.052  1.00  0.00     0.223 C 
HETATM    2  O   UNL     1     -40.387 -51.229  13.242  1.00  0.00    -0.273 OA
HETATM    3  N   UNL     1     -41.436 -52.241  11.466  1.00  0.00    -0.361 N 
HETATM    4  H   UNL     1     -41.931 -51.983  10.615  1.00  0.00     0.162 HD
ENDROOT
BRANCH   1   5
HETATM    5  C   UNL     1     -40.204 -50.128  11.125  1.00  0.00     0.160 C 
BRANCH   5   6
HETATM    6  C   UNL     1     -41.049 -48.902  11.167  1.00  0.00     0.025 A 
HETATM    7  N   UNL     1     -40.542 -47.720  10.643  1.00  0.00    -0.356 N 
HETATM    8  C   UNL     1     -41.407 -46.743  10.822  1.00  0.00     0.050 A 
ATOM      9  HN  UNL     1     -39.635 -47.623  10.187  1.00  0.00     0.166 HD
HETATM   10  S   UNL     1     -42.860 -47.176  11.631  1.00  0.00    -0.087 SA
HETATM   11  C   UNL     1     -42.307 -48.792  11.731  1.00  0.00     0.077 A 
BRANCH   8  12
HETATM   12  C   UNL     1     -41.197 -45.341  10.349  1.00  0.00     0.060 C 
HETATM   13  C   UNL     1     -39.720 -44.981  10.357  1.00  0.00     0.012 C 
ENDBRANCH   8  12
ENDBRANCH   5   6
ENDBRANCH   1   5
BRANCH   3  14
HETATM   14  C   UNL     1     -41.996 -53.238  12.355  1.00  0.00     0.123 C 
BRANCH  14  15
HETATM   15  C   UNL     1     -43.508 -53.164  12.572  1.00  0.00     0.024 C 
BRANCH  15  16
HETATM   16  C   UNL     1     -43.870 -52.213  13.748  1.00  0.00    -0.010 C 
HETATM   17  C   UNL     1     -44.380 -52.979  14.981  1.00  0.00     0.035 C 
HETATM   18  C   UNL     1     -45.829 -53.455  14.829  1.00  0.00     0.272 C 
HETATM   19  N   UNL     1     -46.777 -52.400  14.444  1.00  0.00     0.084 N 
HETATM   20  C   UNL     1     -47.093 -51.503  15.555  1.00  0.00     0.309 C 
HETATM   21  C   UNL     1     -46.315 -51.672  13.258  1.00  0.00     0.272 C 
HETATM   22  C   UNL     1     -44.894 -51.120  13.391  1.00  0.00     0.035 C 
ENDBRANCH  15  16
ENDBRANCH  14  15
ENDBRANCH   3  14
TORSDOF 6
ENDMDL
MODEL 8
REMARK VINA RESULT:      -5.3      3.248      5.134
REMARK  6 active torsions:
REMARK  status: ('A' for Active; 'I' for Inactive)
REMARK    1  A    between atoms: C_2  and  C_3 
REMARK    2  A    between atoms: C_6  and  C_7 
REMARK    3  A    between atoms: C_7  and  C_8 
REMARK       I    between atoms: C_8  and  N_10 
REMARK    4  A    between atoms: N_10  and  C_11 
REMARK    5  A    between atoms: C_11  and  C_12 
REMARK    6  A    between atoms: C_12  and  C_13 
ROOT
HETATM    1  C   UNL     1     -44.566 -53.554  12.669  1.00  0.00     0.223 C 
HETATM    2  O   UNL     1     -45.244 -54.532  12.982  1.00  0.00    -0.273 OA
HETATM    3  N   UNL     1     -45.099 -52.279  12.551  1.00  0.00    -0.361 N 
HETATM    4  H   UNL     1     -44.432 -51.518  12.648  1.00  0.00     0.162 HD
ENDROOT
BRANCH   1   5
HETATM    5  C   UNL     1     -43.100 -53.707  12.309  1.00  0.00     0.160 C 
BRANCH   5   6
HETATM    6  C   UNL     1     -42.283 -52.511  12.654  1.00  0.00     0.025 A 
HETATM    7  N   UNL     1     -41.788 -51.716  11.628  1.00  0.00    -0.356 N 
HETATM    8  C   UNL     1     -41.050 -50.748  12.127  1.00  0.00     0.050 A 
ATOM      9  HN  UNL     1     -41.971 -51.862  10.635  1.00  0.00     0.166 HD
HETATM   10  S   UNL     1     -40.896 -50.736  13.839  1.00  0.00    -0.087 SA
HETATM   11  C   UNL     1     -41.907 -52.113  13.924  1.00  0.00     0.077 A 
BRANCH   8  12
HETATM   12  C   UNL     1     -40.390 -49.688  11.304  1.00  0.00     0.060 C 
HETATM   13  C   UNL     1     -38.936 -49.511  11.715  1.00  0.00     0.012 C 
ENDBRANCH   8  12
ENDBRANCH   5   6
ENDBRANCH   1   5
BRANCH   3  14
HETATM   14  C   UNL     1     -46.469 -52.100  12.989  1.00  0.00     0.123 C 
BRANCH  14  15
HETATM   15  C   UNL     1     -46.660 -51.274  14.262  1.00  0.00     0.024 C 
BRANCH  15  16
HETATM   16  C   UNL     1     -47.167 -52.151  15.441  1.00  0.00    -0.010 C 
HETATM   17  C   UNL     1     -47.755 -51.306  16.584  1.00  0.00     0.035 C 
HETATM   18  C   UNL     1     -46.676 -50.645  17.450  1.00  0.00     0.272 C 
HETATM   19  N   UNL     1     -45.654 -51.570  17.960  1.00  0.00     0.084 N 
HETATM   20  C   UNL     1     -46.153 -52.401  19.055  1.00  0.00     0.309 C 
HETATM   21  C   UNL     1     -45.071 -52.371  16.878  1.00  0.00     0.272 C 
HETATM   22  C   UNL     1     -46.110 -53.105  16.027  1.00  0.00     0.035 C 
ENDBRANCH  15  16
ENDBRANCH  14  15
ENDBRANCH   3  14
TORSDOF 6
ENDMDL
MODEL 9
REMARK VINA RESULT:      -5.3      2.255      3.118
REMARK  6 active torsions:
REMARK  status: ('A' for Active; 'I' for Inactive)
REMARK    1  A    between atoms: C_2  and  C_3 
REMARK    2  A    between atoms: C_6  and  C_7 
REMARK    3  A    between atoms: C_7  and  C_8 
REMARK       I    between atoms: C_8  and  N_10 
REMARK    4  A    between atoms: N_10  and  C_11 
REMARK    5  A    between atoms: C_11  and  C_12 
REMARK    6  A    between atoms: C_12  and  C_13 
ROOT
HETATM    1  C   UNL     1     -41.248 -50.711  11.960  1.00  0.00     0.223 C 
HETATM    2  O   UNL     1     -42.273 -50.412  12.569  1.00  0.00    -0.273 OA
HETATM    3  N   UNL     1     -40.824 -52.023  11.803  1.00  0.00    -0.361 N 
HETATM    4  H   UNL     1     -40.204 -52.188  11.013  1.00  0.00     0.162 HD
ENDROOT
BRANCH   1   5
HETATM    5  C   UNL     1     -40.331 -49.636  11.407  1.00  0.00     0.160 C 
BRANCH   5   6
HETATM    6  C   UNL     1     -41.060 -48.418  10.953  1.00  0.00     0.025 A 
HETATM    7  N   UNL     1     -42.112 -48.561  10.058  1.00  0.00    -0.356 N 
HETATM    8  C   UNL     1     -42.590 -47.377   9.735  1.00  0.00     0.050 A 
ATOM      9  HN  UNL     1     -42.462 -49.451   9.702  1.00  0.00     0.166 HD
HETATM   10  S   UNL     1     -41.809 -46.035  10.471  1.00  0.00    -0.087 SA
HETATM   11  C   UNL     1     -40.769 -47.111  11.299  1.00  0.00     0.077 A 
BRANCH   8  12
HETATM   12  C   UNL     1     -43.750 -47.164   8.817  1.00  0.00     0.060 C 
HETATM   13  C   UNL     1     -43.587 -47.976   7.541  1.00  0.00     0.012 C 
ENDBRANCH   8  12
ENDBRANCH   5   6
ENDBRANCH   1   5
BRANCH   3  14
HETATM   14  C   UNL     1     -41.737 -53.060  12.235  1.00  0.00     0.123 C 
BRANCH  14  15
HETATM   15  C   UNL     1     -41.217 -53.995  13.327  1.00  0.00     0.024 C 
BRANCH  15  16
HETATM   16  C   UNL     1     -39.911 -53.449  13.972  1.00  0.00    -0.010 C 
HETATM   17  C   UNL     1     -38.944 -54.576  14.374  1.00  0.00     0.035 C 
HETATM   18  C   UNL     1     -39.365 -55.289  15.664  1.00  0.00     0.272 C 
HETATM   19  N   UNL     1     -39.617 -54.392  16.800  1.00  0.00     0.084 N 
HETATM   20  C   UNL     1     -38.381 -53.871  17.383  1.00  0.00     0.309 C 
HETATM   21  C   UNL     1     -40.552 -53.321  16.438  1.00  0.00     0.272 C 
HETATM   22  C   UNL     1     -40.137 -52.537  15.192  1.00  0.00     0.035 C 
ENDBRANCH  15  16
ENDBRANCH  14  15
ENDBRANCH   3  14
TORSDOF 6
ENDMDL
