MODEL 1
REMARK VINA RESULT:      -6.6      0.000      0.000
REMARK  2 active torsions:
REMARK  status: ('A' for Active; 'I' for Inactive)
REMARK    1  A    between atoms: C_8  and  N_9 
REMARK       I    between atoms: N_9  and  C_10 
REMARK       I    between atoms: C_10  and  N_12 
REMARK    2  A    between atoms: N_12  and  C_13 
ROOT
HETATM    1  N   UNL     1     -43.010 -52.865  12.715  1.00  0.00    -0.295 N 
HETATM    2  C   UNL     1     -41.995 -52.094  12.209  1.00  0.00     0.322 C 
HETATM    3  O   UNL     1     -40.905 -52.590  11.941  1.00  0.00    -0.247 OA
HETATM    4  N   UNL     1     -42.265 -50.768  12.096  1.00  0.00    -0.336 N 
HETATM    5  H   UNL     1     -42.738 -53.816  12.917  1.00  0.00     0.172 HD
HETATM    6  H   UNL     1     -43.238 -50.521  12.253  1.00  0.00     0.164 HD
ENDROOT
BRANCH   1   7
HETATM    7  C   UNL     1     -44.298 -52.438  13.067  1.00  0.00     0.109 A 
HETATM    8  N   UNL     1     -45.229 -52.335  12.093  1.00  0.00    -0.346 N 
HETATM    9  C   UNL     1     -46.455 -51.861  12.400  1.00  0.00     0.007 A 
ATOM     10  HN  UNL     1     -45.008 -52.613  11.137  1.00  0.00     0.167 HD
HETATM   11  C   UNL     1     -46.782 -51.447  13.679  1.00  0.00     0.031 A 
HETATM   12  C   UNL     1     -47.422 -51.784  11.260  1.00  0.00     0.068 C 
HETATM   13  C   UNL     1     -45.821 -51.555  14.690  1.00  0.00    -0.057 A 
HETATM   14  C   UNL     1     -46.116 -51.072  16.079  1.00  0.00     0.048 C 
HETATM   15  C   UNL     1     -44.563 -52.089  14.381  1.00  0.00     0.055 A 
ENDBRANCH   1   7
BRANCH   4  16
HETATM   16  C   UNL     1     -41.334 -49.740  11.719  1.00  0.00     0.117 C 
HETATM   17  C   UNL     1     -40.785 -48.988  12.947  1.00  0.00     0.059 C 
HETATM   18  C   UNL     1     -41.147 -47.542  12.616  1.00  0.00     0.124 C 
HETATM   19  C   UNL     1     -42.654 -47.316  12.730  1.00  0.00     0.034 C 
HETATM   20  O   UNL     1     -40.959 -47.523  11.183  1.00  0.00    -0.378 OA
HETATM   21  C   UNL     1     -43.177 -48.004  11.469  1.00  0.00     0.036 C 
HETATM   22  C   UNL     1     -41.899 -48.591  10.872  1.00  0.00     0.144 C 
ENDBRANCH   4  16
TORSDOF 2
ENDMDL
MODEL 2
REMARK VINA RESULT:      -6.2      2.048      5.497
REMARK  2 active torsions:
REMARK  status: ('A' for Active; 'I' for Inactive)
REMARK    1  A    between atoms: C_8  and  N_9 
REMARK       I    between atoms: N_9  and  C_10 
REMARK       I    between atoms: C_10  and  N_12 
REMARK    2  A    between atoms: N_12  and  C_13 
ROOT
HETATM    1  N   UNL     1     -40.281 -51.135  11.549  1.00  0.00    -0.295 N 
HETATM    2  C   UNL     1     -40.935 -52.167  12.171  1.00  0.00     0.322 C 
HETATM    3  O   UNL     1     -40.518 -53.318  12.081  1.00  0.00    -0.247 OA
HETATM    4  N   UNL     1     -42.081 -51.832  12.817  1.00  0.00    -0.336 N 
HETATM    5  H   UNL     1     -39.514 -51.432  10.965  1.00  0.00     0.172 HD
HETATM    6  H   UNL     1     -42.243 -50.833  12.897  1.00  0.00     0.164 HD
ENDROOT
BRANCH   1   7
HETATM    7  C   UNL     1     -40.640 -49.781  11.562  1.00  0.00     0.109 A 
HETATM    8  N   UNL     1     -41.555 -49.349  10.665  1.00  0.00    -0.346 N 
HETATM    9  C   UNL     1     -41.864 -48.037  10.618  1.00  0.00     0.007 A 
ATOM     10  HN  UNL     1     -42.005 -50.008  10.031  1.00  0.00     0.167 HD
HETATM   11  C   UNL     1     -41.251 -47.108  11.442  1.00  0.00     0.031 A 
HETATM   12  C   UNL     1     -42.886 -47.650   9.595  1.00  0.00     0.068 C 
HETATM   13  C   UNL     1     -40.307 -47.552  12.374  1.00  0.00    -0.057 A 
HETATM   14  C   UNL     1     -39.583 -46.576  13.252  1.00  0.00     0.048 C 
HETATM   15  C   UNL     1     -40.020 -48.921  12.453  1.00  0.00     0.055 A 
ENDBRANCH   1   7
BRANCH   4  16
HETATM   16  C   UNL     1     -43.009 -52.743  13.430  1.00  0.00     0.117 C 
HETATM   17  C   UNL     1     -44.052 -53.262  12.423  1.00  0.00     0.059 C 
HETATM   18  C   UNL     1     -45.364 -52.869  13.098  1.00  0.00     0.124 C 
HETATM   19  C   UNL     1     -45.573 -51.356  13.050  1.00  0.00     0.034 C 
HETATM   20  O   UNL     1     -45.036 -53.071  14.492  1.00  0.00    -0.378 OA
HETATM   21  C   UNL     1     -44.584 -50.862  14.106  1.00  0.00     0.036 C 
HETATM   22  C   UNL     1     -43.901 -52.160  14.535  1.00  0.00     0.144 C 
ENDBRANCH   4  16
TORSDOF 2
ENDMDL
MODEL 3
REMARK VINA RESULT:      -6.2      4.288      5.811
REMARK  2 active torsions:
REMARK  status: ('A' for Active; 'I' for Inactive)
REMARK    1  A    between atoms: C_8  and  N_9 
REMARK       I    between atoms: N_9  and  C_10 
REMARK       I    between atoms: C_10  and  N_12 
REMARK    2  A    between atoms: N_12  and  C_13 
ROOT
HETATM    1  N   UNL     1     -41.678 -49.243  10.773  1.00  0.00    -0.295 N 
HETATM    2  C   UNL     1     -42.051 -47.993  10.350  1.00  0.00     0.322 C 
HETATM    3  O   UNL     1     -43.070 -47.835   9.684  1.00  0.00    -0.247 OA
HETATM    4  N   UNL     1     -41.194 -46.987  10.661  1.00  0.00    -0.336 N 
HETATM    5  H   UNL     1     -42.258 -49.985  10.412  1.00  0.00     0.172 HD
HETATM    6  H   UNL     1     -40.452 -47.249  11.303  1.00  0.00     0.164 HD
ENDROOT
BRANCH   1   7
HETATM    7  C   UNL     1     -40.547 -49.572  11.532  1.00  0.00     0.109 A 
HETATM    8  N   UNL     1     -39.363 -49.714  10.895  1.00  0.00    -0.346 N 
HETATM    9  C   UNL     1     -38.277 -50.096  11.598  1.00  0.00     0.007 A 
ATOM     10  HN  UNL     1     -39.293 -49.533   9.894  1.00  0.00     0.167 HD
HETATM   11  C   UNL     1     -38.341 -50.378  12.952  1.00  0.00     0.031 A 
HETATM   12  C   UNL     1     -37.010 -50.225  10.811  1.00  0.00     0.068 C 
HETATM   13  C   UNL     1     -39.564 -50.228  13.615  1.00  0.00    -0.057 A 
HETATM   14  C   UNL     1     -39.690 -50.570  15.069  1.00  0.00     0.048 C 
HETATM   15  C   UNL     1     -40.681 -49.789  12.894  1.00  0.00     0.055 A 
ENDBRANCH   1   7
BRANCH   4  16
HETATM   16  C   UNL     1     -41.292 -45.621  10.223  1.00  0.00     0.117 C 
HETATM   17  C   UNL     1     -39.922 -44.918  10.232  1.00  0.00     0.059 C 
HETATM   18  C   UNL     1     -40.191 -43.716  11.134  1.00  0.00     0.124 C 
HETATM   19  C   UNL     1     -40.355 -44.151  12.590  1.00  0.00     0.034 C 
HETATM   20  O   UNL     1     -41.553 -43.391  10.774  1.00  0.00    -0.378 OA
HETATM   21  C   UNL     1     -41.748 -44.780  12.582  1.00  0.00     0.036 C 
HETATM   22  C   UNL     1     -42.131 -44.686  11.105  1.00  0.00     0.144 C 
ENDBRANCH   4  16
TORSDOF 2
ENDMDL
MODEL 4
REMARK VINA RESULT:      -6.1      3.233      4.433
REMARK  2 active torsions:
REMARK  status: ('A' for Active; 'I' for Inactive)
REMARK    1  A    between atoms: C_8  and  N_9 
REMARK       I    between atoms: N_9  and  C_10 
REMARK       I    between atoms: C_10  and  N_12 
REMARK    2  A    between atoms: N_12  and  C_13 
ROOT
HETATM    1  N   UNL     1     -44.661 -54.746  15.159  1.00  0.00    -0.295 N 
HETATM    2  C   UNL     1     -43.306 -54.955  15.126  1.00  0.00     0.322 C 
HETATM    3  O   UNL     1     -42.834 -56.048  15.423  1.00  0.00    -0.247 OA
HETATM    4  N   UNL     1     -42.552 -53.871  14.814  1.00  0.00    -0.336 N 
HETATM    5  H   UNL     1     -45.185 -55.526  15.526  1.00  0.00     0.172 HD
HETATM    6  H   UNL     1     -43.082 -53.067  14.490  1.00  0.00     0.164 HD
ENDROOT
BRANCH   1   7
HETATM    7  C   UNL     1     -45.337 -53.558  14.850  1.00  0.00     0.109 A 
HETATM    8  N   UNL     1     -45.726 -52.757  15.867  1.00  0.00    -0.346 N 
HETATM    9  C   UNL     1     -46.437 -51.642  15.594  1.00  0.00     0.007 A 
ATOM     10  HN  UNL     1     -45.485 -52.992  16.830  1.00  0.00     0.167 HD
HETATM   11  C   UNL     1     -46.808 -51.306  14.304  1.00  0.00     0.031 A 
HETATM   12  C   UNL     1     -46.823 -50.816  16.781  1.00  0.00     0.068 C 
HETATM   13  C   UNL     1     -46.403 -52.131  13.249  1.00  0.00    -0.057 A 
HETATM   14  C   UNL     1     -46.825 -51.833  11.841  1.00  0.00     0.048 C 
HETATM   15  C   UNL     1     -45.628 -53.264  13.528  1.00  0.00     0.055 A 
ENDBRANCH   1   7
BRANCH   4  16
HETATM   16  C   UNL     1     -41.116 -53.798  14.840  1.00  0.00     0.117 C 
HETATM   17  C   UNL     1     -40.621 -52.371  15.140  1.00  0.00     0.059 C 
HETATM   18  C   UNL     1     -39.726 -52.089  13.936  1.00  0.00     0.124 C 
HETATM   19  C   UNL     1     -40.558 -51.897  12.669  1.00  0.00     0.034 C 
HETATM   20  O   UNL     1     -39.144 -53.392  13.705  1.00  0.00    -0.378 OA
HETATM   21  C   UNL     1     -40.981 -53.329  12.342  1.00  0.00     0.036 C 
HETATM   22  C   UNL     1     -40.398 -54.110  13.520  1.00  0.00     0.144 C 
ENDBRANCH   4  16
TORSDOF 2
ENDMDL
MODEL 5
REMARK VINA RESULT:      -6.0      2.400      4.120
REMARK  2 active torsions:
REMARK  status: ('A' for Active; 'I' for Inactive)
REMARK    1  A    between atoms: C_8  and  N_9 
REMARK       I    between atoms: N_9  and  C_10 
REMARK       I    between atoms: C_10  and  N_12 
REMARK    2  A    between atoms: N_12  and  C_13 
ROOT
HETATM    1  N   UNL     1     -43.950 -50.847  12.952  1.00  0.00    -0.295 N 
HETATM    2  C   UNL     1     -42.623 -51.049  12.669  1.00  0.00     0.322 C 
HETATM    3  O   UNL     1     -41.999 -50.243  11.987  1.00  0.00    -0.247 OA
HETATM    4  N   UNL     1     -42.093 -52.208  13.135  1.00  0.00    -0.336 N 
HETATM    5  H   UNL     1     -44.351 -50.051  12.479  1.00  0.00     0.172 HD
HETATM    6  H   UNL     1     -42.696 -52.722  13.771  1.00  0.00     0.164 HD
ENDROOT
BRANCH   1   7
HETATM    7  C   UNL     1     -44.785 -51.678  13.711  1.00  0.00     0.109 A 
HETATM    8  N   UNL     1     -44.788 -53.003  13.445  1.00  0.00    -0.346 N 
HETATM    9  C   UNL     1     -45.634 -53.810  14.119  1.00  0.00     0.007 A 
ATOM     10  HN  UNL     1     -44.158 -53.389  12.742  1.00  0.00     0.167 HD
HETATM   11  C   UNL     1     -46.524 -53.319  15.059  1.00  0.00     0.031 A 
HETATM   12  C   UNL     1     -45.568 -55.261  13.760  1.00  0.00     0.068 C 
HETATM   13  C   UNL     1     -46.520 -51.948  15.340  1.00  0.00    -0.057 A 
HETATM   14  C   UNL     1     -47.501 -51.366  16.313  1.00  0.00     0.048 C 
HETATM   15  C   UNL     1     -45.611 -51.118  14.672  1.00  0.00     0.055 A 
ENDBRANCH   1   7
BRANCH   4  16
HETATM   16  C   UNL     1     -40.773 -52.709  12.864  1.00  0.00     0.117 C 
HETATM   17  C   UNL     1     -40.694 -54.237  13.036  1.00  0.00     0.059 C 
HETATM   18  C   UNL     1     -39.573 -54.381  14.062  1.00  0.00     0.124 C 
HETATM   19  C   UNL     1     -40.030 -53.910  15.442  1.00  0.00     0.034 C 
HETATM   20  O   UNL     1     -38.689 -53.306  13.668  1.00  0.00    -0.378 OA
HETATM   21  C   UNL     1     -40.033 -52.390  15.278  1.00  0.00     0.036 C 
HETATM   22  C   UNL     1     -39.660 -52.228  13.805  1.00  0.00     0.144 C 
ENDBRANCH   4  16
TORSDOF 2
ENDMDL
MODEL 6
REMARK VINA RESULT:      -5.8      3.032      3.897
REMARK  2 active torsions:
REMARK  status: ('A' for Active; 'I' for Inactive)
REMARK    1  A    between atoms: C_8  and  N_9 
REMARK       I    between atoms: N_9  and  C_10 
REMARK       I    between atoms: C_10  and  N_12 
REMARK    2  A    between atoms: N_12  and  C_13 
ROOT
HETATM    1  N   UNL     1     -44.719 -54.792  15.225  1.00  0.00    -0.295 N 
HETATM    2  C   UNL     1     -43.355 -54.906  15.141  1.00  0.00     0.322 C 
HETATM    3  O   UNL     1     -42.797 -55.965  15.414  1.00  0.00    -0.247 OA
HETATM    4  N   UNL     1     -42.690 -53.771  14.807  1.00  0.00    -0.336 N 
HETATM    5  H   UNL     1     -45.174 -55.607  15.607  1.00  0.00     0.172 HD
HETATM    6  H   UNL     1     -43.286 -53.006  14.507  1.00  0.00     0.164 HD
ENDROOT
BRANCH   1   7
HETATM    7  C   UNL     1     -45.487 -53.652  14.948  1.00  0.00     0.109 A 
HETATM    8  N   UNL     1     -45.730 -53.339  13.656  1.00  0.00    -0.346 N 
HETATM    9  C   UNL     1     -46.410 -52.210  13.367  1.00  0.00     0.007 A 
ATOM     10  HN  UNL     1     -45.402 -53.949  12.908  1.00  0.00     0.167 HD
HETATM   11  C   UNL     1     -46.844 -51.342  14.354  1.00  0.00     0.031 A 
HETATM   12  C   UNL     1     -46.633 -51.944  11.911  1.00  0.00     0.068 C 
HETATM   13  C   UNL     1     -46.598 -51.666  15.693  1.00  0.00    -0.057 A 
HETATM   14  C   UNL     1     -47.006 -50.731  16.792  1.00  0.00     0.048 C 
HETATM   15  C   UNL     1     -45.931 -52.860  15.994  1.00  0.00     0.055 A 
ENDBRANCH   1   7
BRANCH   4  16
HETATM   16  C   UNL     1     -41.263 -53.599  14.780  1.00  0.00     0.117 C 
HETATM   17  C   UNL     1     -40.862 -52.122  14.953  1.00  0.00     0.059 C 
HETATM   18  C   UNL     1     -40.022 -51.876  13.702  1.00  0.00     0.124 C 
HETATM   19  C   UNL     1     -40.900 -51.842  12.451  1.00  0.00     0.034 C 
HETATM   20  O   UNL     1     -39.356 -53.150  13.552  1.00  0.00    -0.378 OA
HETATM   21  C   UNL     1     -41.230 -53.321  12.250  1.00  0.00     0.036 C 
HETATM   22  C   UNL     1     -40.561 -53.964  13.465  1.00  0.00     0.144 C 
ENDBRANCH   4  16
TORSDOF 2
ENDMDL
MODEL 7
REMARK VINA RESULT:      -5.4      2.466      5.478
REMARK  2 active torsions:
REMARK  status: ('A' for Active; 'I' for Inactive)
REMARK    1  A    between atoms: C_8  and  N_9 
REMARK       I    between atoms: N_9  and  C_10 
REMARK       I    between atoms: C_10  and  N_12 
REMARK    2  A    between atoms: N_12  and  C_13 
ROOT
HETATM    1  N   UNL     1     -40.498 -51.288  12.698  1.00  0.00    -0.295 N 
HETATM    2  C   UNL     1     -40.889 -52.577  12.951  1.00  0.00     0.322 C 
HETATM    3  O   UNL     1     -40.065 -53.486  12.982  1.00  0.00    -0.247 OA
HETATM    4  N   UNL     1     -42.225 -52.769  13.093  1.00  0.00    -0.336 N 
HETATM    5  H   UNL     1     -39.522 -51.196  12.461  1.00  0.00     0.172 HD
HETATM    6  H   UNL     1     -42.770 -51.914  13.150  1.00  0.00     0.164 HD
ENDROOT
BRANCH   1   7
HETATM    7  C   UNL     1     -41.322 -50.156  12.630  1.00  0.00     0.109 A 
HETATM    8  N   UNL     1     -41.568 -49.611  11.418  1.00  0.00    -0.346 N 
HETATM    9  C   UNL     1     -42.304 -48.482  11.339  1.00  0.00     0.007 A 
ATOM     10  HN  UNL     1     -41.201 -50.047  10.573  1.00  0.00     0.167 HD
HETATM   11  C   UNL     1     -42.793 -47.845  12.466  1.00  0.00     0.031 A 
HETATM   12  C   UNL     1     -42.525 -47.951   9.957  1.00  0.00     0.068 C 
HETATM   13  C   UNL     1     -42.544 -48.409  13.722  1.00  0.00    -0.057 A 
HETATM   14  C   UNL     1     -43.013 -47.726  14.972  1.00  0.00     0.048 C 
HETATM   15  C   UNL     1     -41.818 -49.604  13.800  1.00  0.00     0.055 A 
ENDBRANCH   1   7
BRANCH   4  16
HETATM   16  C   UNL     1     -42.891 -54.035  13.233  1.00  0.00     0.117 C 
HETATM   17  C   UNL     1     -44.360 -53.962  12.776  1.00  0.00     0.059 C 
HETATM   18  C   UNL     1     -45.102 -54.440  14.022  1.00  0.00     0.124 C 
HETATM   19  C   UNL     1     -45.042 -53.389  15.130  1.00  0.00     0.034 C 
HETATM   20  O   UNL     1     -44.192 -55.444  14.526  1.00  0.00    -0.378 OA
HETATM   21  C   UNL     1     -43.602 -53.525  15.624  1.00  0.00     0.036 C 
HETATM   22  C   UNL     1     -43.034 -54.571  14.665  1.00  0.00     0.144 C 
ENDBRANCH   4  16
TORSDOF 2
ENDMDL
MODEL 8
REMARK VINA RESULT:      -5.4      1.113      2.172
REMARK  2 active torsions:
REMARK  status: ('A' for Active; 'I' for Inactive)
REMARK    1  A    between atoms: C_8  and  N_9 
REMARK       I    between atoms: N_9  and  C_10 
REMARK       I    between atoms: C_10  and  N_12 
REMARK    2  A    between atoms: N_12  and  C_13 
ROOT
HETATM    1  N   UNL     1     -42.389 -52.051  13.421  1.00  0.00    -0.295 N 
HETATM    2  C   UNL     1     -41.502 -51.295  12.699  1.00  0.00     0.322 C 
HETATM    3  O   UNL     1     -40.350 -51.680  12.522  1.00  0.00    -0.247 OA
HETATM    4  N   UNL     1     -41.967 -50.095  12.267  1.00  0.00    -0.336 N 
HETATM    5  H   UNL     1     -41.978 -52.869  13.844  1.00  0.00     0.172 HD
HETATM    6  H   UNL     1     -42.966 -49.959  12.395  1.00  0.00     0.164 HD
ENDROOT
BRANCH   1   7
HETATM    7  C   UNL     1     -43.726 -51.738  13.704  1.00  0.00     0.109 A 
HETATM    8  N   UNL     1     -44.056 -51.415  14.974  1.00  0.00    -0.346 N 
HETATM    9  C   UNL     1     -45.349 -51.177  15.279  1.00  0.00     0.007 A 
ATOM     10  HN  UNL     1     -43.336 -51.352  15.693  1.00  0.00     0.167 HD
HETATM   11  C   UNL     1     -46.357 -51.282  14.337  1.00  0.00     0.031 A 
HETATM   12  C   UNL     1     -45.621 -50.825  16.709  1.00  0.00     0.068 C 
HETATM   13  C   UNL     1     -46.018 -51.612  13.020  1.00  0.00    -0.057 A 
HETATM   14  C   UNL     1     -47.083 -51.786  11.979  1.00  0.00     0.048 C 
HETATM   15  C   UNL     1     -44.672 -51.816  12.694  1.00  0.00     0.055 A 
ENDBRANCH   1   7
BRANCH   4  16
HETATM   16  C   UNL     1     -41.200 -49.073  11.609  1.00  0.00     0.117 C 
HETATM   17  C   UNL     1     -40.719 -47.993  12.597  1.00  0.00     0.059 C 
HETATM   18  C   UNL     1     -41.289 -46.721  11.974  1.00  0.00     0.124 C 
HETATM   19  C   UNL     1     -42.808 -46.667  12.131  1.00  0.00     0.034 C 
HETATM   20  O   UNL     1     -41.154 -47.011  10.564  1.00  0.00    -0.378 OA
HETATM   21  C   UNL     1     -43.274 -47.690  11.094  1.00  0.00     0.036 C 
HETATM   22  C   UNL     1     -41.947 -48.233  10.564  1.00  0.00     0.144 C 
ENDBRANCH   4  16
TORSDOF 2
ENDMDL
MODEL 9
REMARK VINA RESULT:      -5.4      2.108      5.773
REMARK  2 active torsions:
REMARK  status: ('A' for Active; 'I' for Inactive)
REMARK    1  A    between atoms: C_8  and  N_9 
REMARK       I    between atoms: N_9  and  C_10 
REMARK       I    between atoms: C_10  and  N_12 
REMARK    2  A    between atoms: N_12  and  C_13 
ROOT
HETATM    1  N   UNL     1     -40.109 -51.210  11.767  1.00  0.00    -0.295 N 
HETATM    2  C   UNL     1     -40.819 -52.243  12.324  1.00  0.00     0.322 C 
HETATM    3  O   UNL     1     -40.440 -53.403  12.197  1.00  0.00    -0.247 OA
HETATM    4  N   UNL     1     -41.973 -51.894  12.947  1.00  0.00    -0.336 N 
HETATM    5  H   UNL     1     -39.334 -51.510  11.195  1.00  0.00     0.172 HD
HETATM    6  H   UNL     1     -42.102 -50.893  13.065  1.00  0.00     0.164 HD
ENDROOT
BRANCH   1   7
HETATM    7  C   UNL     1     -40.421 -49.845  11.828  1.00  0.00     0.109 A 
HETATM    8  N   UNL     1     -39.962 -49.126  12.876  1.00  0.00    -0.346 N 
HETATM    9  C   UNL     1     -40.308 -47.827  12.987  1.00  0.00     0.007 A 
ATOM     10  HN  UNL     1     -39.361 -49.562  13.576  1.00  0.00     0.167 HD
HETATM   11  C   UNL     1     -41.145 -47.209  12.074  1.00  0.00     0.031 A 
HETATM   12  C   UNL     1     -39.753 -47.110  14.178  1.00  0.00     0.068 C 
HETATM   13  C   UNL     1     -41.619 -47.950  10.985  1.00  0.00    -0.057 A 
HETATM   14  C   UNL     1     -42.568 -47.336  10.000  1.00  0.00     0.048 C 
HETATM   15  C   UNL     1     -41.224 -49.286  10.846  1.00  0.00     0.055 A 
ENDBRANCH   1   7
BRANCH   4  16
HETATM   16  C   UNL     1     -42.952 -52.795  13.491  1.00  0.00     0.117 C 
HETATM   17  C   UNL     1     -43.980 -53.232  12.430  1.00  0.00     0.059 C 
HETATM   18  C   UNL     1     -45.298 -52.821  13.081  1.00  0.00     0.124 C 
HETATM   19  C   UNL     1     -45.452 -51.300  13.092  1.00  0.00     0.034 C 
HETATM   20  O   UNL     1     -45.024 -53.093  14.474  1.00  0.00    -0.378 OA
HETATM   21  C   UNL     1     -44.482 -50.887  14.198  1.00  0.00     0.036 C 
HETATM   22  C   UNL     1     -43.859 -52.226  14.592  1.00  0.00     0.144 C 
ENDBRANCH   4  16
TORSDOF 2
ENDMDL
