MODEL 1
REMARK VINA RESULT:      -7.4      0.000      0.000
REMARK  7 active torsions:
REMARK  status: ('A' for Active; 'I' for Inactive)
REMARK    1  A    between atoms: N_1  and  C_3 
REMARK    2  A    between atoms: N_4  and  C_16 
REMARK    3  A    between atoms: C_10  and  C_21 
REMARK    4  A    between atoms: C_16  and  C_17 
REMARK    5  A    between atoms: C_17  and  C_20 
REMARK    6  A    between atoms: C_17  and  C_24 
REMARK    7  A    between atoms: C_24  and  O_26 
ROOT
HETATM    1  C   UNL     1     -41.785 -49.911  11.986  1.00  0.00     0.122 A 
HETATM    2  C   UNL     1     -41.142 -51.147  12.214  1.00  0.00     0.135 A 
HETATM    3  N   UNL     1     -41.899 -47.853  11.262  1.00  0.00    -0.327 N 
HETATM    4  C   UNL     1     -41.023 -48.889  11.450  1.00  0.00     0.140 A 
HETATM    5  N   UNL     1     -43.092 -49.490  12.173  1.00  0.00    -0.346 N 
ATOM      6  HN  UNL     1     -43.863 -50.023  12.575  1.00  0.00     0.167 HD
HETATM    7  C   UNL     1     -43.124 -48.257  11.719  1.00  0.00     0.185 A 
HETATM    8  N   UNL     1     -39.813 -51.231  11.909  1.00  0.00    -0.337 N 
ATOM      9  HN  UNL     1     -39.298 -52.099  12.057  1.00  0.00     0.168 HD
HETATM   10  N   UNL     1     -39.717 -48.924  11.143  1.00  0.00    -0.336 N 
ATOM     11  HN  UNL     1     -39.190 -48.138  10.763  1.00  0.00     0.168 HD
HETATM   12  C   UNL     1     -39.197 -50.139  11.406  1.00  0.00     0.183 A 
ENDROOT
BRANCH   2  13
HETATM   13  N   UNL     1     -41.839 -52.268  12.698  1.00  0.00    -0.359 N 
HETATM   14  C   UNL     1     -43.196 -52.564  12.366  1.00  0.00     0.136 C 
HETATM   15  C   UNL     1     -43.472 -52.858  13.852  1.00  0.00    -0.003 C 
HETATM   16  C   UNL     1     -44.180 -54.202  14.060  1.00  0.00     0.013 C 
HETATM   17  C   UNL     1     -44.218 -51.720  14.582  1.00  0.00     0.013 C 
HETATM   18  C   UNL     1     -41.910 -52.759  14.051  1.00  0.00     0.099 C 
HETATM   19  C   UNL     1     -45.636 -54.119  13.602  1.00  0.00     0.001 C 
HETATM   20  C   UNL     1     -46.377 -53.022  14.359  1.00  0.00     0.000 C 
HETATM   21  C   UNL     1     -45.691 -51.672  14.173  1.00  0.00     0.001 C 
BRANCH  18  22
HETATM   22  C   UNL     1     -41.075 -54.045  14.229  1.00  0.00     0.001 C 
HETATM   23  C   UNL     1     -39.579 -53.785  14.021  1.00  0.00     0.011 C 
HETATM   24  C   UNL     1     -41.270 -54.616  15.637  1.00  0.00     0.011 C 
ENDBRANCH  18  22
ENDBRANCH   2  13
BRANCH   3  25
HETATM   25  C   UNL     1     -41.625 -46.659  10.499  1.00  0.00     0.138 C 
BRANCH  25  26
HETATM   26  C   UNL     1     -41.022 -45.437  11.230  1.00  0.00     0.034 C 
BRANCH  26  27
HETATM   27  C   UNL     1     -40.882 -45.580  12.775  1.00  0.00     0.019 C 
HETATM   28  C   UNL     1     -41.073 -44.304  13.601  1.00  0.00     0.172 C 
HETATM   29  O   UNL     1     -39.790 -43.947  14.127  1.00  0.00    -0.391 OA
HETATM   30  C   UNL     1     -39.087 -45.165  14.344  1.00  0.00     0.168 C 
HETATM   31  C   UNL     1     -39.469 -46.033  13.170  1.00  0.00     0.033 C 
ENDBRANCH  26  27
BRANCH  26  32
HETATM   32  C   UNL     1     -39.636 -45.191  10.582  1.00  0.00     0.170 C 
BRANCH  32  33
HETATM   33  O   UNL     1     -39.767 -44.785   9.225  1.00  0.00    -0.400 OA
HETATM   34  H   UNL     1     -39.245 -43.975   9.090  1.00  0.00     0.209 HD
ENDBRANCH  32  33
ENDBRANCH  26  32
ENDBRANCH  25  26
ENDBRANCH   3  25
TORSDOF 7
ENDMDL
MODEL 2
REMARK VINA RESULT:      -7.3      1.196      1.609
REMARK  7 active torsions:
REMARK  status: ('A' for Active; 'I' for Inactive)
REMARK    1  A    between atoms: N_1  and  C_3 
REMARK    2  A    between atoms: N_4  and  C_16 
REMARK    3  A    between atoms: C_10  and  C_21 
REMARK    4  A    between atoms: C_16  and  C_17 
REMARK    5  A    between atoms: C_17  and  C_20 
REMARK    6  A    between atoms: C_17  and  C_24 
REMARK    7  A    between atoms: C_24  and  O_26 
ROOT
HETATM    1  C   UNL     1     -41.725 -50.086  12.081  1.00  0.00     0.122 A 
HETATM    2  C   UNL     1     -41.039 -51.299  12.305  1.00  0.00     0.135 A 
HETATM    3  N   UNL     1     -41.909 -48.028  11.373  1.00  0.00    -0.327 N 
HETATM    4  C   UNL     1     -40.997 -49.032  11.560  1.00  0.00     0.140 A 
HETATM    5  N   UNL     1     -43.048 -49.715  12.260  1.00  0.00    -0.346 N 
ATOM      6  HN  UNL     1     -43.802 -50.278  12.652  1.00  0.00     0.167 HD
HETATM    7  C   UNL     1     -43.122 -48.479  11.816  1.00  0.00     0.185 A 
HETATM    8  N   UNL     1     -39.706 -51.332  12.011  1.00  0.00    -0.337 N 
ATOM      9  HN  UNL     1     -39.160 -52.182  12.157  1.00  0.00     0.168 HD
HETATM   10  N   UNL     1     -39.688 -49.017  11.264  1.00  0.00    -0.336 N 
ATOM     11  HN  UNL     1     -39.187 -48.209  10.894  1.00  0.00     0.168 HD
HETATM   12  C   UNL     1     -39.125 -50.214  11.522  1.00  0.00     0.183 A 
ENDROOT
BRANCH   2  13
HETATM   13  N   UNL     1     -41.699 -52.449  12.775  1.00  0.00    -0.359 N 
HETATM   14  C   UNL     1     -43.035 -52.801  12.416  1.00  0.00     0.136 C 
HETATM   15  C   UNL     1     -43.329 -53.108  13.895  1.00  0.00    -0.003 C 
HETATM   16  C   UNL     1     -43.984 -54.480  14.088  1.00  0.00     0.013 C 
HETATM   17  C   UNL     1     -44.136 -52.003  14.610  1.00  0.00     0.013 C 
HETATM   18  C   UNL     1     -41.776 -52.944  14.126  1.00  0.00     0.099 C 
HETATM   19  C   UNL     1     -45.432 -54.457  13.602  1.00  0.00     0.001 C 
HETATM   20  C   UNL     1     -46.234 -53.393  14.344  1.00  0.00     0.000 C 
HETATM   21  C   UNL     1     -45.601 -52.015  14.172  1.00  0.00     0.001 C 
BRANCH  18  22
HETATM   22  C   UNL     1     -40.892 -54.194  14.320  1.00  0.00     0.001 C 
HETATM   23  C   UNL     1     -39.406 -53.875  14.129  1.00  0.00     0.011 C 
HETATM   24  C   UNL     1     -41.080 -54.765  15.729  1.00  0.00     0.011 C 
ENDBRANCH  18  22
ENDBRANCH   2  13
BRANCH   3  25
HETATM   25  C   UNL     1     -41.673 -46.819  10.621  1.00  0.00     0.138 C 
BRANCH  25  26
HETATM   26  C   UNL     1     -42.674 -45.649  10.768  1.00  0.00     0.034 C 
BRANCH  26  27
HETATM   27  C   UNL     1     -42.044 -44.266  11.117  1.00  0.00     0.019 C 
HETATM   28  C   UNL     1     -40.520 -44.162  11.010  1.00  0.00     0.172 C 
HETATM   29  O   UNL     1     -40.011 -44.049  12.344  1.00  0.00    -0.391 OA
HETATM   30  C   UNL     1     -40.997 -43.350  13.097  1.00  0.00     0.168 C 
HETATM   31  C   UNL     1     -42.311 -43.884  12.580  1.00  0.00     0.033 C 
ENDBRANCH  26  27
BRANCH  26  32
HETATM   32  C   UNL     1     -43.441 -45.570   9.424  1.00  0.00     0.170 C 
BRANCH  32  33
HETATM   33  O   UNL     1     -44.166 -44.352   9.315  1.00  0.00    -0.400 OA
HETATM   34  H   UNL     1     -44.521 -44.120  10.192  1.00  0.00     0.209 HD
ENDBRANCH  32  33
ENDBRANCH  26  32
ENDBRANCH  25  26
ENDBRANCH   3  25
TORSDOF 7
ENDMDL
MODEL 3
REMARK VINA RESULT:      -6.9      1.677      2.081
REMARK  7 active torsions:
REMARK  status: ('A' for Active; 'I' for Inactive)
REMARK    1  A    between atoms: N_1  and  C_3 
REMARK    2  A    between atoms: N_4  and  C_16 
REMARK    3  A    between atoms: C_10  and  C_21 
REMARK    4  A    between atoms: C_16  and  C_17 
REMARK    5  A    between atoms: C_17  and  C_20 
REMARK    6  A    between atoms: C_17  and  C_24 
REMARK    7  A    between atoms: C_24  and  O_26 
ROOT
HETATM    1  C   UNL     1     -41.566 -49.889  12.818  1.00  0.00     0.122 A 
HETATM    2  C   UNL     1     -41.869 -50.640  13.975  1.00  0.00     0.135 A 
HETATM    3  N   UNL     1     -40.839 -48.131  11.745  1.00  0.00    -0.327 N 
HETATM    4  C   UNL     1     -41.131 -48.589  13.002  1.00  0.00     0.140 A 
HETATM    5  N   UNL     1     -41.591 -50.202  11.469  1.00  0.00    -0.346 N 
ATOM      6  HN  UNL     1     -41.894 -51.077  11.041  1.00  0.00     0.167 HD
HETATM    7  C   UNL     1     -41.140 -49.129  10.859  1.00  0.00     0.185 A 
HETATM    8  N   UNL     1     -41.729 -50.019  15.183  1.00  0.00    -0.337 N 
ATOM      9  HN  UNL     1     -41.938 -50.513  16.051  1.00  0.00     0.168 HD
HETATM   10  N   UNL     1     -40.987 -47.937  14.167  1.00  0.00    -0.336 N 
ATOM     11  HN  UNL     1     -40.677 -46.969  14.254  1.00  0.00     0.168 HD
HETATM   12  C   UNL     1     -41.309 -48.735  15.204  1.00  0.00     0.183 A 
ENDROOT
BRANCH   2  13
HETATM   13  N   UNL     1     -42.260 -51.989  13.902  1.00  0.00    -0.359 N 
HETATM   14  C   UNL     1     -43.537 -52.421  13.432  1.00  0.00     0.136 C 
HETATM   15  C   UNL     1     -43.631 -53.380  14.632  1.00  0.00    -0.003 C 
HETATM   16  C   UNL     1     -44.003 -54.807  14.213  1.00  0.00     0.013 C 
HETATM   17  C   UNL     1     -44.556 -52.874  15.760  1.00  0.00     0.013 C 
HETATM   18  C   UNL     1     -42.119 -53.014  14.904  1.00  0.00     0.099 C 
HETATM   19  C   UNL     1     -45.470 -54.877  13.792  1.00  0.00     0.001 C 
HETATM   20  C   UNL     1     -46.380 -54.418  14.926  1.00  0.00     0.000 C 
HETATM   21  C   UNL     1     -46.029 -53.000  15.366  1.00  0.00     0.001 C 
BRANCH  18  22
HETATM   22  C   UNL     1     -41.007 -54.018  14.532  1.00  0.00     0.001 C 
HETATM   23  C   UNL     1     -39.700 -53.308  14.167  1.00  0.00     0.011 C 
HETATM   24  C   UNL     1     -40.727 -54.961  15.706  1.00  0.00     0.011 C 
ENDBRANCH  18  22
ENDBRANCH   2  13
BRANCH   3  25
HETATM   25  C   UNL     1     -40.118 -46.916  11.448  1.00  0.00     0.138 C 
BRANCH  25  26
HETATM   26  C   UNL     1     -40.801 -45.560  11.746  1.00  0.00     0.034 C 
BRANCH  26  27
HETATM   27  C   UNL     1     -39.865 -44.315  11.706  1.00  0.00     0.019 C 
HETATM   28  C   UNL     1     -38.985 -44.081  12.938  1.00  0.00     0.172 C 
HETATM   29  O   UNL     1     -39.494 -42.921  13.605  1.00  0.00    -0.391 OA
HETATM   30  C   UNL     1     -40.020 -42.069  12.592  1.00  0.00     0.168 C 
HETATM   31  C   UNL     1     -40.671 -43.012  11.610  1.00  0.00     0.033 C 
ENDBRANCH  26  27
BRANCH  26  32
HETATM   32  C   UNL     1     -41.938 -45.416  10.704  1.00  0.00     0.170 C 
BRANCH  32  33
HETATM   33  O   UNL     1     -41.471 -45.686   9.389  1.00  0.00    -0.400 OA
HETATM   34  H   UNL     1     -41.281 -44.841   8.945  1.00  0.00     0.209 HD
ENDBRANCH  32  33
ENDBRANCH  26  32
ENDBRANCH  25  26
ENDBRANCH   3  25
TORSDOF 7
ENDMDL
MODEL 4
REMARK VINA RESULT:      -6.8      3.235      7.981
REMARK  7 active torsions:
REMARK  status: ('A' for Active; 'I' for Inactive)
REMARK    1  A    between atoms: N_1  and  C_3 
REMARK    2  A    between atoms: N_4  and  C_16 
REMARK    3  A    between atoms: C_10  and  C_21 
REMARK    4  A    between atoms: C_16  and  C_17 
REMARK    5  A    between atoms: C_17  and  C_20 
REMARK    6  A    between atoms: C_17  and  C_24 
REMARK    7  A    between atoms: C_24  and  O_26 
ROOT
HETATM    1  C   UNL     1     -42.341 -50.028  13.259  1.00  0.00     0.122 A 
HETATM    2  C   UNL     1     -41.472 -49.745  12.183  1.00  0.00     0.135 A 
HETATM    3  N   UNL     1     -43.437 -51.346  14.613  1.00  0.00    -0.327 N 
HETATM    4  C   UNL     1     -42.662 -51.355  13.484  1.00  0.00     0.140 A 
HETATM    5  N   UNL     1     -42.953 -49.219  14.202  1.00  0.00    -0.346 N 
ATOM      6  HN  UNL     1     -42.916 -48.201  14.263  1.00  0.00     0.167 HD
HETATM    7  C   UNL     1     -43.593 -50.044  15.001  1.00  0.00     0.185 A 
HETATM    8  N   UNL     1     -41.033 -50.800  11.434  1.00  0.00    -0.337 N 
ATOM      9  HN  UNL     1     -40.407 -50.653  10.643  1.00  0.00     0.168 HD
HETATM   10  N   UNL     1     -42.261 -52.419  12.771  1.00  0.00    -0.336 N 
ATOM     11  HN  UNL     1     -42.536 -53.383  12.965  1.00  0.00     0.168 HD
HETATM   12  C   UNL     1     -41.447 -52.043  11.766  1.00  0.00     0.183 A 
ENDROOT
BRANCH   2  13
HETATM   13  N   UNL     1     -41.035 -48.438  11.906  1.00  0.00    -0.359 N 
HETATM   14  C   UNL     1     -39.911 -47.825  12.538  1.00  0.00     0.136 C 
HETATM   15  C   UNL     1     -40.750 -46.551  12.745  1.00  0.00    -0.003 C 
HETATM   16  C   UNL     1     -40.023 -45.288  12.268  1.00  0.00     0.013 C 
HETATM   17  C   UNL     1     -41.271 -46.379  14.188  1.00  0.00     0.013 C 
HETATM   18  C   UNL     1     -41.823 -47.235  11.812  1.00  0.00     0.099 C 
HETATM   19  C   UNL     1     -38.885 -44.931  13.223  1.00  0.00     0.001 C 
HETATM   20  C   UNL     1     -39.414 -44.719  14.637  1.00  0.00     0.000 C 
HETATM   21  C   UNL     1     -40.146 -45.960  15.137  1.00  0.00     0.001 C 
BRANCH  18  22
HETATM   22  C   UNL     1     -41.974 -46.773  10.346  1.00  0.00     0.001 C 
HETATM   23  C   UNL     1     -42.734 -47.800   9.501  1.00  0.00     0.011 C 
HETATM   24  C   UNL     1     -42.735 -45.445  10.284  1.00  0.00     0.011 C 
ENDBRANCH  18  22
ENDBRANCH   2  13
BRANCH   3  25
HETATM   25  C   UNL     1     -43.806 -52.513  15.377  1.00  0.00     0.138 C 
BRANCH  25  26
HETATM   26  C   UNL     1     -45.301 -52.746  15.697  1.00  0.00     0.034 C 
BRANCH  26  27
HETATM   27  C   UNL     1     -46.205 -53.084  14.473  1.00  0.00     0.019 C 
HETATM   28  C   UNL     1     -45.572 -53.937  13.370  1.00  0.00     0.172 C 
HETATM   29  O   UNL     1     -45.390 -53.088  12.232  1.00  0.00    -0.391 OA
HETATM   30  C   UNL     1     -46.453 -52.141  12.258  1.00  0.00     0.168 C 
HETATM   31  C   UNL     1     -46.627 -51.814  13.721  1.00  0.00     0.033 C 
ENDBRANCH  26  27
BRANCH  26  32
HETATM   32  C   UNL     1     -45.344 -53.896  16.735  1.00  0.00     0.170 C 
BRANCH  32  33
HETATM   33  O   UNL     1     -44.180 -54.708  16.651  1.00  0.00    -0.400 OA
HETATM   34  H   UNL     1     -44.291 -55.476  17.240  1.00  0.00     0.209 HD
ENDBRANCH  32  33
ENDBRANCH  26  32
ENDBRANCH  25  26
ENDBRANCH   3  25
TORSDOF 7
ENDMDL
MODEL 5
REMARK VINA RESULT:      -6.8      1.871      2.624
REMARK  7 active torsions:
REMARK  status: ('A' for Active; 'I' for Inactive)
REMARK    1  A    between atoms: N_1  and  C_3 
REMARK    2  A    between atoms: N_4  and  C_16 
REMARK    3  A    between atoms: C_10  and  C_21 
REMARK    4  A    between atoms: C_16  and  C_17 
REMARK    5  A    between atoms: C_17  and  C_20 
REMARK    6  A    between atoms: C_17  and  C_24 
REMARK    7  A    between atoms: C_24  and  O_26 
ROOT
HETATM    1  C   UNL     1     -41.892 -48.922  12.380  1.00  0.00     0.122 A 
HETATM    2  C   UNL     1     -42.139 -49.736  13.507  1.00  0.00     0.135 A 
HETATM    3  N   UNL     1     -40.915 -47.293  11.303  1.00  0.00    -0.327 N 
HETATM    4  C   UNL     1     -41.035 -47.850  12.548  1.00  0.00     0.140 A 
HETATM    5  N   UNL     1     -42.330 -48.987  11.068  1.00  0.00    -0.346 N 
ATOM      6  HN  UNL     1     -42.988 -49.655  10.666  1.00  0.00     0.167 HD
HETATM    7  C   UNL     1     -41.717 -48.001  10.451  1.00  0.00     0.185 A 
HETATM    8  N   UNL     1     -41.531 -49.390  14.680  1.00  0.00    -0.337 N 
ATOM      9  HN  UNL     1     -41.677 -49.941  15.526  1.00  0.00     0.168 HD
HETATM   10  N   UNL     1     -40.423 -47.468  13.680  1.00  0.00    -0.336 N 
ATOM     11  HN  UNL     1     -39.808 -46.658  13.762  1.00  0.00     0.168 HD
HETATM   12  C   UNL     1     -40.730 -48.301  14.694  1.00  0.00     0.183 A 
ENDROOT
BRANCH   2  13
HETATM   13  N   UNL     1     -42.946 -50.885  13.429  1.00  0.00    -0.359 N 
HETATM   14  C   UNL     1     -44.372 -50.852  13.369  1.00  0.00     0.136 C 
HETATM   15  C   UNL     1     -44.421 -51.971  14.425  1.00  0.00    -0.003 C 
HETATM   16  C   UNL     1     -45.334 -53.129  14.008  1.00  0.00     0.013 C 
HETATM   17  C   UNL     1     -44.772 -51.471  15.843  1.00  0.00     0.013 C 
HETATM   18  C   UNL     1     -42.861 -52.090  14.214  1.00  0.00     0.099 C 
HETATM   19  C   UNL     1     -46.802 -52.714  14.095  1.00  0.00     0.001 C 
HETATM   20  C   UNL     1     -47.152 -52.263  15.509  1.00  0.00     0.000 C 
HETATM   21  C   UNL     1     -46.255 -51.112  15.953  1.00  0.00     0.001 C 
BRANCH  18  22
HETATM   22  C   UNL     1     -42.285 -53.262  13.389  1.00  0.00     0.001 C 
HETATM   23  C   UNL     1     -40.968 -52.881  12.705  1.00  0.00     0.011 C 
HETATM   24  C   UNL     1     -42.022 -54.470  14.293  1.00  0.00     0.011 C 
ENDBRANCH  18  22
ENDBRANCH   2  13
BRANCH   3  25
HETATM   25  C   UNL     1     -39.935 -46.302  10.926  1.00  0.00     0.138 C 
BRANCH  25  26
HETATM   26  C   UNL     1     -40.320 -44.807  11.018  1.00  0.00     0.034 C 
BRANCH  26  27
HETATM   27  C   UNL     1     -41.778 -44.518  11.488  1.00  0.00     0.019 C 
HETATM   28  C   UNL     1     -42.862 -44.539  10.406  1.00  0.00     0.172 C 
HETATM   29  O   UNL     1     -43.299 -43.189  10.221  1.00  0.00    -0.391 OA
HETATM   30  C   UNL     1     -43.182 -42.547  11.487  1.00  0.00     0.168 C 
HETATM   31  C   UNL     1     -41.907 -43.104  12.072  1.00  0.00     0.033 C 
ENDBRANCH  26  27
BRANCH  26  32
HETATM   32  C   UNL     1     -39.301 -44.161  11.989  1.00  0.00     0.170 C 
BRANCH  32  33
HETATM   33  O   UNL     1     -39.011 -45.024  13.081  1.00  0.00    -0.400 OA
HETATM   34  H   UNL     1     -38.154 -45.458  12.918  1.00  0.00     0.209 HD
ENDBRANCH  32  33
ENDBRANCH  26  32
ENDBRANCH  25  26
ENDBRANCH   3  25
TORSDOF 7
ENDMDL
MODEL 6
REMARK VINA RESULT:      -6.5      1.823      3.549
REMARK  7 active torsions:
REMARK  status: ('A' for Active; 'I' for Inactive)
REMARK    1  A    between atoms: N_1  and  C_3 
REMARK    2  A    between atoms: N_4  and  C_16 
REMARK    3  A    between atoms: C_10  and  C_21 
REMARK    4  A    between atoms: C_16  and  C_17 
REMARK    5  A    between atoms: C_17  and  C_20 
REMARK    6  A    between atoms: C_17  and  C_24 
REMARK    7  A    between atoms: C_24  and  O_26 
ROOT
HETATM    1  C   UNL     1     -40.612 -49.271  13.492  1.00  0.00     0.122 A 
HETATM    2  C   UNL     1     -41.013 -50.529  12.992  1.00  0.00     0.135 A 
HETATM    3  N   UNL     1     -39.913 -47.209  13.310  1.00  0.00    -0.327 N 
HETATM    4  C   UNL     1     -40.153 -48.341  12.577  1.00  0.00     0.140 A 
HETATM    5  N   UNL     1     -40.600 -48.735  14.770  1.00  0.00    -0.346 N 
ATOM      6  HN  UNL     1     -40.859 -49.201  15.639  1.00  0.00     0.167 HD
HETATM    7  C   UNL     1     -40.185 -47.497  14.619  1.00  0.00     0.185 A 
HETATM    8  N   UNL     1     -40.898 -50.737  11.647  1.00  0.00    -0.337 N 
ATOM      9  HN  UNL     1     -41.171 -51.628  11.232  1.00  0.00     0.168 HD
HETATM   10  N   UNL     1     -40.016 -48.504  11.252  1.00  0.00    -0.336 N 
ATOM     11  HN  UNL     1     -39.657 -47.793  10.614  1.00  0.00     0.168 HD
HETATM   12  C   UNL     1     -40.416 -49.736  10.878  1.00  0.00     0.183 A 
ENDROOT
BRANCH   2  13
HETATM   13  N   UNL     1     -41.551 -51.523  13.828  1.00  0.00    -0.359 N 
HETATM   14  C   UNL     1     -40.861 -52.077  14.948  1.00  0.00     0.136 C 
HETATM   15  C   UNL     1     -41.289 -53.482  14.489  1.00  0.00    -0.003 C 
HETATM   16  C   UNL     1     -41.918 -54.302  15.621  1.00  0.00     0.013 C 
HETATM   17  C   UNL     1     -40.165 -54.276  13.788  1.00  0.00     0.013 C 
HETATM   18  C   UNL     1     -42.220 -52.741  13.451  1.00  0.00     0.099 C 
HETATM   19  C   UNL     1     -40.850 -54.741  16.622  1.00  0.00     0.001 C 
HETATM   20  C   UNL     1     -39.767 -55.561  15.931  1.00  0.00     0.000 C 
HETATM   21  C   UNL     1     -39.126 -54.771  14.795  1.00  0.00     0.001 C 
BRANCH  18  22
HETATM   22  C   UNL     1     -43.739 -52.654  13.707  1.00  0.00     0.001 C 
HETATM   23  C   UNL     1     -44.324 -51.328  13.213  1.00  0.00     0.011 C 
HETATM   24  C   UNL     1     -44.466 -53.794  12.986  1.00  0.00     0.011 C 
ENDBRANCH  18  22
ENDBRANCH   2  13
BRANCH   3  25
HETATM   25  C   UNL     1     -39.659 -45.900  12.760  1.00  0.00     0.138 C 
BRANCH  25  26
HETATM   26  C   UNL     1     -40.783 -45.204  11.956  1.00  0.00     0.034 C 
BRANCH  26  27
HETATM   27  C   UNL     1     -41.239 -43.818  12.501  1.00  0.00     0.019 C 
HETATM   28  C   UNL     1     -42.693 -43.421  12.233  1.00  0.00     0.172 C 
HETATM   29  O   UNL     1     -42.671 -42.358  11.274  1.00  0.00    -0.391 OA
HETATM   30  C   UNL     1     -41.476 -41.621  11.514  1.00  0.00     0.168 C 
HETATM   31  C   UNL     1     -40.448 -42.673  11.851  1.00  0.00     0.033 C 
ENDBRANCH  26  27
BRANCH  26  32
HETATM   32  C   UNL     1     -40.252 -45.068  10.507  1.00  0.00     0.170 C 
BRANCH  32  33
HETATM   33  O   UNL     1     -41.163 -45.629   9.570  1.00  0.00    -0.400 OA
HETATM   34  H   UNL     1     -40.770 -45.573   8.681  1.00  0.00     0.209 HD
ENDBRANCH  32  33
ENDBRANCH  26  32
ENDBRANCH  25  26
ENDBRANCH   3  25
TORSDOF 7
ENDMDL
MODEL 7
REMARK VINA RESULT:      -6.5      2.817      4.469
REMARK  7 active torsions:
REMARK  status: ('A' for Active; 'I' for Inactive)
REMARK    1  A    between atoms: N_1  and  C_3 
REMARK    2  A    between atoms: N_4  and  C_16 
REMARK    3  A    between atoms: C_10  and  C_21 
REMARK    4  A    between atoms: C_16  and  C_17 
REMARK    5  A    between atoms: C_17  and  C_20 
REMARK    6  A    between atoms: C_17  and  C_24 
REMARK    7  A    between atoms: C_24  and  O_26 
ROOT
HETATM    1  C   UNL     1     -42.235 -51.431  13.920  1.00  0.00     0.122 A 
HETATM    2  C   UNL     1     -42.960 -52.019  14.979  1.00  0.00     0.135 A 
HETATM    3  N   UNL     1     -40.419 -50.938  12.811  1.00  0.00    -0.327 N 
HETATM    4  C   UNL     1     -40.854 -51.504  13.979  1.00  0.00     0.140 A 
HETATM    5  N   UNL     1     -42.633 -50.784  12.762  1.00  0.00    -0.346 N 
ATOM      6  HN  UNL     1     -43.586 -50.565  12.471  1.00  0.00     0.167 HD
HETATM    7  C   UNL     1     -41.519 -50.512  12.119  1.00  0.00     0.185 A 
HETATM    8  N   UNL     1     -42.244 -52.595  15.990  1.00  0.00    -0.337 N 
ATOM      9  HN  UNL     1     -42.717 -53.031  16.782  1.00  0.00     0.168 HD
HETATM   10  N   UNL     1     -40.111 -52.051  14.953  1.00  0.00    -0.336 N 
ATOM     11  HN  UNL     1     -39.091 -52.068  14.963  1.00  0.00     0.168 HD
HETATM   12  C   UNL     1     -40.894 -52.573  15.917  1.00  0.00     0.183 A 
ENDROOT
BRANCH   2  13
HETATM   13  N   UNL     1     -44.366 -52.054  14.986  1.00  0.00    -0.359 N 
HETATM   14  C   UNL     1     -45.182 -51.060  15.606  1.00  0.00     0.136 C 
HETATM   15  C   UNL     1     -46.035 -52.181  16.227  1.00  0.00    -0.003 C 
HETATM   16  C   UNL     1     -47.536 -51.970  15.995  1.00  0.00     0.013 C 
HETATM   17  C   UNL     1     -45.736 -52.433  17.721  1.00  0.00     0.013 C 
HETATM   18  C   UNL     1     -45.229 -53.165  15.293  1.00  0.00     0.099 C 
HETATM   19  C   UNL     1     -48.058 -50.824  16.859  1.00  0.00     0.001 C 
HETATM   20  C   UNL     1     -47.798 -51.101  18.336  1.00  0.00     0.000 C 
HETATM   21  C   UNL     1     -46.311 -51.318  18.597  1.00  0.00     0.001 C 
BRANCH  18  22
HETATM   22  C   UNL     1     -45.894 -53.732  14.020  1.00  0.00     0.001 C 
HETATM   23  C   UNL     1     -45.560 -52.894  12.783  1.00  0.00     0.011 C 
HETATM   24  C   UNL     1     -45.419 -55.167  13.767  1.00  0.00     0.011 C 
ENDBRANCH  18  22
ENDBRANCH   2  13
BRANCH   3  25
HETATM   25  C   UNL     1     -39.069 -51.007  12.305  1.00  0.00     0.138 C 
BRANCH  25  26
HETATM   26  C   UNL     1     -38.327 -49.686  11.994  1.00  0.00     0.034 C 
BRANCH  26  27
HETATM   27  C   UNL     1     -37.917 -48.837  13.234  1.00  0.00     0.019 C 
HETATM   28  C   UNL     1     -37.531 -49.613  14.497  1.00  0.00     0.172 C 
HETATM   29  O   UNL     1     -38.572 -49.403  15.456  1.00  0.00    -0.391 OA
HETATM   30  C   UNL     1     -39.083 -48.095  15.220  1.00  0.00     0.168 C 
HETATM   31  C   UNL     1     -39.077 -47.956  13.718  1.00  0.00     0.033 C 
ENDBRANCH  26  27
BRANCH  26  32
HETATM   32  C   UNL     1     -37.075 -50.082  11.171  1.00  0.00     0.170 C 
BRANCH  32  33
HETATM   33  O   UNL     1     -37.372 -50.154   9.783  1.00  0.00    -0.400 OA
HETATM   34  H   UNL     1     -38.084 -49.522   9.582  1.00  0.00     0.209 HD
ENDBRANCH  32  33
ENDBRANCH  26  32
ENDBRANCH  25  26
ENDBRANCH   3  25
TORSDOF 7
ENDMDL
MODEL 8
REMARK VINA RESULT:      -6.4      3.258      8.148
REMARK  7 active torsions:
REMARK  status: ('A' for Active; 'I' for Inactive)
REMARK    1  A    between atoms: N_1  and  C_3 
REMARK    2  A    between atoms: N_4  and  C_16 
REMARK    3  A    between atoms: C_10  and  C_21 
REMARK    4  A    between atoms: C_16  and  C_17 
REMARK    5  A    between atoms: C_17  and  C_20 
REMARK    6  A    between atoms: C_17  and  C_24 
REMARK    7  A    between atoms: C_24  and  O_26 
ROOT
HETATM    1  C   UNL     1     -41.952 -49.179  11.851  1.00  0.00     0.122 A 
HETATM    2  C   UNL     1     -41.033 -48.330  11.196  1.00  0.00     0.135 A 
HETATM    3  N   UNL     1     -42.550 -50.997  12.904  1.00  0.00    -0.327 N 
HETATM    4  C   UNL     1     -41.499 -50.429  12.233  1.00  0.00     0.140 A 
HETATM    5  N   UNL     1     -43.272 -49.007  12.234  1.00  0.00    -0.346 N 
ATOM      6  HN  UNL     1     -43.868 -48.198  12.060  1.00  0.00     0.167 HD
HETATM    7  C   UNL     1     -43.592 -50.113  12.869  1.00  0.00     0.185 A 
HETATM    8  N   UNL     1     -39.777 -48.816  10.970  1.00  0.00    -0.337 N 
ATOM      9  HN  UNL     1     -39.075 -48.247  10.497  1.00  0.00     0.168 HD
HETATM   10  N   UNL     1     -40.280 -50.950  12.026  1.00  0.00    -0.336 N 
ATOM     11  HN  UNL     1     -39.994 -51.886  12.312  1.00  0.00     0.168 HD
HETATM   12  C   UNL     1     -39.485 -50.068  11.388  1.00  0.00     0.183 A 
ENDROOT
BRANCH   2  13
HETATM   13  N   UNL     1     -41.373 -47.018  10.820  1.00  0.00    -0.359 N 
HETATM   14  C   UNL     1     -40.750 -45.851  11.356  1.00  0.00     0.136 C 
HETATM   15  C   UNL     1     -42.141 -45.215  11.530  1.00  0.00    -0.003 C 
HETATM   16  C   UNL     1     -42.215 -43.801  10.943  1.00  0.00     0.013 C 
HETATM   17  C   UNL     1     -42.656 -45.239  12.985  1.00  0.00     0.013 C 
HETATM   18  C   UNL     1     -42.686 -46.438  10.695  1.00  0.00     0.099 C 
HETATM   19  C   UNL     1     -41.438 -42.816  11.815  1.00  0.00     0.001 C 
HETATM   20  C   UNL     1     -41.982 -42.813  13.240  1.00  0.00     0.000 C 
HETATM   21  C   UNL     1     -41.924 -44.210  13.849  1.00  0.00     0.001 C 
BRANCH  18  22
HETATM   22  C   UNL     1     -43.078 -46.244   9.214  1.00  0.00     0.001 C 
HETATM   23  C   UNL     1     -43.257 -47.583   8.493  1.00  0.00     0.011 C 
HETATM   24  C   UNL     1     -44.394 -45.466   9.110  1.00  0.00     0.011 C 
ENDBRANCH  18  22
ENDBRANCH   2  13
BRANCH   3  25
HETATM   25  C   UNL     1     -42.475 -52.197  13.702  1.00  0.00     0.138 C 
BRANCH  25  26
HETATM   26  C   UNL     1     -43.608 -52.482  14.717  1.00  0.00     0.034 C 
BRANCH  26  27
HETATM   27  C   UNL     1     -44.909 -53.092  14.117  1.00  0.00     0.019 C 
HETATM   28  C   UNL     1     -46.026 -53.433  15.108  1.00  0.00     0.172 C 
HETATM   29  O   UNL     1     -46.110 -54.860  15.173  1.00  0.00    -0.391 OA
HETATM   30  C   UNL     1     -45.755 -55.347  13.883  1.00  0.00     0.168 C 
HETATM   31  C   UNL     1     -44.634 -54.440  13.437  1.00  0.00     0.033 C 
ENDBRANCH  26  27
BRANCH  26  32
HETATM   32  C   UNL     1     -43.002 -53.435  15.778  1.00  0.00     0.170 C 
BRANCH  32  33
HETATM   33  O   UNL     1     -41.582 -53.427  15.727  1.00  0.00    -0.400 OA
HETATM   34  H   UNL     1     -41.236 -53.519  16.632  1.00  0.00     0.209 HD
ENDBRANCH  32  33
ENDBRANCH  26  32
ENDBRANCH  25  26
ENDBRANCH   3  25
TORSDOF 7
ENDMDL
MODEL 9
REMARK VINA RESULT:      -6.4      3.487      8.706
REMARK  7 active torsions:
REMARK  status: ('A' for Active; 'I' for Inactive)
REMARK    1  A    between atoms: N_1  and  C_3 
REMARK    2  A    between atoms: N_4  and  C_16 
REMARK    3  A    between atoms: C_10  and  C_21 
REMARK    4  A    between atoms: C_16  and  C_17 
REMARK    5  A    between atoms: C_17  and  C_20 
REMARK    6  A    between atoms: C_17  and  C_24 
REMARK    7  A    between atoms: C_24  and  O_26 
ROOT
HETATM    1  C   UNL     1     -42.150 -45.910  11.597  1.00  0.00     0.122 A 
HETATM    2  C   UNL     1     -41.744 -44.560  11.517  1.00  0.00     0.135 A 
HETATM    3  N   UNL     1     -41.874 -48.067  11.385  1.00  0.00    -0.327 N 
HETATM    4  C   UNL     1     -41.274 -46.866  11.114  1.00  0.00     0.140 A 
HETATM    5  N   UNL     1     -43.289 -46.514  12.103  1.00  0.00    -0.346 N 
ATOM      6  HN  UNL     1     -44.111 -46.056  12.497  1.00  0.00     0.167 HD
HETATM    7  C   UNL     1     -43.083 -47.805  11.968  1.00  0.00     0.185 A 
HETATM    8  N   UNL     1     -40.529 -44.301  10.951  1.00  0.00    -0.337 N 
ATOM      9  HN  UNL     1     -40.188 -43.343  10.864  1.00  0.00     0.168 HD
HETATM   10  N   UNL     1     -40.077 -46.657  10.544  1.00  0.00    -0.336 N 
ATOM     11  HN  UNL     1     -39.469 -47.394  10.187  1.00  0.00     0.168 HD
HETATM   12  C   UNL     1     -39.788 -45.341  10.507  1.00  0.00     0.183 A 
ENDROOT
BRANCH   2  13
HETATM   13  N   UNL     1     -42.533 -43.517  12.033  1.00  0.00    -0.359 N 
HETATM   14  C   UNL     1     -43.186 -42.539  11.223  1.00  0.00     0.136 C 
HETATM   15  C   UNL     1     -42.685 -41.443  12.182  1.00  0.00    -0.003 C 
HETATM   16  C   UNL     1     -43.808 -40.502  12.632  1.00  0.00     0.013 C 
HETATM   17  C   UNL     1     -41.478 -40.647  11.638  1.00  0.00     0.013 C 
HETATM   18  C   UNL     1     -42.231 -42.626  13.124  1.00  0.00     0.099 C 
HETATM   19  C   UNL     1     -44.228 -39.582  11.486  1.00  0.00     0.001 C 
HETATM   20  C   UNL     1     -43.041 -38.767  10.985  1.00  0.00     0.000 C 
HETATM   21  C   UNL     1     -41.905 -39.680  10.533  1.00  0.00     0.001 C 
BRANCH  18  22
HETATM   22  C   UNL     1     -43.061 -42.969  14.379  1.00  0.00     0.001 C 
HETATM   23  C   UNL     1     -42.768 -44.385  14.885  1.00  0.00     0.011 C 
HETATM   24  C   UNL     1     -42.748 -41.983  15.510  1.00  0.00     0.011 C 
ENDBRANCH  18  22
ENDBRANCH   2  13
BRANCH   3  25
HETATM   25  C   UNL     1     -41.233 -49.356  11.292  1.00  0.00     0.138 C 
BRANCH  25  26
HETATM   26  C   UNL     1     -40.466 -49.891  12.525  1.00  0.00     0.034 C 
BRANCH  26  27
HETATM   27  C   UNL     1     -41.018 -51.214  13.136  1.00  0.00     0.019 C 
HETATM   28  C   UNL     1     -41.188 -52.394  12.175  1.00  0.00     0.172 C 
HETATM   29  O   UNL     1     -42.594 -52.598  12.004  1.00  0.00    -0.391 OA
HETATM   30  C   UNL     1     -43.210 -52.233  13.234  1.00  0.00     0.168 C 
HETATM   31  C   UNL     1     -42.434 -51.024  13.697  1.00  0.00     0.033 C 
ENDBRANCH  26  27
BRANCH  26  32
HETATM   32  C   UNL     1     -38.998 -50.077  12.068  1.00  0.00     0.170 C 
BRANCH  32  33
HETATM   33  O   UNL     1     -38.840 -49.751  10.693  1.00  0.00    -0.400 OA
HETATM   34  H   UNL     1     -38.789 -50.577  10.180  1.00  0.00     0.209 HD
ENDBRANCH  32  33
ENDBRANCH  26  32
ENDBRANCH  25  26
ENDBRANCH   3  25
TORSDOF 7
ENDMDL
