MODEL 1
REMARK VINA RESULT:      -6.3      0.000      0.000
REMARK  8 active torsions:
REMARK  status: ('A' for Active; 'I' for Inactive)
REMARK    1  A    between atoms: O_2  and  C_3 
REMARK    2  A    between atoms: C_3  and  C_4 
REMARK    3  A    between atoms: C_4  and  N_5 
REMARK    4  A    between atoms: C_6  and  S_7 
REMARK    5  A    between atoms: S_7  and  C_8 
REMARK    6  A    between atoms: C_8  and  C_9 
REMARK       I    between atoms: C_9  and  N_11 
REMARK    7  A    between atoms: N_11  and  C_12 
REMARK    8  A    between atoms: C_19  and  O_20 
ROOT
HETATM    1  N   UNL     1     -42.571 -46.016  10.511  1.00  0.00    -0.292 N 
HETATM    2  C   UNL     1     -42.193 -47.351  10.466  1.00  0.00     0.151 A 
HETATM    3  N   UNL     1     -42.441 -48.151   9.477  1.00  0.00    -0.317 N 
ATOM      4  HN  UNL     1     -42.116 -49.118   9.481  1.00  0.00     0.170 HD
HETATM    5  C   UNL     1     -43.154 -47.648   8.434  1.00  0.00     0.147 A 
HETATM    6  C   UNL     1     -43.602 -46.400   8.354  1.00  0.00     0.130 A 
HETATM    7  C   UNL     1     -43.308 -45.488   9.459  1.00  0.00     0.253 A 
HETATM    8  O   UNL     1     -43.770 -44.350   9.411  1.00  0.00    -0.268 OA
ENDROOT
BRANCH   2   9
HETATM    9  S   UNL     1     -41.399 -48.039  11.875  1.00  0.00    -0.084 SA
BRANCH   9  10
HETATM   10  C   UNL     1     -41.261 -49.799  11.415  1.00  0.00     0.185 C 
BRANCH  10  11
HETATM   11  C   UNL     1     -41.982 -50.717  12.408  1.00  0.00     0.227 C 
HETATM   12  O   UNL     1     -41.374 -51.564  13.059  1.00  0.00    -0.273 OA
HETATM   13  N   UNL     1     -43.333 -50.481  12.578  1.00  0.00    -0.356 N 
HETATM   14  H   UNL     1     -43.735 -49.719  12.054  1.00  0.00     0.162 HD
BRANCH  13  15
HETATM   15  C   UNL     1     -44.174 -51.228  13.494  1.00  0.00     0.084 C 
HETATM   16  C   UNL     1     -45.617 -51.418  13.011  1.00  0.00     0.025 C 
HETATM   17  C   UNL     1     -46.493 -51.418  14.268  1.00  0.00     0.002 C 
HETATM   18  C   UNL     1     -45.554 -51.176  15.443  1.00  0.00     0.002 C 
HETATM   19  C   UNL     1     -44.344 -50.498  14.825  1.00  0.00     0.025 C 
ENDBRANCH  13  15
ENDBRANCH  10  11
ENDBRANCH   9  10
ENDBRANCH   2   9
BRANCH   1  20
HETATM   20  C   UNL     1     -42.365 -45.119  11.664  1.00  0.00     0.160 C 
BRANCH  20  21
HETATM   21  C   UNL     1     -41.004 -44.414  11.731  1.00  0.00     0.187 C 
BRANCH  21  22
HETATM   22  O   UNL     1     -40.571 -43.996  10.439  1.00  0.00    -0.394 OA
HETATM   23  C   UNL     1     -39.424 -44.730  10.023  1.00  0.00     0.201 C 
ENDBRANCH  21  22
ENDBRANCH  20  21
ENDBRANCH   1  20
BRANCH   5  24
HETATM   24  O   UNL     1     -43.453 -48.533   7.434  1.00  0.00    -0.346 OA
HETATM   25  H   UNL     1     -44.268 -48.958   7.756  1.00  0.00     0.219 HD
ENDBRANCH   5  24
TORSDOF 8
ENDMDL
MODEL 2
REMARK VINA RESULT:      -6.2      1.590      1.795
REMARK  8 active torsions:
REMARK  status: ('A' for Active; 'I' for Inactive)
REMARK    1  A    between atoms: O_2  and  C_3 
REMARK    2  A    between atoms: C_3  and  C_4 
REMARK    3  A    between atoms: C_4  and  N_5 
REMARK    4  A    between atoms: C_6  and  S_7 
REMARK    5  A    between atoms: S_7  and  C_8 
REMARK    6  A    between atoms: C_8  and  C_9 
REMARK       I    between atoms: C_9  and  N_11 
REMARK    7  A    between atoms: N_11  and  C_12 
REMARK    8  A    between atoms: C_19  and  O_20 
ROOT
HETATM    1  N   UNL     1     -42.369 -46.185  10.219  1.00  0.00    -0.292 N 
HETATM    2  C   UNL     1     -42.403 -47.558  10.021  1.00  0.00     0.151 A 
HETATM    3  N   UNL     1     -43.249 -48.168   9.252  1.00  0.00    -0.317 N 
ATOM      4  HN  UNL     1     -43.212 -49.178   9.117  1.00  0.00     0.170 HD
HETATM    5  C   UNL     1     -44.187 -47.405   8.632  1.00  0.00     0.147 A 
HETATM    6  C   UNL     1     -44.291 -46.085   8.750  1.00  0.00     0.130 A 
HETATM    7  C   UNL     1     -43.326 -45.390   9.602  1.00  0.00     0.253 A 
HETATM    8  O   UNL     1     -43.456 -44.178   9.757  1.00  0.00    -0.268 OA
ENDROOT
BRANCH   2   9
HETATM    9  S   UNL     1     -41.282 -48.559  10.935  1.00  0.00    -0.084 SA
BRANCH   9  10
HETATM   10  C   UNL     1     -42.349 -49.212  12.263  1.00  0.00     0.185 C 
BRANCH  10  11
HETATM   11  C   UNL     1     -42.185 -50.724  12.447  1.00  0.00     0.227 C 
HETATM   12  O   UNL     1     -41.075 -51.250  12.489  1.00  0.00    -0.273 OA
HETATM   13  N   UNL     1     -43.352 -51.441  12.636  1.00  0.00    -0.356 N 
HETATM   14  H   UNL     1     -44.213 -50.917  12.656  1.00  0.00     0.162 HD
BRANCH  13  15
HETATM   15  C   UNL     1     -43.393 -52.874  12.853  1.00  0.00     0.084 C 
HETATM   16  C   UNL     1     -44.757 -53.516  12.573  1.00  0.00     0.025 C 
HETATM   17  C   UNL     1     -44.895 -54.679  13.561  1.00  0.00     0.002 C 
HETATM   18  C   UNL     1     -43.641 -54.657  14.425  1.00  0.00     0.002 C 
HETATM   19  C   UNL     1     -43.134 -53.229  14.317  1.00  0.00     0.025 C 
ENDBRANCH  13  15
ENDBRANCH  10  11
ENDBRANCH   9  10
ENDBRANCH   2   9
BRANCH   1  20
HETATM   20  C   UNL     1     -41.464 -45.489  11.153  1.00  0.00     0.160 C 
BRANCH  20  21
HETATM   21  C   UNL     1     -40.133 -45.005  10.564  1.00  0.00     0.187 C 
BRANCH  21  22
HETATM   22  O   UNL     1     -40.172 -43.611  10.268  1.00  0.00    -0.394 OA
HETATM   23  C   UNL     1     -40.580 -42.860  11.407  1.00  0.00     0.201 C 
ENDBRANCH  21  22
ENDBRANCH  20  21
ENDBRANCH   1  20
BRANCH   5  24
HETATM   24  O   UNL     1     -45.104 -48.084   7.875  1.00  0.00    -0.346 OA
HETATM   25  H   UNL     1     -45.364 -47.427   7.206  1.00  0.00     0.219 HD
ENDBRANCH   5  24
TORSDOF 8
ENDMDL
MODEL 3
REMARK VINA RESULT:      -5.9      1.895      2.063
REMARK  8 active torsions:
REMARK  status: ('A' for Active; 'I' for Inactive)
REMARK    1  A    between atoms: O_2  and  C_3 
REMARK    2  A    between atoms: C_3  and  C_4 
REMARK    3  A    between atoms: C_4  and  N_5 
REMARK    4  A    between atoms: C_6  and  S_7 
REMARK    5  A    between atoms: S_7  and  C_8 
REMARK    6  A    between atoms: C_8  and  C_9 
REMARK       I    between atoms: C_9  and  N_11 
REMARK    7  A    between atoms: N_11  and  C_12 
REMARK    8  A    between atoms: C_19  and  O_20 
ROOT
HETATM    1  N   UNL     1     -42.567 -46.309  11.015  1.00  0.00    -0.292 N 
HETATM    2  C   UNL     1     -42.713 -47.675  10.818  1.00  0.00     0.151 A 
HETATM    3  N   UNL     1     -43.133 -48.218   9.719  1.00  0.00    -0.317 N 
ATOM      4  HN  UNL     1     -43.194 -49.231   9.616  1.00  0.00     0.170 HD
HETATM    5  C   UNL     1     -43.490 -47.381   8.710  1.00  0.00     0.147 A 
HETATM    6  C   UNL     1     -43.429 -46.055   8.766  1.00  0.00     0.130 A 
HETATM    7  C   UNL     1     -42.937 -45.438   9.998  1.00  0.00     0.253 A 
HETATM    8  O   UNL     1     -42.933 -44.211  10.071  1.00  0.00    -0.268 OA
ENDROOT
BRANCH   2   9
HETATM    9  S   UNL     1     -42.390 -48.750  12.172  1.00  0.00    -0.084 SA
BRANCH   9  10
HETATM   10  C   UNL     1     -41.012 -49.763  11.536  1.00  0.00     0.185 C 
BRANCH  10  11
HETATM   11  C   UNL     1     -41.141 -51.236  11.939  1.00  0.00     0.227 C 
HETATM   12  O   UNL     1     -40.152 -51.942  12.118  1.00  0.00    -0.273 OA
HETATM   13  N   UNL     1     -42.427 -51.692  12.159  1.00  0.00    -0.356 N 
HETATM   14  H   UNL     1     -43.175 -51.023  12.055  1.00  0.00     0.162 HD
BRANCH  13  15
HETATM   15  C   UNL     1     -42.744 -53.045  12.572  1.00  0.00     0.084 C 
HETATM   16  C   UNL     1     -44.211 -53.441  12.364  1.00  0.00     0.025 C 
HETATM   17  C   UNL     1     -44.560 -54.406  13.502  1.00  0.00     0.002 C 
HETATM   18  C   UNL     1     -43.314 -54.510  14.372  1.00  0.00     0.002 C 
HETATM   19  C   UNL     1     -42.539 -53.237  14.074  1.00  0.00     0.025 C 
ENDBRANCH  13  15
ENDBRANCH  10  11
ENDBRANCH   9  10
ENDBRANCH   2   9
BRANCH   1  20
HETATM   20  C   UNL     1     -42.168 -45.677  12.286  1.00  0.00     0.160 C 
BRANCH  20  21
HETATM   21  C   UNL     1     -40.721 -45.170  12.358  1.00  0.00     0.187 C 
BRANCH  21  22
HETATM   22  O   UNL     1     -39.789 -46.243  12.246  1.00  0.00    -0.394 OA
HETATM   23  C   UNL     1     -39.429 -46.742  13.531  1.00  0.00     0.201 C 
ENDBRANCH  21  22
ENDBRANCH  20  21
ENDBRANCH   1  20
BRANCH   5  24
HETATM   24  O   UNL     1     -43.988 -47.981   7.585  1.00  0.00    -0.346 OA
HETATM   25  H   UNL     1     -43.191 -48.129   7.045  1.00  0.00     0.219 HD
ENDBRANCH   5  24
TORSDOF 8
ENDMDL
MODEL 4
REMARK VINA RESULT:      -5.7      3.153      7.846
REMARK  8 active torsions:
REMARK  status: ('A' for Active; 'I' for Inactive)
REMARK    1  A    between atoms: O_2  and  C_3 
REMARK    2  A    between atoms: C_3  and  C_4 
REMARK    3  A    between atoms: C_4  and  N_5 
REMARK    4  A    between atoms: C_6  and  S_7 
REMARK    5  A    between atoms: S_7  and  C_8 
REMARK    6  A    between atoms: C_8  and  C_9 
REMARK       I    between atoms: C_9  and  N_11 
REMARK    7  A    between atoms: N_11  and  C_12 
REMARK    8  A    between atoms: C_19  and  O_20 
ROOT
HETATM    1  N   UNL     1     -42.765 -53.922  13.715  1.00  0.00    -0.292 N 
HETATM    2  C   UNL     1     -42.935 -52.977  12.713  1.00  0.00     0.151 A 
HETATM    3  N   UNL     1     -44.078 -52.653  12.196  1.00  0.00    -0.317 N 
ATOM      4  HN  UNL     1     -44.152 -51.929  11.481  1.00  0.00     0.170 HD
HETATM    5  C   UNL     1     -45.174 -53.318  12.647  1.00  0.00     0.147 A 
HETATM    6  C   UNL     1     -45.158 -54.263  13.581  1.00  0.00     0.130 A 
HETATM    7  C   UNL     1     -43.872 -54.619  14.181  1.00  0.00     0.253 A 
HETATM    8  O   UNL     1     -43.848 -55.532  15.003  1.00  0.00    -0.268 OA
ENDROOT
BRANCH   2   9
HETATM    9  S   UNL     1     -41.502 -52.222  12.029  1.00  0.00    -0.084 SA
BRANCH   9  10
HETATM   10  C   UNL     1     -41.605 -50.528  12.698  1.00  0.00     0.185 C 
BRANCH  10  11
HETATM   11  C   UNL     1     -41.460 -49.463  11.606  1.00  0.00     0.227 C 
HETATM   12  O   UNL     1     -40.377 -49.229  11.076  1.00  0.00    -0.273 OA
HETATM   13  N   UNL     1     -42.630 -48.844  11.205  1.00  0.00    -0.356 N 
HETATM   14  H   UNL     1     -43.484 -49.150  11.646  1.00  0.00     0.162 HD
BRANCH  13  15
HETATM   15  C   UNL     1     -42.694 -47.833  10.168  1.00  0.00     0.084 C 
HETATM   16  C   UNL     1     -42.244 -46.438  10.618  1.00  0.00     0.025 C 
HETATM   17  C   UNL     1     -43.093 -45.438   9.827  1.00  0.00     0.002 C 
HETATM   18  C   UNL     1     -44.050 -46.266   8.978  1.00  0.00     0.002 C 
HETATM   19  C   UNL     1     -44.129 -47.603   9.695  1.00  0.00     0.025 C 
ENDBRANCH  13  15
ENDBRANCH  10  11
ENDBRANCH   9  10
ENDBRANCH   2   9
BRANCH   1  20
HETATM   20  C   UNL     1     -41.462 -54.357  14.253  1.00  0.00     0.160 C 
BRANCH  20  21
HETATM   21  C   UNL     1     -40.967 -53.610  15.499  1.00  0.00     0.187 C 
BRANCH  21  22
HETATM   22  O   UNL     1     -41.202 -54.365  16.685  1.00  0.00    -0.394 OA
HETATM   23  C   UNL     1     -42.032 -53.645  17.591  1.00  0.00     0.201 C 
ENDBRANCH  21  22
ENDBRANCH  20  21
ENDBRANCH   1  20
BRANCH   5  24
HETATM   24  O   UNL     1     -46.358 -52.997  12.039  1.00  0.00    -0.346 OA
HETATM   25  H   UNL     1     -46.515 -53.758  11.453  1.00  0.00     0.219 HD
ENDBRANCH   5  24
TORSDOF 8
ENDMDL
MODEL 5
REMARK VINA RESULT:      -5.6      4.198      5.303
REMARK  8 active torsions:
REMARK  status: ('A' for Active; 'I' for Inactive)
REMARK    1  A    between atoms: O_2  and  C_3 
REMARK    2  A    between atoms: C_3  and  C_4 
REMARK    3  A    between atoms: C_4  and  N_5 
REMARK    4  A    between atoms: C_6  and  S_7 
REMARK    5  A    between atoms: S_7  and  C_8 
REMARK    6  A    between atoms: C_8  and  C_9 
REMARK       I    between atoms: C_9  and  N_11 
REMARK    7  A    between atoms: N_11  and  C_12 
REMARK    8  A    between atoms: C_19  and  O_20 
ROOT
HETATM    1  N   UNL     1     -39.406 -46.634  13.054  1.00  0.00    -0.292 N 
HETATM    2  C   UNL     1     -39.696 -47.331  11.889  1.00  0.00     0.151 A 
HETATM    3  N   UNL     1     -39.872 -46.782  10.729  1.00  0.00    -0.317 N 
ATOM      4  HN  UNL     1     -40.054 -47.343   9.897  1.00  0.00     0.170 HD
HETATM    5  C   UNL     1     -39.804 -45.425  10.668  1.00  0.00     0.147 A 
HETATM    6  C   UNL     1     -39.562 -44.630  11.704  1.00  0.00     0.130 A 
HETATM    7  C   UNL     1     -39.343 -45.248  13.012  1.00  0.00     0.253 A 
HETATM    8  O   UNL     1     -39.175 -44.511  13.981  1.00  0.00    -0.268 OA
ENDROOT
BRANCH   2   9
HETATM    9  S   UNL     1     -39.927 -49.071  11.996  1.00  0.00    -0.084 SA
BRANCH   9  10
HETATM   10  C   UNL     1     -38.237 -49.699  11.712  1.00  0.00     0.185 C 
BRANCH  10  11
HETATM   11  C   UNL     1     -37.967 -51.001  12.475  1.00  0.00     0.227 C 
HETATM   12  O   UNL     1     -36.905 -51.608  12.355  1.00  0.00    -0.273 OA
HETATM   13  N   UNL     1     -38.955 -51.402  13.356  1.00  0.00    -0.356 N 
HETATM   14  H   UNL     1     -39.762 -50.804  13.442  1.00  0.00     0.162 HD
BRANCH  13  15
HETATM   15  C   UNL     1     -38.865 -52.589  14.183  1.00  0.00     0.084 C 
HETATM   16  C   UNL     1     -39.864 -53.692  13.814  1.00  0.00     0.025 C 
HETATM   17  C   UNL     1     -40.231 -54.395  15.125  1.00  0.00     0.002 C 
HETATM   18  C   UNL     1     -39.483 -53.658  16.229  1.00  0.00     0.002 C 
HETATM   19  C   UNL     1     -39.203 -52.285  15.642  1.00  0.00     0.025 C 
ENDBRANCH  13  15
ENDBRANCH  10  11
ENDBRANCH   9  10
ENDBRANCH   2   9
BRANCH   1  20
HETATM   20  C   UNL     1     -39.284 -47.241  14.392  1.00  0.00     0.160 C 
BRANCH  20  21
HETATM   21  C   UNL     1     -37.883 -47.733  14.781  1.00  0.00     0.187 C 
BRANCH  21  22
HETATM   22  O   UNL     1     -37.932 -49.032  15.366  1.00  0.00    -0.394 OA
HETATM   23  C   UNL     1     -36.621 -49.525  15.623  1.00  0.00     0.201 C 
ENDBRANCH  21  22
ENDBRANCH  20  21
ENDBRANCH   1  20
BRANCH   5  24
HETATM   24  O   UNL     1     -40.056 -44.870   9.442  1.00  0.00    -0.346 OA
HETATM   25  H   UNL     1     -40.648 -45.521   9.025  1.00  0.00     0.219 HD
ENDBRANCH   5  24
TORSDOF 8
ENDMDL
MODEL 6
REMARK VINA RESULT:      -5.5      4.077      5.280
REMARK  8 active torsions:
REMARK  status: ('A' for Active; 'I' for Inactive)
REMARK    1  A    between atoms: O_2  and  C_3 
REMARK    2  A    between atoms: C_3  and  C_4 
REMARK    3  A    between atoms: C_4  and  N_5 
REMARK    4  A    between atoms: C_6  and  S_7 
REMARK    5  A    between atoms: S_7  and  C_8 
REMARK    6  A    between atoms: C_8  and  C_9 
REMARK       I    between atoms: C_9  and  N_11 
REMARK    7  A    between atoms: N_11  and  C_12 
REMARK    8  A    between atoms: C_19  and  O_20 
ROOT
HETATM    1  N   UNL     1     -38.942 -49.956  13.847  1.00  0.00    -0.292 N 
HETATM    2  C   UNL     1     -39.480 -51.072  13.222  1.00  0.00     0.151 A 
HETATM    3  N   UNL     1     -39.952 -51.081  12.015  1.00  0.00    -0.317 N 
ATOM      4  HN  UNL     1     -40.310 -51.937  11.591  1.00  0.00     0.170 HD
HETATM    5  C   UNL     1     -39.951 -49.902  11.339  1.00  0.00     0.147 A 
HETATM    6  C   UNL     1     -39.493 -48.751  11.821  1.00  0.00     0.130 A 
HETATM    7  C   UNL     1     -38.942 -48.741  13.176  1.00  0.00     0.253 A 
HETATM    8  O   UNL     1     -38.570 -47.667  13.643  1.00  0.00    -0.268 OA
ENDROOT
BRANCH   2   9
HETATM    9  S   UNL     1     -39.614 -52.561  14.147  1.00  0.00    -0.084 SA
BRANCH   9  10
HETATM   10  C   UNL     1     -40.619 -53.609  13.042  1.00  0.00     0.185 C 
BRANCH  10  11
HETATM   11  C   UNL     1     -42.060 -53.762  13.539  1.00  0.00     0.227 C 
HETATM   12  O   UNL     1     -42.404 -54.718  14.231  1.00  0.00    -0.273 OA
HETATM   13  N   UNL     1     -42.921 -52.726  13.226  1.00  0.00    -0.356 N 
HETATM   14  H   UNL     1     -42.535 -51.948  12.714  1.00  0.00     0.162 HD
BRANCH  13  15
HETATM   15  C   UNL     1     -44.312 -52.682  13.634  1.00  0.00     0.084 C 
HETATM   16  C   UNL     1     -45.311 -52.924  12.496  1.00  0.00     0.025 C 
HETATM   17  C   UNL     1     -46.545 -52.076  12.821  1.00  0.00     0.002 C 
HETATM   18  C   UNL     1     -46.220 -51.322  14.104  1.00  0.00     0.002 C 
HETATM   19  C   UNL     1     -44.702 -51.299  14.153  1.00  0.00     0.025 C 
ENDBRANCH  13  15
ENDBRANCH  10  11
ENDBRANCH   9  10
ENDBRANCH   2   9
BRANCH   1  20
HETATM   20  C   UNL     1     -38.477 -49.915  15.247  1.00  0.00     0.160 C 
BRANCH  20  21
HETATM   21  C   UNL     1     -36.970 -50.110  15.459  1.00  0.00     0.187 C 
BRANCH  21  22
HETATM   22  O   UNL     1     -36.510 -49.396  16.604  1.00  0.00    -0.394 OA
HETATM   23  C   UNL     1     -37.418 -48.357  16.956  1.00  0.00     0.201 C 
ENDBRANCH  21  22
ENDBRANCH  20  21
ENDBRANCH   1  20
BRANCH   5  24
HETATM   24  O   UNL     1     -40.512 -49.930  10.091  1.00  0.00    -0.346 OA
HETATM   25  H   UNL     1     -40.920 -50.813  10.055  1.00  0.00     0.219 HD
ENDBRANCH   5  24
TORSDOF 8
ENDMDL
MODEL 7
REMARK VINA RESULT:      -5.5      3.455      6.432
REMARK  8 active torsions:
REMARK  status: ('A' for Active; 'I' for Inactive)
REMARK    1  A    between atoms: O_2  and  C_3 
REMARK    2  A    between atoms: C_3  and  C_4 
REMARK    3  A    between atoms: C_4  and  N_5 
REMARK    4  A    between atoms: C_6  and  S_7 
REMARK    5  A    between atoms: S_7  and  C_8 
REMARK    6  A    between atoms: C_8  and  C_9 
REMARK       I    between atoms: C_9  and  N_11 
REMARK    7  A    between atoms: N_11  and  C_12 
REMARK    8  A    between atoms: C_19  and  O_20 
ROOT
HETATM    1  N   UNL     1     -44.712 -51.995  14.577  1.00  0.00    -0.292 N 
HETATM    2  C   UNL     1     -44.252 -52.597  13.415  1.00  0.00     0.151 A 
HETATM    3  N   UNL     1     -44.941 -52.706  12.322  1.00  0.00    -0.317 N 
ATOM      4  HN  UNL     1     -44.546 -53.132  11.484  1.00  0.00     0.170 HD
HETATM    5  C   UNL     1     -46.213 -52.226  12.340  1.00  0.00     0.147 A 
HETATM    6  C   UNL     1     -46.792 -51.650  13.388  1.00  0.00     0.130 A 
HETATM    7  C   UNL     1     -46.011 -51.509  14.617  1.00  0.00     0.253 A 
HETATM    8  O   UNL     1     -46.564 -51.027  15.603  1.00  0.00    -0.268 OA
ENDROOT
BRANCH   2   9
HETATM    9  S   UNL     1     -42.661 -53.346  13.437  1.00  0.00    -0.084 SA
BRANCH   9  10
HETATM   10  C   UNL     1     -41.798 -52.450  12.102  1.00  0.00     0.185 C 
BRANCH  10  11
HETATM   11  C   UNL     1     -41.546 -50.981  12.458  1.00  0.00     0.227 C 
HETATM   12  O   UNL     1     -40.760 -50.661  13.347  1.00  0.00    -0.273 OA
HETATM   13  N   UNL     1     -42.198 -50.048  11.673  1.00  0.00    -0.356 N 
HETATM   14  H   UNL     1     -42.770 -50.401  10.921  1.00  0.00     0.162 HD
BRANCH  13  15
HETATM   15  C   UNL     1     -42.061 -48.614  11.842  1.00  0.00     0.084 C 
HETATM   16  C   UNL     1     -43.306 -47.811  11.448  1.00  0.00     0.025 C 
HETATM   17  C   UNL     1     -42.798 -46.478  10.890  1.00  0.00     0.002 C 
HETATM   18  C   UNL     1     -41.277 -46.554  10.922  1.00  0.00     0.002 C 
HETATM   19  C   UNL     1     -40.974 -48.042  10.934  1.00  0.00     0.025 C 
ENDBRANCH  13  15
ENDBRANCH  10  11
ENDBRANCH   9  10
ENDBRANCH   2   9
BRANCH   1  20
HETATM   20  C   UNL     1     -43.967 -51.939  15.850  1.00  0.00     0.160 C 
BRANCH  20  21
HETATM   21  C   UNL     1     -43.085 -50.701  16.057  1.00  0.00     0.187 C 
BRANCH  21  22
HETATM   22  O   UNL     1     -43.447 -49.649  15.166  1.00  0.00    -0.394 OA
HETATM   23  C   UNL     1     -42.731 -48.456  15.468  1.00  0.00     0.201 C 
ENDBRANCH  21  22
ENDBRANCH  20  21
ENDBRANCH   1  20
BRANCH   5  24
HETATM   24  O   UNL     1     -46.936 -52.409  11.192  1.00  0.00    -0.346 OA
HETATM   25  H   UNL     1     -46.384 -53.030  10.684  1.00  0.00     0.219 HD
ENDBRANCH   5  24
TORSDOF 8
ENDMDL
MODEL 8
REMARK VINA RESULT:      -5.5      2.510      3.315
REMARK  8 active torsions:
REMARK  status: ('A' for Active; 'I' for Inactive)
REMARK    1  A    between atoms: O_2  and  C_3 
REMARK    2  A    between atoms: C_3  and  C_4 
REMARK    3  A    between atoms: C_4  and  N_5 
REMARK    4  A    between atoms: C_6  and  S_7 
REMARK    5  A    between atoms: S_7  and  C_8 
REMARK    6  A    between atoms: C_8  and  C_9 
REMARK       I    between atoms: C_9  and  N_11 
REMARK    7  A    between atoms: N_11  and  C_12 
REMARK    8  A    between atoms: C_19  and  O_20 
ROOT
HETATM    1  N   UNL     1     -39.917 -47.985  12.109  1.00  0.00    -0.292 N 
HETATM    2  C   UNL     1     -40.503 -49.168  11.683  1.00  0.00     0.151 A 
HETATM    3  N   UNL     1     -41.442 -49.244  10.793  1.00  0.00    -0.317 N 
ATOM      4  HN  UNL     1     -41.819 -50.143  10.493  1.00  0.00     0.170 HD
HETATM    5  C   UNL     1     -41.903 -48.075  10.276  1.00  0.00     0.147 A 
HETATM    6  C   UNL     1     -41.456 -46.869  10.610  1.00  0.00     0.130 A 
HETATM    7  C   UNL     1     -40.382 -46.780  11.599  1.00  0.00     0.253 A 
HETATM    8  O   UNL     1     -40.007 -45.663  11.949  1.00  0.00    -0.268 OA
ENDROOT
BRANCH   2   9
HETATM    9  S   UNL     1     -40.007 -50.668  12.456  1.00  0.00    -0.084 SA
BRANCH   9  10
HETATM   10  C   UNL     1     -41.201 -51.865  11.769  1.00  0.00     0.185 C 
BRANCH  10  11
HETATM   11  C   UNL     1     -42.229 -52.320  12.811  1.00  0.00     0.227 C 
HETATM   12  O   UNL     1     -41.923 -53.076  13.729  1.00  0.00    -0.273 OA
HETATM   13  N   UNL     1     -43.492 -51.769  12.695  1.00  0.00    -0.356 N 
HETATM   14  H   UNL     1     -43.635 -51.103  11.951  1.00  0.00     0.162 HD
BRANCH  13  15
HETATM   15  C   UNL     1     -44.586 -52.059  13.602  1.00  0.00     0.084 C 
HETATM   16  C   UNL     1     -45.978 -51.814  13.010  1.00  0.00     0.025 C 
HETATM   17  C   UNL     1     -46.863 -51.349  14.171  1.00  0.00     0.002 C 
HETATM   18  C   UNL     1     -45.960 -51.282  15.396  1.00  0.00     0.002 C 
HETATM   19  C   UNL     1     -44.559 -51.142  14.825  1.00  0.00     0.025 C 
ENDBRANCH  13  15
ENDBRANCH  10  11
ENDBRANCH   9  10
ENDBRANCH   2   9
BRANCH   1  20
HETATM   20  C   UNL     1     -38.906 -47.880  13.178  1.00  0.00     0.160 C 
BRANCH  20  21
HETATM   21  C   UNL     1     -39.450 -47.745  14.606  1.00  0.00     0.187 C 
BRANCH  21  22
HETATM   22  O   UNL     1     -38.570 -48.339  15.556  1.00  0.00    -0.394 OA
HETATM   23  C   UNL     1     -37.347 -48.732  14.942  1.00  0.00     0.201 C 
ENDBRANCH  21  22
ENDBRANCH  20  21
ENDBRANCH   1  20
BRANCH   5  24
HETATM   24  O   UNL     1     -42.937 -48.183   9.385  1.00  0.00    -0.346 OA
HETATM   25  H   UNL     1     -43.723 -48.094   9.952  1.00  0.00     0.219 HD
ENDBRANCH   5  24
TORSDOF 8
ENDMDL
MODEL 9
REMARK VINA RESULT:      -5.2      4.436      6.462
REMARK  8 active torsions:
REMARK  status: ('A' for Active; 'I' for Inactive)
REMARK    1  A    between atoms: O_2  and  C_3 
REMARK    2  A    between atoms: C_3  and  C_4 
REMARK    3  A    between atoms: C_4  and  N_5 
REMARK    4  A    between atoms: C_6  and  S_7 
REMARK    5  A    between atoms: S_7  and  C_8 
REMARK    6  A    between atoms: C_8  and  C_9 
REMARK       I    between atoms: C_9  and  N_11 
REMARK    7  A    between atoms: N_11  and  C_12 
REMARK    8  A    between atoms: C_19  and  O_20 
ROOT
HETATM    1  N   UNL     1     -40.208 -51.862  13.725  1.00  0.00    -0.292 N 
HETATM    2  C   UNL     1     -40.945 -52.326  12.645  1.00  0.00     0.151 A 
HETATM    3  N   UNL     1     -41.031 -51.723  11.501  1.00  0.00    -0.317 N 
ATOM      4  HN  UNL     1     -41.564 -52.122  10.728  1.00  0.00     0.170 HD
HETATM    5  C   UNL     1     -40.382 -50.536  11.374  1.00  0.00     0.147 A 
HETATM    6  C   UNL     1     -39.662 -49.959  12.331  1.00  0.00     0.130 A 
HETATM    7  C   UNL     1     -39.547 -50.646  13.617  1.00  0.00     0.253 A 
HETATM    8  O   UNL     1     -38.928 -50.086  14.520  1.00  0.00    -0.268 OA
ENDROOT
BRANCH   2   9
HETATM    9  S   UNL     1     -41.901 -53.787  12.856  1.00  0.00    -0.084 SA
BRANCH   9  10
HETATM   10  C   UNL     1     -43.594 -53.186  12.533  1.00  0.00     0.185 C 
BRANCH  10  11
HETATM   11  C   UNL     1     -44.495 -53.304  13.767  1.00  0.00     0.227 C 
HETATM   12  O   UNL     1     -44.919 -54.391  14.152  1.00  0.00    -0.273 OA
HETATM   13  N   UNL     1     -44.737 -52.129  14.455  1.00  0.00    -0.356 N 
HETATM   14  H   UNL     1     -44.291 -51.294  14.106  1.00  0.00     0.162 HD
BRANCH  13  15
HETATM   15  C   UNL     1     -45.542 -52.049  15.658  1.00  0.00     0.084 C 
HETATM   16  C   UNL     1     -47.054 -52.051  15.406  1.00  0.00     0.025 C 
HETATM   17  C   UNL     1     -47.673 -51.177  16.501  1.00  0.00     0.002 C 
HETATM   18  C   UNL     1     -46.512 -50.644  17.330  1.00  0.00     0.002 C 
HETATM   19  C   UNL     1     -45.314 -50.733  16.401  1.00  0.00     0.025 C 
ENDBRANCH  13  15
ENDBRANCH  10  11
ENDBRANCH   9  10
ENDBRANCH   2   9
BRANCH   1  20
HETATM   20  C   UNL     1     -40.168 -52.497  15.055  1.00  0.00     0.160 C 
BRANCH  20  21
HETATM   21  C   UNL     1     -38.955 -53.395  15.335  1.00  0.00     0.187 C 
BRANCH  21  22
HETATM   22  O   UNL     1     -39.277 -54.772  15.159  1.00  0.00    -0.394 OA
HETATM   23  C   UNL     1     -38.651 -55.573  16.156  1.00  0.00     0.201 C 
ENDBRANCH  21  22
ENDBRANCH  20  21
ENDBRANCH   1  20
BRANCH   5  24
HETATM   24  O   UNL     1     -40.542 -49.893  10.176  1.00  0.00    -0.346 OA
HETATM   25  H   UNL     1     -41.117 -49.142  10.407  1.00  0.00     0.219 HD
ENDBRANCH   5  24
TORSDOF 8
ENDMDL
