MODEL 1
REMARK VINA RESULT:      -5.9      0.000      0.000
REMARK  5 active torsions:
REMARK  status: ('A' for Active; 'I' for Inactive)
REMARK    1  A    between atoms: C_2  and  C_3 
REMARK    2  A    between atoms: C_2  and  N_10 
REMARK    3  A    between atoms: C_3  and  N_4 
REMARK    4  A    between atoms: N_10  and  C_11 
REMARK    5  A    between atoms: C_11  and  C_12 
REMARK       I    between atoms: C_12  and  N_14 
ROOT
HETATM    1  N   UNL     1     -42.405 -49.982  11.693  1.00  0.00     0.098 N 
HETATM    2  H   UNL     1     -41.853 -50.679  11.187  1.00  0.00     0.317 HD
ENDROOT
BRANCH   1   3
HETATM    3  C   UNL     1     -41.614 -48.748  11.915  1.00  0.00     0.236 C 
HETATM    4  C   UNL     1     -40.234 -49.167  12.435  1.00  0.00     0.044 C 
BRANCH   3   5
HETATM    5  C   UNL     1     -41.495 -47.914  10.621  1.00  0.00     0.183 C 
BRANCH   5   6
HETATM    6  N   UNL     1     -42.730 -47.782   9.876  1.00  0.00    -0.302 N 
HETATM    7  C   UNL     1     -43.909 -47.282  10.346  1.00  0.00     0.111 A 
HETATM    8  C   UNL     1     -44.768 -47.269   9.272  1.00  0.00     0.037 A 
HETATM    9  C   UNL     1     -44.006 -47.766   8.200  1.00  0.00     0.108 A 
HETATM   10  N   UNL     1     -42.754 -48.064   8.559  1.00  0.00    -0.310 N 
ATOM     11  HN  UNL     1     -41.998 -48.421   7.975  1.00  0.00     0.186 HD
ENDBRANCH   5   6
ENDBRANCH   3   5
ENDBRANCH   1   3
BRANCH   1  12
HETATM   12  C   UNL     1     -42.842 -50.573  12.966  1.00  0.00     0.372 C 
BRANCH  12  13
HETATM   13  C   UNL     1     -42.924 -52.103  12.924  1.00  0.00     0.248 C 
HETATM   14  O   UNL     1     -41.925 -52.818  12.909  1.00  0.00    -0.271 OA
HETATM   15  N   UNL     1     -44.217 -52.622  12.909  1.00  0.00    -0.340 N 
HETATM   16  C   UNL     1     -45.454 -51.837  12.957  1.00  0.00     0.146 C 
HETATM   17  C   UNL     1     -44.409 -54.066  12.773  1.00  0.00     0.228 C 
HETATM   18  C   UNL     1     -46.341 -52.338  14.096  1.00  0.00     0.142 C 
HETATM   19  N   UNL     1     -46.510 -53.776  14.077  1.00  0.00    -0.358 N 
HETATM   20  C   UNL     1     -45.509 -54.633  13.684  1.00  0.00     0.235 C 
HETATM   21  H   UNL     1     -47.189 -54.203  14.698  1.00  0.00     0.162 HD
HETATM   22  O   UNL     1     -45.610 -55.829  13.936  1.00  0.00    -0.272 OA
ENDBRANCH  12  13
ENDBRANCH   1  12
TORSDOF 5
ENDMDL
MODEL 2
REMARK VINA RESULT:      -5.7      2.630      3.315
REMARK  5 active torsions:
REMARK  status: ('A' for Active; 'I' for Inactive)
REMARK    1  A    between atoms: C_2  and  C_3 
REMARK    2  A    between atoms: C_2  and  N_10 
REMARK    3  A    between atoms: C_3  and  N_4 
REMARK    4  A    between atoms: N_10  and  C_11 
REMARK    5  A    between atoms: C_11  and  C_12 
REMARK       I    between atoms: C_12  and  N_14 
ROOT
HETATM    1  N   UNL     1     -42.499 -48.557  10.440  1.00  0.00     0.098 N 
HETATM    2  H   UNL     1     -41.824 -48.858   9.732  1.00  0.00     0.317 HD
ENDROOT
BRANCH   1   3
HETATM    3  C   UNL     1     -42.749 -47.100  10.338  1.00  0.00     0.236 C 
HETATM    4  C   UNL     1     -41.398 -46.387  10.459  1.00  0.00     0.044 C 
BRANCH   3   5
HETATM    5  C   UNL     1     -43.456 -46.740   9.014  1.00  0.00     0.183 C 
BRANCH   5   6
HETATM    6  N   UNL     1     -44.708 -47.434   8.794  1.00  0.00    -0.302 N 
HETATM    7  C   UNL     1     -45.868 -47.253   9.489  1.00  0.00     0.111 A 
HETATM    8  C   UNL     1     -46.803 -48.055   8.878  1.00  0.00     0.037 A 
HETATM    9  C   UNL     1     -46.112 -48.664   7.817  1.00  0.00     0.108 A 
HETATM   10  N   UNL     1     -44.836 -48.276   7.750  1.00  0.00    -0.310 N 
ATOM     11  HN  UNL     1     -44.128 -48.550   7.069  1.00  0.00     0.186 HD
ENDBRANCH   5   6
ENDBRANCH   3   5
ENDBRANCH   1   3
BRANCH   1  12
HETATM   12  C   UNL     1     -41.975 -48.919  11.764  1.00  0.00     0.372 C 
BRANCH  12  13
HETATM   13  C   UNL     1     -41.027 -50.124  11.730  1.00  0.00     0.248 C 
HETATM   14  O   UNL     1     -39.892 -50.058  11.263  1.00  0.00    -0.271 OA
HETATM   15  N   UNL     1     -41.548 -51.296  12.272  1.00  0.00    -0.340 N 
HETATM   16  C   UNL     1     -42.876 -51.444  12.874  1.00  0.00     0.146 C 
HETATM   17  C   UNL     1     -40.762 -52.529  12.202  1.00  0.00     0.228 C 
HETATM   18  C   UNL     1     -42.746 -52.038  14.276  1.00  0.00     0.142 C 
HETATM   19  N   UNL     1     -41.910 -53.220  14.302  1.00  0.00    -0.358 N 
HETATM   20  C   UNL     1     -40.808 -53.364  13.491  1.00  0.00     0.235 C 
HETATM   21  H   UNL     1     -41.866 -53.777  15.148  1.00  0.00     0.162 HD
HETATM   22  O   UNL     1     -39.994 -54.249  13.736  1.00  0.00    -0.272 OA
ENDBRANCH  12  13
ENDBRANCH   1  12
TORSDOF 5
ENDMDL
MODEL 3
REMARK VINA RESULT:      -5.7      2.476      3.802
REMARK  5 active torsions:
REMARK  status: ('A' for Active; 'I' for Inactive)
REMARK    1  A    between atoms: C_2  and  C_3 
REMARK    2  A    between atoms: C_2  and  N_10 
REMARK    3  A    between atoms: C_3  and  N_4 
REMARK    4  A    between atoms: N_10  and  C_11 
REMARK    5  A    between atoms: C_11  and  C_12 
REMARK       I    between atoms: C_12  and  N_14 
ROOT
HETATM    1  N   UNL     1     -43.152 -53.044  11.855  1.00  0.00     0.098 N 
HETATM    2  H   UNL     1     -42.889 -53.596  11.034  1.00  0.00     0.317 HD
ENDROOT
BRANCH   1   3
HETATM    3  C   UNL     1     -41.969 -52.779  12.708  1.00  0.00     0.236 C 
HETATM    4  C   UNL     1     -41.456 -54.127  13.226  1.00  0.00     0.044 C 
BRANCH   3   5
HETATM    5  C   UNL     1     -40.870 -52.023  11.929  1.00  0.00     0.183 C 
BRANCH   5   6
HETATM    6  N   UNL     1     -41.180 -50.636  11.648  1.00  0.00    -0.302 N 
HETATM    7  C   UNL     1     -41.915 -49.796  12.432  1.00  0.00     0.111 A 
HETATM    8  C   UNL     1     -41.870 -48.568  11.814  1.00  0.00     0.037 A 
HETATM    9  C   UNL     1     -41.071 -48.771  10.676  1.00  0.00     0.108 A 
HETATM   10  N   UNL     1     -40.631 -50.028  10.579  1.00  0.00    -0.310 N 
ATOM     11  HN  UNL     1     -40.025 -50.431   9.865  1.00  0.00     0.186 HD
ENDBRANCH   5   6
ENDBRANCH   3   5
ENDBRANCH   1   3
BRANCH   1  12
HETATM   12  C   UNL     1     -44.189 -53.780  12.593  1.00  0.00     0.372 C 
BRANCH  12  13
HETATM   13  C   UNL     1     -45.411 -52.919  12.936  1.00  0.00     0.248 C 
HETATM   14  O   UNL     1     -46.269 -52.631  12.105  1.00  0.00    -0.271 OA
HETATM   15  N   UNL     1     -45.476 -52.494  14.260  1.00  0.00    -0.340 N 
HETATM   16  C   UNL     1     -44.510 -52.822  15.313  1.00  0.00     0.146 C 
HETATM   17  C   UNL     1     -46.550 -51.588  14.670  1.00  0.00     0.228 C 
HETATM   18  C   UNL     1     -45.239 -53.417  16.517  1.00  0.00     0.142 C 
HETATM   19  N   UNL     1     -46.371 -52.616  16.932  1.00  0.00    -0.358 N 
HETATM   20  C   UNL     1     -47.162 -51.935  16.037  1.00  0.00     0.235 C 
HETATM   21  H   UNL     1     -46.842 -52.838  17.802  1.00  0.00     0.162 HD
HETATM   22  O   UNL     1     -48.248 -51.497  16.406  1.00  0.00    -0.272 OA
ENDBRANCH  12  13
ENDBRANCH   1  12
TORSDOF 5
ENDMDL
MODEL 4
REMARK VINA RESULT:      -5.7      2.798      6.573
REMARK  5 active torsions:
REMARK  status: ('A' for Active; 'I' for Inactive)
REMARK    1  A    between atoms: C_2  and  C_3 
REMARK    2  A    between atoms: C_2  and  N_10 
REMARK    3  A    between atoms: C_3  and  N_4 
REMARK    4  A    between atoms: N_10  and  C_11 
REMARK    5  A    between atoms: C_11  and  C_12 
REMARK       I    between atoms: C_12  and  N_14 
ROOT
HETATM    1  N   UNL     1     -43.126 -52.992  13.677  1.00  0.00     0.098 N 
HETATM    2  H   UNL     1     -42.451 -52.795  14.421  1.00  0.00     0.317 HD
ENDROOT
BRANCH   1   3
HETATM    3  C   UNL     1     -43.527 -54.418  13.698  1.00  0.00     0.236 C 
HETATM    4  C   UNL     1     -43.009 -55.028  15.005  1.00  0.00     0.044 C 
BRANCH   3   5
HETATM    5  C   UNL     1     -45.058 -54.576  13.574  1.00  0.00     0.183 C 
BRANCH   5   6
HETATM    6  N   UNL     1     -45.796 -53.331  13.633  1.00  0.00    -0.302 N 
HETATM    7  C   UNL     1     -46.083 -52.613  14.757  1.00  0.00     0.111 A 
HETATM    8  C   UNL     1     -46.718 -51.472  14.324  1.00  0.00     0.037 A 
HETATM    9  C   UNL     1     -46.749 -51.591  12.925  1.00  0.00     0.108 A 
HETATM   10  N   UNL     1     -46.172 -52.717  12.495  1.00  0.00    -0.310 N 
ATOM     11  HN  UNL     1     -46.045 -53.035  11.534  1.00  0.00     0.186 HD
ENDBRANCH   5   6
ENDBRANCH   3   5
ENDBRANCH   1   3
BRANCH   1  12
HETATM   12  C   UNL     1     -42.516 -52.626  12.391  1.00  0.00     0.372 C 
BRANCH  12  13
HETATM   13  C   UNL     1     -40.991 -52.479  12.466  1.00  0.00     0.248 C 
HETATM   14  O   UNL     1     -40.238 -53.445  12.557  1.00  0.00    -0.271 OA
HETATM   15  N   UNL     1     -40.526 -51.167  12.419  1.00  0.00    -0.340 N 
HETATM   16  C   UNL     1     -41.357 -49.968  12.280  1.00  0.00     0.146 C 
HETATM   17  C   UNL     1     -39.094 -50.908  12.580  1.00  0.00     0.228 C 
HETATM   18  C   UNL     1     -40.862 -49.127  11.104  1.00  0.00     0.142 C 
HETATM   19  N   UNL     1     -39.433 -48.898  11.149  1.00  0.00    -0.358 N 
HETATM   20  C   UNL     1     -38.548 -49.839  11.620  1.00  0.00     0.235 C 
HETATM   21  H   UNL     1     -39.017 -48.239  10.501  1.00  0.00     0.162 HD
HETATM   22  O   UNL     1     -37.350 -49.704  11.393  1.00  0.00    -0.272 OA
ENDBRANCH  12  13
ENDBRANCH   1  12
TORSDOF 5
ENDMDL
MODEL 5
REMARK VINA RESULT:      -5.5      1.602      2.190
REMARK  5 active torsions:
REMARK  status: ('A' for Active; 'I' for Inactive)
REMARK    1  A    between atoms: C_2  and  C_3 
REMARK    2  A    between atoms: C_2  and  N_10 
REMARK    3  A    between atoms: C_3  and  N_4 
REMARK    4  A    between atoms: N_10  and  C_11 
REMARK    5  A    between atoms: C_11  and  C_12 
REMARK       I    between atoms: C_12  and  N_14 
ROOT
HETATM    1  N   UNL     1     -42.181 -50.237  11.667  1.00  0.00     0.098 N 
HETATM    2  H   UNL     1     -41.747 -50.974  11.104  1.00  0.00     0.317 HD
ENDROOT
BRANCH   1   3
HETATM    3  C   UNL     1     -41.279 -49.067  11.781  1.00  0.00     0.236 C 
HETATM    4  C   UNL     1     -39.838 -49.589  11.796  1.00  0.00     0.044 C 
BRANCH   3   5
HETATM    5  C   UNL     1     -41.501 -48.068  10.625  1.00  0.00     0.183 C 
BRANCH   5   6
HETATM    6  N   UNL     1     -41.057 -46.718  10.905  1.00  0.00    -0.302 N 
HETATM    7  C   UNL     1     -41.579 -45.872  11.839  1.00  0.00     0.111 A 
HETATM    8  C   UNL     1     -40.792 -44.745  11.809  1.00  0.00     0.037 A 
HETATM    9  C   UNL     1     -39.816 -45.017  10.835  1.00  0.00     0.108 A 
HETATM   10  N   UNL     1     -39.962 -46.229  10.291  1.00  0.00    -0.310 N 
ATOM     11  HN  UNL     1     -39.383 -46.677   9.582  1.00  0.00     0.186 HD
ENDBRANCH   5   6
ENDBRANCH   3   5
ENDBRANCH   1   3
BRANCH   1  12
HETATM   12  C   UNL     1     -42.505 -50.795  12.987  1.00  0.00     0.372 C 
BRANCH  12  13
HETATM   13  C   UNL     1     -42.712 -52.314  12.967  1.00  0.00     0.248 C 
HETATM   14  O   UNL     1     -41.776 -53.109  12.997  1.00  0.00    -0.271 OA
HETATM   15  N   UNL     1     -44.043 -52.724  12.917  1.00  0.00    -0.340 N 
HETATM   16  C   UNL     1     -45.211 -51.839  12.910  1.00  0.00     0.146 C 
HETATM   17  C   UNL     1     -44.349 -54.150  12.797  1.00  0.00     0.228 C 
HETATM   18  C   UNL     1     -46.173 -52.243  14.027  1.00  0.00     0.142 C 
HETATM   19  N   UNL     1     -46.461 -53.662  14.025  1.00  0.00    -0.358 N 
HETATM   20  C   UNL     1     -45.521 -54.606  13.680  1.00  0.00     0.235 C 
HETATM   21  H   UNL     1     -47.192 -54.020  14.629  1.00  0.00     0.162 HD
HETATM   22  O   UNL     1     -45.729 -55.785  13.948  1.00  0.00    -0.272 OA
ENDBRANCH  12  13
ENDBRANCH   1  12
TORSDOF 5
ENDMDL
MODEL 6
REMARK VINA RESULT:      -5.4      2.867      6.634
REMARK  5 active torsions:
REMARK  status: ('A' for Active; 'I' for Inactive)
REMARK    1  A    between atoms: C_2  and  C_3 
REMARK    2  A    between atoms: C_2  and  N_10 
REMARK    3  A    between atoms: C_3  and  N_4 
REMARK    4  A    between atoms: N_10  and  C_11 
REMARK    5  A    between atoms: C_11  and  C_12 
REMARK       I    between atoms: C_12  and  N_14 
ROOT
HETATM    1  N   UNL     1     -41.944 -50.810  11.809  1.00  0.00     0.098 N 
HETATM    2  H   UNL     1     -42.670 -50.474  11.169  1.00  0.00     0.317 HD
ENDROOT
BRANCH   1   3
HETATM    3  C   UNL     1     -42.217 -52.207  12.221  1.00  0.00     0.236 C 
HETATM    4  C   UNL     1     -40.868 -52.917  12.381  1.00  0.00     0.044 C 
BRANCH   3   5
HETATM    5  C   UNL     1     -43.037 -52.261  13.528  1.00  0.00     0.183 C 
BRANCH   5   6
HETATM    6  N   UNL     1     -44.468 -52.134  13.345  1.00  0.00    -0.302 N 
HETATM    7  C   UNL     1     -45.327 -51.431  14.138  1.00  0.00     0.111 A 
HETATM    8  C   UNL     1     -46.559 -51.521  13.534  1.00  0.00     0.037 A 
HETATM    9  C   UNL     1     -46.333 -52.284  12.376  1.00  0.00     0.108 A 
HETATM   10  N   UNL     1     -45.054 -52.647  12.246  1.00  0.00    -0.310 N 
ATOM     11  HN  UNL     1     -44.623 -53.184  11.493  1.00  0.00     0.186 HD
ENDBRANCH   5   6
ENDBRANCH   3   5
ENDBRANCH   1   3
BRANCH   1  12
HETATM   12  C   UNL     1     -41.899 -49.909  12.969  1.00  0.00     0.372 C 
BRANCH  12  13
HETATM   13  C   UNL     1     -41.030 -48.668  12.736  1.00  0.00     0.248 C 
HETATM   14  O   UNL     1     -39.881 -48.577  13.162  1.00  0.00    -0.271 OA
HETATM   15  N   UNL     1     -41.640 -47.654  12.002  1.00  0.00    -0.340 N 
HETATM   16  C   UNL     1     -42.991 -47.701  11.435  1.00  0.00     0.146 C 
HETATM   17  C   UNL     1     -40.933 -46.387  11.804  1.00  0.00     0.228 C 
HETATM   18  C   UNL     1     -42.938 -47.382   9.942  1.00  0.00     0.142 C 
HETATM   19  N   UNL     1     -42.181 -46.181   9.658  1.00  0.00    -0.358 N 
HETATM   20  C   UNL     1     -41.068 -45.820  10.382  1.00  0.00     0.235 C 
HETATM   21  H   UNL     1     -42.196 -45.795   8.720  1.00  0.00     0.162 HD
HETATM   22  O   UNL     1     -40.320 -44.953   9.941  1.00  0.00    -0.272 OA
ENDBRANCH  12  13
ENDBRANCH   1  12
TORSDOF 5
ENDMDL
MODEL 7
REMARK VINA RESULT:      -5.4      3.380      5.620
REMARK  5 active torsions:
REMARK  status: ('A' for Active; 'I' for Inactive)
REMARK    1  A    between atoms: C_2  and  C_3 
REMARK    2  A    between atoms: C_2  and  N_10 
REMARK    3  A    between atoms: C_3  and  N_4 
REMARK    4  A    between atoms: N_10  and  C_11 
REMARK    5  A    between atoms: C_11  and  C_12 
REMARK       I    between atoms: C_12  and  N_14 
ROOT
HETATM    1  N   UNL     1     -46.566 -53.865  13.941  1.00  0.00     0.098 N 
HETATM    2  H   UNL     1     -46.403 -53.381  13.053  1.00  0.00     0.317 HD
ENDROOT
BRANCH   1   3
HETATM    3  C   UNL     1     -46.957 -52.901  14.997  1.00  0.00     0.236 C 
HETATM    4  C   UNL     1     -46.104 -53.196  16.236  1.00  0.00     0.044 C 
BRANCH   3   5
HETATM    5  C   UNL     1     -46.775 -51.442  14.525  1.00  0.00     0.183 C 
BRANCH   5   6
HETATM    6  N   UNL     1     -45.402 -51.063  14.264  1.00  0.00    -0.302 N 
HETATM    7  C   UNL     1     -44.431 -50.843  15.197  1.00  0.00     0.111 A 
HETATM    8  C   UNL     1     -43.278 -50.596  14.490  1.00  0.00     0.037 A 
HETATM    9  C   UNL     1     -43.656 -50.706  13.141  1.00  0.00     0.108 A 
HETATM   10  N   UNL     1     -44.949 -51.008  12.997  1.00  0.00    -0.310 N 
ATOM     11  HN  UNL     1     -45.469 -51.162  12.133  1.00  0.00     0.186 HD
ENDBRANCH   5   6
ENDBRANCH   3   5
ENDBRANCH   1   3
BRANCH   1  12
HETATM   12  C   UNL     1     -45.340 -54.589  14.305  1.00  0.00     0.372 C 
BRANCH  12  13
HETATM   13  C   UNL     1     -44.163 -54.292  13.368  1.00  0.00     0.248 C 
HETATM   14  O   UNL     1     -44.318 -54.002  12.184  1.00  0.00    -0.271 OA
HETATM   15  N   UNL     1     -42.905 -54.373  13.962  1.00  0.00    -0.340 N 
HETATM   16  C   UNL     1     -42.642 -54.681  15.370  1.00  0.00     0.146 C 
HETATM   17  C   UNL     1     -41.710 -54.203  13.135  1.00  0.00     0.228 C 
HETATM   18  C   UNL     1     -41.757 -53.596  15.981  1.00  0.00     0.142 C 
HETATM   19  N   UNL     1     -40.590 -53.311  15.173  1.00  0.00    -0.358 N 
HETATM   20  C   UNL     1     -40.615 -53.352  13.798  1.00  0.00     0.235 C 
HETATM   21  H   UNL     1     -39.862 -52.712  15.547  1.00  0.00     0.162 HD
HETATM   22  O   UNL     1     -39.691 -52.852  13.166  1.00  0.00    -0.272 OA
ENDBRANCH  12  13
ENDBRANCH   1  12
TORSDOF 5
ENDMDL
MODEL 8
REMARK VINA RESULT:      -5.3      2.517      6.600
REMARK  5 active torsions:
REMARK  status: ('A' for Active; 'I' for Inactive)
REMARK    1  A    between atoms: C_2  and  C_3 
REMARK    2  A    between atoms: C_2  and  N_10 
REMARK    3  A    between atoms: C_3  and  N_4 
REMARK    4  A    between atoms: N_10  and  C_11 
REMARK    5  A    between atoms: C_11  and  C_12 
REMARK       I    between atoms: C_12  and  N_14 
ROOT
HETATM    1  N   UNL     1     -42.805 -52.421  14.063  1.00  0.00     0.098 N 
HETATM    2  H   UNL     1     -42.557 -52.380  15.055  1.00  0.00     0.317 HD
ENDROOT
BRANCH   1   3
HETATM    3  C   UNL     1     -42.870 -53.827  13.598  1.00  0.00     0.236 C 
HETATM    4  C   UNL     1     -42.718 -54.731  14.826  1.00  0.00     0.044 C 
BRANCH   3   5
HETATM    5  C   UNL     1     -44.190 -54.113  12.850  1.00  0.00     0.183 C 
BRANCH   5   6
HETATM    6  N   UNL     1     -45.240 -53.146  13.094  1.00  0.00    -0.302 N 
HETATM    7  C   UNL     1     -45.902 -52.949  14.271  1.00  0.00     0.111 A 
HETATM    8  C   UNL     1     -46.740 -51.880  14.058  1.00  0.00     0.037 A 
HETATM    9  C   UNL     1     -46.497 -51.496  12.729  1.00  0.00     0.108 A 
HETATM   10  N   UNL     1     -45.569 -52.255  12.140  1.00  0.00    -0.310 N 
ATOM     11  HN  UNL     1     -45.197 -52.177  11.193  1.00  0.00     0.186 HD
ENDBRANCH   5   6
ENDBRANCH   3   5
ENDBRANCH   1   3
BRANCH   1  12
HETATM   12  C   UNL     1     -41.808 -51.652  13.305  1.00  0.00     0.372 C 
BRANCH  12  13
HETATM   13  C   UNL     1     -42.379 -50.374  12.679  1.00  0.00     0.248 C 
HETATM   14  O   UNL     1     -43.515 -49.973  12.918  1.00  0.00    -0.271 OA
HETATM   15  N   UNL     1     -41.511 -49.701  11.823  1.00  0.00    -0.340 N 
HETATM   16  C   UNL     1     -40.135 -50.099  11.514  1.00  0.00     0.146 C 
HETATM   17  C   UNL     1     -41.988 -48.523  11.099  1.00  0.00     0.228 C 
HETATM   18  C   UNL     1     -39.186 -48.929  11.773  1.00  0.00     0.142 C 
HETATM   19  N   UNL     1     -39.638 -47.701  11.154  1.00  0.00    -0.358 N 
HETATM   20  C   UNL     1     -40.970 -47.373  11.047  1.00  0.00     0.235 C 
HETATM   21  H   UNL     1     -39.021 -46.897  11.141  1.00  0.00     0.162 HD
HETATM   22  O   UNL     1     -41.284 -46.222  10.762  1.00  0.00    -0.272 OA
ENDBRANCH  12  13
ENDBRANCH   1  12
TORSDOF 5
ENDMDL
MODEL 9
REMARK VINA RESULT:      -5.3      3.578      4.262
REMARK  5 active torsions:
REMARK  status: ('A' for Active; 'I' for Inactive)
REMARK    1  A    between atoms: C_2  and  C_3 
REMARK    2  A    between atoms: C_2  and  N_10 
REMARK    3  A    between atoms: C_3  and  N_4 
REMARK    4  A    between atoms: N_10  and  C_11 
REMARK    5  A    between atoms: C_11  and  C_12 
REMARK       I    between atoms: C_12  and  N_14 
ROOT
HETATM    1  N   UNL     1     -40.732 -50.502  10.929  1.00  0.00     0.098 N 
HETATM    2  H   UNL     1     -39.724 -50.647  10.829  1.00  0.00     0.317 HD
ENDROOT
BRANCH   1   3
HETATM    3  C   UNL     1     -41.038 -49.065  11.124  1.00  0.00     0.236 C 
HETATM    4  C   UNL     1     -42.297 -48.970  11.993  1.00  0.00     0.044 C 
BRANCH   3   5
HETATM    5  C   UNL     1     -39.852 -48.319  11.772  1.00  0.00     0.183 C 
BRANCH   5   6
HETATM    6  N   UNL     1     -39.884 -46.880  11.604  1.00  0.00    -0.302 N 
HETATM    7  C   UNL     1     -39.798 -45.947  12.596  1.00  0.00     0.111 A 
HETATM    8  C   UNL     1     -39.783 -44.726  11.964  1.00  0.00     0.037 A 
HETATM    9  C   UNL     1     -39.848 -45.032  10.594  1.00  0.00     0.108 A 
HETATM   10  N   UNL     1     -39.892 -46.348  10.367  1.00  0.00    -0.310 N 
ATOM     11  HN  UNL     1     -39.924 -46.833   9.471  1.00  0.00     0.186 HD
ENDBRANCH   5   6
ENDBRANCH   3   5
ENDBRANCH   1   3
BRANCH   1  12
HETATM   12  C   UNL     1     -41.205 -51.308  12.063  1.00  0.00     0.372 C 
BRANCH  12  13
HETATM   13  C   UNL     1     -40.082 -52.087  12.760  1.00  0.00     0.248 C 
HETATM   14  O   UNL     1     -38.924 -51.678  12.804  1.00  0.00    -0.271 OA
HETATM   15  N   UNL     1     -40.476 -53.289  13.343  1.00  0.00    -0.340 N 
HETATM   16  C   UNL     1     -41.840 -53.825  13.360  1.00  0.00     0.146 C 
HETATM   17  C   UNL     1     -39.466 -54.156  13.951  1.00  0.00     0.228 C 
HETATM   18  C   UNL     1     -42.251 -54.149  14.796  1.00  0.00     0.142 C 
HETATM   19  N   UNL     1     -41.258 -54.939  15.493  1.00  0.00    -0.358 N 
HETATM   20  C   UNL     1     -39.907 -54.780  15.283  1.00  0.00     0.235 C 
HETATM   21  H   UNL     1     -41.484 -55.331  16.400  1.00  0.00     0.162 HD
HETATM   22  O   UNL     1     -39.114 -55.276  16.078  1.00  0.00    -0.272 OA
ENDBRANCH  12  13
ENDBRANCH   1  12
TORSDOF 5
ENDMDL
