MODEL 1
REMARK VINA RESULT:      -6.3      0.000      0.000
REMARK  5 active torsions:
REMARK  status: ('A' for Active; 'I' for Inactive)
REMARK    1  A    between atoms: O_2  and  C_3 
REMARK    2  A    between atoms: C_6  and  N_7 
REMARK       I    between atoms: N_7  and  C_8 
REMARK       I    between atoms: C_8  and  N_10 
REMARK    3  A    between atoms: N_10  and  C_11 
REMARK    4  A    between atoms: C_11  and  C_12 
REMARK    5  A    between atoms: C_12  and  N_15 
ROOT
HETATM    1  N   UNL     1     -42.342 -49.585  11.425  1.00  0.00    -0.308 N 
HETATM    2  C   UNL     1     -43.135 -49.846  12.513  1.00  0.00     0.320 C 
HETATM    3  O   UNL     1     -43.453 -49.029  13.372  1.00  0.00    -0.247 OA
HETATM    4  N   UNL     1     -43.566 -51.161  12.595  1.00  0.00    -0.340 N 
HETATM    5  H   UNL     1     -42.060 -50.365  10.850  1.00  0.00     0.170 HD
HETATM    6  H   UNL     1     -42.922 -51.859  12.258  1.00  0.00     0.164 HD
ENDROOT
BRANCH   1   7
HETATM    7  C   UNL     1     -41.777 -48.314  11.150  1.00  0.00     0.051 A 
HETATM    8  C   UNL     1     -40.596 -47.857  11.740  1.00  0.00     0.035 A 
HETATM    9  C   UNL     1     -40.057 -46.628  11.376  1.00  0.00     0.058 A 
HETATM   10  C   UNL     1     -40.744 -45.862  10.458  1.00  0.00     0.141 A 
HETATM   11  N   UNL     1     -41.913 -46.236   9.892  1.00  0.00    -0.345 N 
HETATM   12  C   UNL     1     -42.400 -47.449  10.258  1.00  0.00     0.119 A 
ATOM     13  HN  UNL     1     -42.404 -45.638   9.226  1.00  0.00     0.167 HD
BRANCH  10  14
HETATM   14  O   UNL     1     -40.146 -44.671  10.108  1.00  0.00    -0.341 OA
HETATM   15  C   UNL     1     -40.455 -43.623  11.015  1.00  0.00     0.211 C 
ENDBRANCH  10  14
ENDBRANCH   1   7
BRANCH   4  16
HETATM   16  C   UNL     1     -44.280 -51.429  13.831  1.00  0.00     0.165 C 
BRANCH  16  17
HETATM   17  C   UNL     1     -45.733 -51.945  13.813  1.00  0.00     0.168 C 
HETATM   18  C   UNL     1     -46.548 -51.207  14.904  1.00  0.00     0.050 C 
HETATM   19  C   UNL     1     -46.402 -51.584  12.467  1.00  0.00     0.050 C 
BRANCH  17  20
HETATM   20  N   UNL     1     -45.808 -53.425  14.051  1.00  0.00     0.103 N 
HETATM   21  C   UNL     1     -46.054 -53.878  15.444  1.00  0.00     0.299 C 
HETATM   22  C   UNL     1     -44.800 -54.117  16.314  1.00  0.00     0.198 C 
HETATM   23  O   UNL     1     -43.880 -55.007  15.675  1.00  0.00    -0.388 OA
HETATM   24  C   UNL     1     -43.499 -54.503  14.392  1.00  0.00     0.198 C 
HETATM   25  C   UNL     1     -44.729 -54.275  13.491  1.00  0.00     0.299 C 
ENDBRANCH  17  20
ENDBRANCH  16  17
ENDBRANCH   4  16
TORSDOF 5
ENDMDL
MODEL 2
REMARK VINA RESULT:      -6.1      0.980      1.258
REMARK  5 active torsions:
REMARK  status: ('A' for Active; 'I' for Inactive)
REMARK    1  A    between atoms: O_2  and  C_3 
REMARK    2  A    between atoms: C_6  and  N_7 
REMARK       I    between atoms: N_7  and  C_8 
REMARK       I    between atoms: C_8  and  N_10 
REMARK    3  A    between atoms: N_10  and  C_11 
REMARK    4  A    between atoms: C_11  and  C_12 
REMARK    5  A    between atoms: C_12  and  N_15 
ROOT
HETATM    1  N   UNL     1     -42.246 -49.975  11.694  1.00  0.00    -0.308 N 
HETATM    2  C   UNL     1     -43.104 -50.203  12.739  1.00  0.00     0.320 C 
HETATM    3  O   UNL     1     -43.406 -49.383  13.602  1.00  0.00    -0.247 OA
HETATM    4  N   UNL     1     -43.627 -51.487  12.771  1.00  0.00    -0.340 N 
HETATM    5  H   UNL     1     -41.992 -50.760  11.113  1.00  0.00     0.170 HD
HETATM    6  H   UNL     1     -43.017 -52.221  12.446  1.00  0.00     0.164 HD
ENDROOT
BRANCH   1   7
HETATM    7  C   UNL     1     -41.585 -48.741  11.473  1.00  0.00     0.051 A 
HETATM    8  C   UNL     1     -42.121 -47.713  10.693  1.00  0.00     0.035 A 
HETATM    9  C   UNL     1     -41.454 -46.499  10.573  1.00  0.00     0.058 A 
HETATM   10  C   UNL     1     -40.236 -46.360  11.203  1.00  0.00     0.141 A 
HETATM   11  N   UNL     1     -39.649 -47.338  11.930  1.00  0.00    -0.345 N 
HETATM   12  C   UNL     1     -40.338 -48.503  12.040  1.00  0.00     0.119 A 
ATOM     13  HN  UNL     1     -38.739 -47.207  12.372  1.00  0.00     0.167 HD
BRANCH  10  14
HETATM   14  O   UNL     1     -39.636 -45.126  11.079  1.00  0.00    -0.341 OA
HETATM   15  C   UNL     1     -39.307 -44.816   9.732  1.00  0.00     0.211 C 
ENDBRANCH  10  14
ENDBRANCH   1   7
BRANCH   4  16
HETATM   16  C   UNL     1     -44.413 -51.730  13.967  1.00  0.00     0.165 C 
BRANCH  16  17
HETATM   17  C   UNL     1     -45.851 -52.279  13.875  1.00  0.00     0.168 C 
HETATM   18  C   UNL     1     -46.795 -51.374  14.703  1.00  0.00     0.050 C 
HETATM   19  C   UNL     1     -46.353 -52.193  12.415  1.00  0.00     0.050 C 
BRANCH  17  20
HETATM   20  N   UNL     1     -45.948 -53.691  14.375  1.00  0.00     0.103 N 
HETATM   21  C   UNL     1     -45.998 -53.888  15.847  1.00  0.00     0.299 C 
HETATM   22  C   UNL     1     -44.637 -54.061  16.556  1.00  0.00     0.198 C 
HETATM   23  O   UNL     1     -43.861 -55.103  15.958  1.00  0.00    -0.388 OA
HETATM   24  C   UNL     1     -43.660 -54.845  14.566  1.00  0.00     0.198 C 
HETATM   25  C   UNL     1     -45.002 -54.691  13.824  1.00  0.00     0.299 C 
ENDBRANCH  17  20
ENDBRANCH  16  17
ENDBRANCH   4  16
TORSDOF 5
ENDMDL
MODEL 3
REMARK VINA RESULT:      -6.1      1.548      2.394
REMARK  5 active torsions:
REMARK  status: ('A' for Active; 'I' for Inactive)
REMARK    1  A    between atoms: O_2  and  C_3 
REMARK    2  A    between atoms: C_6  and  N_7 
REMARK       I    between atoms: N_7  and  C_8 
REMARK       I    between atoms: C_8  and  N_10 
REMARK    3  A    between atoms: N_10  and  C_11 
REMARK    4  A    between atoms: C_11  and  C_12 
REMARK    5  A    between atoms: C_12  and  N_15 
ROOT
HETATM    1  N   UNL     1     -42.048 -49.250  11.036  1.00  0.00    -0.308 N 
HETATM    2  C   UNL     1     -42.157 -49.965  12.201  1.00  0.00     0.320 C 
HETATM    3  O   UNL     1     -42.194 -49.483  13.329  1.00  0.00    -0.247 OA
HETATM    4  N   UNL     1     -42.213 -51.338  12.017  1.00  0.00    -0.340 N 
HETATM    5  H   UNL     1     -41.917 -49.764  10.178  1.00  0.00     0.170 HD
HETATM    6  H   UNL     1     -41.676 -51.703  11.246  1.00  0.00     0.164 HD
ENDROOT
BRANCH   1   7
HETATM    7  C   UNL     1     -41.961 -47.836  10.986  1.00  0.00     0.051 A 
HETATM    8  C   UNL     1     -40.752 -47.140  11.062  1.00  0.00     0.035 A 
HETATM    9  C   UNL     1     -40.727 -45.755  10.937  1.00  0.00     0.058 A 
HETATM   10  C   UNL     1     -41.928 -45.094  10.785  1.00  0.00     0.141 A 
HETATM   11  N   UNL     1     -43.129 -45.714  10.752  1.00  0.00    -0.345 N 
HETATM   12  C   UNL     1     -43.112 -47.068  10.859  1.00  0.00     0.119 A 
ATOM     13  HN  UNL     1     -44.001 -45.193  10.653  1.00  0.00     0.167 HD
BRANCH  10  14
HETATM   14  O   UNL     1     -41.841 -43.727  10.631  1.00  0.00    -0.341 OA
HETATM   15  C   UNL     1     -40.611 -43.205  11.111  1.00  0.00     0.211 C 
ENDBRANCH  10  14
ENDBRANCH   1   7
BRANCH   4  16
HETATM   16  C   UNL     1     -42.182 -52.062  13.276  1.00  0.00     0.165 C 
BRANCH  16  17
HETATM   17  C   UNL     1     -43.292 -53.070  13.640  1.00  0.00     0.168 C 
HETATM   18  C   UNL     1     -44.176 -53.324  12.395  1.00  0.00     0.050 C 
HETATM   19  C   UNL     1     -42.663 -54.436  14.000  1.00  0.00     0.050 C 
BRANCH  17  20
HETATM   20  N   UNL     1     -44.150 -52.579  14.769  1.00  0.00     0.103 N 
HETATM   21  C   UNL     1     -45.033 -53.572  15.432  1.00  0.00     0.299 C 
HETATM   22  C   UNL     1     -46.451 -53.725  14.836  1.00  0.00     0.198 C 
HETATM   23  O   UNL     1     -47.123 -52.466  14.748  1.00  0.00    -0.388 OA
HETATM   24  C   UNL     1     -46.361 -51.541  13.969  1.00  0.00     0.198 C 
HETATM   25  C   UNL     1     -44.947 -51.347  14.553  1.00  0.00     0.299 C 
ENDBRANCH  17  20
ENDBRANCH  16  17
ENDBRANCH   4  16
TORSDOF 5
ENDMDL
MODEL 4
REMARK VINA RESULT:      -6.0      2.367      8.402
REMARK  5 active torsions:
REMARK  status: ('A' for Active; 'I' for Inactive)
REMARK    1  A    between atoms: O_2  and  C_3 
REMARK    2  A    between atoms: C_6  and  N_7 
REMARK       I    between atoms: N_7  and  C_8 
REMARK       I    between atoms: C_8  and  N_10 
REMARK    3  A    between atoms: N_10  and  C_11 
REMARK    4  A    between atoms: C_11  and  C_12 
REMARK    5  A    between atoms: C_12  and  N_15 
ROOT
HETATM    1  N   UNL     1     -41.254 -51.532  11.397  1.00  0.00    -0.308 N 
HETATM    2  C   UNL     1     -41.142 -50.213  11.753  1.00  0.00     0.320 C 
HETATM    3  O   UNL     1     -41.336 -49.762  12.879  1.00  0.00    -0.247 OA
HETATM    4  N   UNL     1     -40.792 -49.373  10.707  1.00  0.00    -0.340 N 
HETATM    5  H   UNL     1     -41.177 -51.764  10.418  1.00  0.00     0.170 HD
HETATM    6  H   UNL     1     -41.150 -49.624   9.799  1.00  0.00     0.164 HD
ENDROOT
BRANCH   1   7
HETATM    7  C   UNL     1     -41.615 -52.563  12.300  1.00  0.00     0.051 A 
HETATM    8  C   UNL     1     -40.681 -53.312  13.021  1.00  0.00     0.035 A 
HETATM    9  C   UNL     1     -41.103 -54.262  13.944  1.00  0.00     0.058 A 
HETATM   10  C   UNL     1     -42.457 -54.473  14.089  1.00  0.00     0.141 A 
HETATM   11  N   UNL     1     -43.402 -53.811  13.384  1.00  0.00    -0.345 N 
HETATM   12  C   UNL     1     -42.953 -52.877  12.505  1.00  0.00     0.119 A 
ATOM     13  HN  UNL     1     -44.397 -54.001  13.505  1.00  0.00     0.167 HD
BRANCH  10  14
HETATM   14  O   UNL     1     -42.819 -55.401  15.042  1.00  0.00    -0.341 OA
HETATM   15  C   UNL     1     -42.109 -55.231  16.260  1.00  0.00     0.211 C 
ENDBRANCH  10  14
ENDBRANCH   1   7
BRANCH   4  16
HETATM   16  C   UNL     1     -40.825 -47.973  11.091  1.00  0.00     0.165 C 
BRANCH  16  17
HETATM   17  C   UNL     1     -42.015 -47.071  10.704  1.00  0.00     0.168 C 
HETATM   18  C   UNL     1     -42.756 -47.697   9.498  1.00  0.00     0.050 C 
HETATM   19  C   UNL     1     -43.043 -47.033  11.860  1.00  0.00     0.050 C 
BRANCH  17  20
HETATM   20  N   UNL     1     -41.576 -45.679  10.353  1.00  0.00     0.103 N 
HETATM   21  C   UNL     1     -40.127 -45.374  10.473  1.00  0.00     0.299 C 
HETATM   22  C   UNL     1     -39.656 -44.841  11.844  1.00  0.00     0.198 C 
HETATM   23  O   UNL     1     -40.422 -43.707  12.259  1.00  0.00    -0.388 OA
HETATM   24  C   UNL     1     -41.813 -44.030  12.311  1.00  0.00     0.198 C 
HETATM   25  C   UNL     1     -42.321 -44.544  10.948  1.00  0.00     0.299 C 
ENDBRANCH  17  20
ENDBRANCH  16  17
ENDBRANCH   4  16
TORSDOF 5
ENDMDL
MODEL 5
REMARK VINA RESULT:      -5.8      1.985      2.480
REMARK  5 active torsions:
REMARK  status: ('A' for Active; 'I' for Inactive)
REMARK    1  A    between atoms: O_2  and  C_3 
REMARK    2  A    between atoms: C_6  and  N_7 
REMARK       I    between atoms: N_7  and  C_8 
REMARK       I    between atoms: C_8  and  N_10 
REMARK    3  A    between atoms: N_10  and  C_11 
REMARK    4  A    between atoms: C_11  and  C_12 
REMARK    5  A    between atoms: C_12  and  N_15 
ROOT
HETATM    1  N   UNL     1     -41.784 -49.436  11.036  1.00  0.00    -0.308 N 
HETATM    2  C   UNL     1     -42.121 -49.980  12.248  1.00  0.00     0.320 C 
HETATM    3  O   UNL     1     -42.123 -49.382  13.320  1.00  0.00    -0.247 OA
HETATM    4  N   UNL     1     -42.466 -51.322  12.189  1.00  0.00    -0.340 N 
HETATM    5  H   UNL     1     -41.715 -50.057  10.243  1.00  0.00     0.170 HD
HETATM    6  H   UNL     1     -41.974 -51.875  11.504  1.00  0.00     0.164 HD
ENDROOT
BRANCH   1   7
HETATM    7  C   UNL     1     -41.385 -48.087  10.863  1.00  0.00     0.051 A 
HETATM    8  C   UNL     1     -40.206 -47.562  11.398  1.00  0.00     0.035 A 
HETATM    9  C   UNL     1     -39.837 -46.248  11.134  1.00  0.00     0.058 A 
HETATM   10  C   UNL     1     -40.687 -45.473  10.374  1.00  0.00     0.141 A 
HETATM   11  N   UNL     1     -41.862 -45.916   9.872  1.00  0.00    -0.345 N 
HETATM   12  C   UNL     1     -42.181 -47.210  10.135  1.00  0.00     0.119 A 
ATOM     13  HN  UNL     1     -42.475 -45.312   9.325  1.00  0.00     0.167 HD
BRANCH  10  14
HETATM   14  O   UNL     1     -40.255 -44.190  10.115  1.00  0.00    -0.341 OA
HETATM   15  C   UNL     1     -40.532 -43.299  11.185  1.00  0.00     0.211 C 
ENDBRANCH  10  14
ENDBRANCH   1   7
BRANCH   4  16
HETATM   16  C   UNL     1     -42.675 -51.895  13.507  1.00  0.00     0.165 C 
BRANCH  16  17
HETATM   17  C   UNL     1     -43.273 -53.307  13.674  1.00  0.00     0.168 C 
HETATM   18  C   UNL     1     -44.234 -53.311  14.888  1.00  0.00     0.050 C 
HETATM   19  C   UNL     1     -44.143 -53.657  12.444  1.00  0.00     0.050 C 
BRANCH  17  20
HETATM   20  N   UNL     1     -42.211 -54.348  13.874  1.00  0.00     0.103 N 
HETATM   21  C   UNL     1     -41.863 -54.702  15.274  1.00  0.00     0.299 C 
HETATM   22  C   UNL     1     -40.732 -53.873  15.924  1.00  0.00     0.198 C 
HETATM   23  O   UNL     1     -39.550 -53.875  15.119  1.00  0.00    -0.388 OA
HETATM   24  C   UNL     1     -39.832 -53.377  13.809  1.00  0.00     0.198 C 
HETATM   25  C   UNL     1     -40.941 -54.200  13.123  1.00  0.00     0.299 C 
ENDBRANCH  17  20
ENDBRANCH  16  17
ENDBRANCH   4  16
TORSDOF 5
ENDMDL
MODEL 6
REMARK VINA RESULT:      -5.7      1.690      2.823
REMARK  5 active torsions:
REMARK  status: ('A' for Active; 'I' for Inactive)
REMARK    1  A    between atoms: O_2  and  C_3 
REMARK    2  A    between atoms: C_6  and  N_7 
REMARK       I    between atoms: N_7  and  C_8 
REMARK       I    between atoms: C_8  and  N_10 
REMARK    3  A    between atoms: N_10  and  C_11 
REMARK    4  A    between atoms: C_11  and  C_12 
REMARK    5  A    between atoms: C_12  and  N_15 
ROOT
HETATM    1  N   UNL     1     -41.857 -49.294  11.012  1.00  0.00    -0.308 N 
HETATM    2  C   UNL     1     -42.265 -49.912  12.166  1.00  0.00     0.320 C 
HETATM    3  O   UNL     1     -42.596 -49.339  13.200  1.00  0.00    -0.247 OA
HETATM    4  N   UNL     1     -42.269 -51.297  12.094  1.00  0.00    -0.340 N 
HETATM    5  H   UNL     1     -41.506 -49.875  10.266  1.00  0.00     0.170 HD
HETATM    6  H   UNL     1     -41.549 -51.712  11.523  1.00  0.00     0.164 HD
ENDROOT
BRANCH   1   7
HETATM    7  C   UNL     1     -41.762 -47.888  10.865  1.00  0.00     0.051 A 
HETATM    8  C   UNL     1     -42.827 -47.088  10.445  1.00  0.00     0.035 A 
HETATM    9  C   UNL     1     -42.690 -45.705  10.387  1.00  0.00     0.058 A 
HETATM   10  C   UNL     1     -41.466 -45.159  10.709  1.00  0.00     0.141 A 
HETATM   11  N   UNL     1     -40.389 -45.889  11.076  1.00  0.00    -0.345 N 
HETATM   12  C   UNL     1     -40.566 -47.234  11.138  1.00  0.00     0.119 A 
ATOM     13  HN  UNL     1     -39.492 -45.454  11.294  1.00  0.00     0.167 HD
BRANCH  10  14
HETATM   14  O   UNL     1     -41.397 -43.783  10.668  1.00  0.00    -0.341 OA
HETATM   15  C   UNL     1     -42.590 -43.167  11.131  1.00  0.00     0.211 C 
ENDBRANCH  10  14
ENDBRANCH   1   7
BRANCH   4  16
HETATM   16  C   UNL     1     -42.567 -51.913  13.375  1.00  0.00     0.165 C 
BRANCH  16  17
HETATM   17  C   UNL     1     -42.015 -53.308  13.733  1.00  0.00     0.168 C 
HETATM   18  C   UNL     1     -40.924 -53.701  12.707  1.00  0.00     0.050 C 
HETATM   19  C   UNL     1     -41.305 -53.254  15.107  1.00  0.00     0.050 C 
BRANCH  17  20
HETATM   20  N   UNL     1     -43.090 -54.354  13.744  1.00  0.00     0.103 N 
HETATM   21  C   UNL     1     -44.263 -54.132  12.859  1.00  0.00     0.299 C 
HETATM   22  C   UNL     1     -45.446 -53.356  13.479  1.00  0.00     0.198 C 
HETATM   23  O   UNL     1     -45.876 -53.948  14.708  1.00  0.00    -0.388 OA
HETATM   24  C   UNL     1     -44.794 -54.019  15.639  1.00  0.00     0.198 C 
HETATM   25  C   UNL     1     -43.605 -54.810  15.058  1.00  0.00     0.299 C 
ENDBRANCH  17  20
ENDBRANCH  16  17
ENDBRANCH   4  16
TORSDOF 5
ENDMDL
MODEL 7
REMARK VINA RESULT:      -5.4      2.313      8.533
REMARK  5 active torsions:
REMARK  status: ('A' for Active; 'I' for Inactive)
REMARK    1  A    between atoms: O_2  and  C_3 
REMARK    2  A    between atoms: C_6  and  N_7 
REMARK       I    between atoms: N_7  and  C_8 
REMARK       I    between atoms: C_8  and  N_10 
REMARK    3  A    between atoms: N_10  and  C_11 
REMARK    4  A    between atoms: C_11  and  C_12 
REMARK    5  A    between atoms: C_12  and  N_15 
ROOT
HETATM    1  N   UNL     1     -41.468 -49.812  12.847  1.00  0.00    -0.308 N 
HETATM    2  C   UNL     1     -41.470 -48.799  11.923  1.00  0.00     0.320 C 
HETATM    3  O   UNL     1     -42.222 -48.722  10.956  1.00  0.00    -0.247 OA
HETATM    4  N   UNL     1     -40.512 -47.823  12.152  1.00  0.00    -0.340 N 
HETATM    5  H   UNL     1     -40.729 -49.820  13.534  1.00  0.00     0.170 HD
HETATM    6  H   UNL     1     -39.644 -48.141  12.553  1.00  0.00     0.164 HD
ENDROOT
BRANCH   1   7
HETATM    7  C   UNL     1     -42.350 -50.920  12.801  1.00  0.00     0.051 A 
HETATM    8  C   UNL     1     -43.625 -50.909  13.371  1.00  0.00     0.035 A 
HETATM    9  C   UNL     1     -44.469 -52.005  13.232  1.00  0.00     0.058 A 
HETATM   10  C   UNL     1     -43.994 -53.111  12.561  1.00  0.00     0.141 A 
HETATM   11  N   UNL     1     -42.752 -53.194  12.031  1.00  0.00    -0.345 N 
HETATM   12  C   UNL     1     -41.963 -52.097  12.171  1.00  0.00     0.119 A 
ATOM     13  HN  UNL     1     -42.426 -54.034  11.552  1.00  0.00     0.167 HD
BRANCH  10  14
HETATM   14  O   UNL     1     -44.884 -54.154  12.422  1.00  0.00    -0.341 OA
HETATM   15  C   UNL     1     -45.337 -54.649  13.674  1.00  0.00     0.211 C 
ENDBRANCH  10  14
ENDBRANCH   1   7
BRANCH   4  16
HETATM   16  C   UNL     1     -40.452 -46.849  11.076  1.00  0.00     0.165 C 
BRANCH  16  17
HETATM   17  C   UNL     1     -40.906 -45.392  11.298  1.00  0.00     0.168 C 
HETATM   18  C   UNL     1     -39.929 -44.438  10.566  1.00  0.00     0.050 C 
HETATM   19  C   UNL     1     -42.288 -45.167  10.642  1.00  0.00     0.050 C 
BRANCH  17  20
HETATM   20  N   UNL     1     -40.956 -45.033  12.754  1.00  0.00     0.103 N 
HETATM   21  C   UNL     1     -42.284 -44.682  13.322  1.00  0.00     0.299 C 
HETATM   22  C   UNL     1     -42.677 -43.189  13.261  1.00  0.00     0.198 C 
HETATM   23  O   UNL     1     -41.670 -42.357  13.844  1.00  0.00    -0.388 OA
HETATM   24  C   UNL     1     -40.412 -42.560  13.196  1.00  0.00     0.198 C 
HETATM   25  C   UNL     1     -39.979 -44.038  13.260  1.00  0.00     0.299 C 
ENDBRANCH  17  20
ENDBRANCH  16  17
ENDBRANCH   4  16
TORSDOF 5
ENDMDL
MODEL 8
REMARK VINA RESULT:      -5.3      3.248      3.908
REMARK  5 active torsions:
REMARK  status: ('A' for Active; 'I' for Inactive)
REMARK    1  A    between atoms: O_2  and  C_3 
REMARK    2  A    between atoms: C_6  and  N_7 
REMARK       I    between atoms: N_7  and  C_8 
REMARK       I    between atoms: C_8  and  N_10 
REMARK    3  A    between atoms: N_10  and  C_11 
REMARK    4  A    between atoms: C_11  and  C_12 
REMARK    5  A    between atoms: C_12  and  N_15 
ROOT
HETATM    1  N   UNL     1     -40.745 -49.380  10.790  1.00  0.00    -0.308 N 
HETATM    2  C   UNL     1     -41.302 -50.318  11.620  1.00  0.00     0.320 C 
HETATM    3  O   UNL     1     -42.290 -50.145  12.327  1.00  0.00    -0.247 OA
HETATM    4  N   UNL     1     -40.637 -51.535  11.622  1.00  0.00    -0.340 N 
HETATM    5  H   UNL     1     -39.869 -49.606  10.343  1.00  0.00     0.170 HD
HETATM    6  H   UNL     1     -39.637 -51.493  11.503  1.00  0.00     0.164 HD
ENDROOT
BRANCH   1   7
HETATM    7  C   UNL     1     -41.250 -48.064  10.640  1.00  0.00     0.051 A 
HETATM    8  C   UNL     1     -42.461 -47.775  10.008  1.00  0.00     0.035 A 
HETATM    9  C   UNL     1     -42.935 -46.469   9.955  1.00  0.00     0.058 A 
HETATM   10  C   UNL     1     -42.155 -45.471  10.500  1.00  0.00     0.141 A 
HETATM   11  N   UNL     1     -40.954 -45.689  11.081  1.00  0.00    -0.345 N 
HETATM   12  C   UNL     1     -40.532 -46.979  11.130  1.00  0.00     0.119 A 
ATOM     13  HN  UNL     1     -40.394 -44.925  11.463  1.00  0.00     0.167 HD
BRANCH  10  14
HETATM   14  O   UNL     1     -42.688 -44.201  10.451  1.00  0.00    -0.341 OA
HETATM   15  C   UNL     1     -42.572 -43.517  11.690  1.00  0.00     0.211 C 
ENDBRANCH  10  14
ENDBRANCH   1   7
BRANCH   4  16
HETATM   16  C   UNL     1     -41.169 -52.450  12.617  1.00  0.00     0.165 C 
BRANCH  16  17
HETATM   17  C   UNL     1     -40.396 -52.745  13.919  1.00  0.00     0.168 C 
HETATM   18  C   UNL     1     -38.937 -52.249  13.767  1.00  0.00     0.050 C 
HETATM   19  C   UNL     1     -41.001 -51.931  15.086  1.00  0.00     0.050 C 
BRANCH  17  20
HETATM   20  N   UNL     1     -40.393 -54.209  14.252  1.00  0.00     0.103 N 
HETATM   21  C   UNL     1     -41.498 -54.713  15.107  1.00  0.00     0.299 C 
HETATM   22  C   UNL     1     -41.246 -54.685  16.631  1.00  0.00     0.198 C 
HETATM   23  O   UNL     1     -40.029 -55.353  16.974  1.00  0.00    -0.388 OA
HETATM   24  C   UNL     1     -38.922 -54.770  16.284  1.00  0.00     0.198 C 
HETATM   25  C   UNL     1     -39.132 -54.805  14.757  1.00  0.00     0.299 C 
ENDBRANCH  17  20
ENDBRANCH  16  17
ENDBRANCH   4  16
TORSDOF 5
ENDMDL
MODEL 9
REMARK VINA RESULT:      -5.1      2.882      3.871
REMARK  5 active torsions:
REMARK  status: ('A' for Active; 'I' for Inactive)
REMARK    1  A    between atoms: O_2  and  C_3 
REMARK    2  A    between atoms: C_6  and  N_7 
REMARK       I    between atoms: N_7  and  C_8 
REMARK       I    between atoms: C_8  and  N_10 
REMARK    3  A    between atoms: N_10  and  C_11 
REMARK    4  A    between atoms: C_11  and  C_12 
REMARK    5  A    between atoms: C_12  and  N_15 
ROOT
HETATM    1  N   UNL     1     -41.186 -49.737  10.992  1.00  0.00    -0.308 N 
HETATM    2  C   UNL     1     -41.890 -50.412  11.955  1.00  0.00     0.320 C 
HETATM    3  O   UNL     1     -42.659 -49.901  12.764  1.00  0.00    -0.247 OA
HETATM    4  N   UNL     1     -41.658 -51.779  11.970  1.00  0.00    -0.340 N 
HETATM    5  H   UNL     1     -40.503 -50.252  10.458  1.00  0.00     0.170 HD
HETATM    6  H   UNL     1     -40.725 -52.072  11.724  1.00  0.00     0.164 HD
ENDROOT
BRANCH   1   7
HETATM    7  C   UNL     1     -41.258 -48.333  10.805  1.00  0.00     0.051 A 
HETATM    8  C   UNL     1     -42.291 -47.706  10.103  1.00  0.00     0.035 A 
HETATM    9  C   UNL     1     -42.341 -46.319  10.014  1.00  0.00     0.058 A 
HETATM   10  C   UNL     1     -41.323 -45.593  10.594  1.00  0.00     0.141 A 
HETATM   11  N   UNL     1     -40.276 -46.150  11.243  1.00  0.00    -0.345 N 
HETATM   12  C   UNL     1     -40.270 -47.506  11.325  1.00  0.00     0.119 A 
ATOM     13  HN  UNL     1     -39.530 -45.584  11.649  1.00  0.00     0.167 HD
BRANCH  10  14
HETATM   14  O   UNL     1     -41.441 -44.222  10.506  1.00  0.00    -0.341 OA
HETATM   15  C   UNL     1     -40.355 -43.544  11.120  1.00  0.00     0.211 C 
ENDBRANCH  10  14
ENDBRANCH   1   7
BRANCH   4  16
HETATM   16  C   UNL     1     -42.307 -52.435  13.091  1.00  0.00     0.165 C 
BRANCH  16  17
HETATM   17  C   UNL     1     -41.503 -53.314  14.071  1.00  0.00     0.168 C 
HETATM   18  C   UNL     1     -42.334 -54.572  14.425  1.00  0.00     0.050 C 
HETATM   19  C   UNL     1     -40.221 -53.834  13.379  1.00  0.00     0.050 C 
BRANCH  17  20
HETATM   20  N   UNL     1     -41.152 -52.578  15.330  1.00  0.00     0.103 N 
HETATM   21  C   UNL     1     -40.253 -51.402  15.201  1.00  0.00     0.299 C 
HETATM   22  C   UNL     1     -38.739 -51.687  15.317  1.00  0.00     0.198 C 
HETATM   23  O   UNL     1     -38.429 -52.399  16.518  1.00  0.00    -0.388 OA
HETATM   24  C   UNL     1     -39.165 -53.623  16.582  1.00  0.00     0.198 C 
HETATM   25  C   UNL     1     -40.683 -53.371  16.493  1.00  0.00     0.299 C 
ENDBRANCH  17  20
ENDBRANCH  16  17
ENDBRANCH   4  16
TORSDOF 5
ENDMDL
