MODEL 1
REMARK VINA RESULT:      -6.0      0.000      0.000
REMARK  5 active torsions:
REMARK  status: ('A' for Active; 'I' for Inactive)
REMARK    1  A    between atoms: N_6  and  C_7 
REMARK    2  A    between atoms: C_7  and  C_8 
REMARK       I    between atoms: C_8  and  N_10 
REMARK    3  A    between atoms: N_10  and  C_11 
REMARK    4  A    between atoms: C_11  and  C_12 
REMARK    5  A    between atoms: C_12  and  N_15 
ROOT
HETATM    1  C   UNL     1     -40.412 -50.147  11.813  1.00  0.00     0.237 C 
HETATM    2  O   UNL     1     -39.360 -50.737  12.050  1.00  0.00    -0.272 OA
HETATM    3  N   UNL     1     -41.637 -50.783  11.763  1.00  0.00    -0.357 N 
HETATM    4  H   UNL     1     -42.476 -50.211  11.723  1.00  0.00     0.162 HD
ENDROOT
BRANCH   3   5
HETATM    5  C   UNL     1     -41.786 -52.227  11.941  1.00  0.00     0.163 C 
BRANCH   5   6
HETATM    6  C   UNL     1     -42.479 -52.633  13.285  1.00  0.00     0.168 C 
HETATM    7  C   UNL     1     -42.304 -54.158  13.507  1.00  0.00     0.050 C 
HETATM    8  C   UNL     1     -41.776 -51.949  14.485  1.00  0.00     0.050 C 
BRANCH   6   9
HETATM    9  N   UNL     1     -43.917 -52.287  13.382  1.00  0.00     0.103 N 
HETATM   10  C   UNL     1     -44.864 -53.090  12.579  1.00  0.00     0.299 C 
HETATM   11  C   UNL     1     -46.201 -52.330  12.459  1.00  0.00     0.198 C 
HETATM   12  O   UNL     1     -46.763 -52.033  13.747  1.00  0.00    -0.388 OA
HETATM   13  C   UNL     1     -45.821 -51.302  14.545  1.00  0.00     0.198 C 
HETATM   14  C   UNL     1     -44.510 -52.093  14.716  1.00  0.00     0.299 C 
ENDBRANCH   6   9
ENDBRANCH   5   6
ENDBRANCH   3   5
BRANCH   1  15
HETATM   15  C   UNL     1     -40.438 -48.670  11.493  1.00  0.00     0.251 C 
BRANCH  15  16
HETATM   16  N   UNL     1     -41.701 -48.273  10.906  1.00  0.00    -0.288 N 
HETATM   17  C   UNL     1     -42.796 -47.744  11.531  1.00  0.00     0.027 A 
HETATM   18  C   UNL     1     -43.696 -47.456  10.525  1.00  0.00     0.052 A 
HETATM   19  C   UNL     1     -42.914 -47.559  13.000  1.00  0.00     0.070 C 
HETATM   20  C   UNL     1     -43.050 -47.832   9.328  1.00  0.00     0.024 A 
HETATM   21  C   UNL     1     -43.563 -47.719   7.944  1.00  0.00     0.070 C 
HETATM   22  N   UNL     1     -41.829 -48.326   9.561  1.00  0.00    -0.303 N 
ATOM     23  HN  UNL     1     -41.150 -48.666   8.880  1.00  0.00     0.186 HD
ENDBRANCH  15  16
ENDBRANCH   1  15
TORSDOF 5
ENDMDL
MODEL 2
REMARK VINA RESULT:      -6.0      1.773      2.055
REMARK  5 active torsions:
REMARK  status: ('A' for Active; 'I' for Inactive)
REMARK    1  A    between atoms: N_6  and  C_7 
REMARK    2  A    between atoms: C_7  and  C_8 
REMARK       I    between atoms: C_8  and  N_10 
REMARK    3  A    between atoms: N_10  and  C_11 
REMARK    4  A    between atoms: C_11  and  C_12 
REMARK    5  A    between atoms: C_12  and  N_15 
ROOT
HETATM    1  C   UNL     1     -41.599 -49.902  12.235  1.00  0.00     0.237 C 
HETATM    2  O   UNL     1     -42.746 -49.619  12.575  1.00  0.00    -0.272 OA
HETATM    3  N   UNL     1     -40.813 -50.809  12.919  1.00  0.00    -0.357 N 
HETATM    4  H   UNL     1     -39.943 -51.112  12.492  1.00  0.00     0.162 HD
ENDROOT
BRANCH   3   5
HETATM    5  C   UNL     1     -41.260 -51.478  14.141  1.00  0.00     0.163 C 
BRANCH   5   6
HETATM    6  C   UNL     1     -41.576 -52.999  13.952  1.00  0.00     0.168 C 
HETATM    7  C   UNL     1     -40.787 -53.534  12.729  1.00  0.00     0.050 C 
HETATM    8  C   UNL     1     -41.071 -53.814  15.170  1.00  0.00     0.050 C 
BRANCH   6   9
HETATM    9  N   UNL     1     -43.013 -53.328  13.788  1.00  0.00     0.103 N 
HETATM   10  C   UNL     1     -43.620 -53.078  12.463  1.00  0.00     0.299 C 
HETATM   11  C   UNL     1     -45.155 -53.051  12.604  1.00  0.00     0.198 C 
HETATM   12  O   UNL     1     -45.661 -54.273  13.164  1.00  0.00    -0.388 OA
HETATM   13  C   UNL     1     -45.029 -54.542  14.423  1.00  0.00     0.198 C 
HETATM   14  C   UNL     1     -43.500 -54.632  14.268  1.00  0.00     0.299 C 
ENDBRANCH   6   9
ENDBRANCH   5   6
ENDBRANCH   3   5
BRANCH   1  15
HETATM   15  C   UNL     1     -40.930 -49.225  11.060  1.00  0.00     0.251 C 
BRANCH  15  16
HETATM   16  N   UNL     1     -41.670 -48.061  10.622  1.00  0.00    -0.288 N 
HETATM   17  C   UNL     1     -41.291 -46.748  10.673  1.00  0.00     0.027 A 
HETATM   18  C   UNL     1     -42.303 -46.044  10.053  1.00  0.00     0.052 A 
HETATM   19  C   UNL     1     -40.033 -46.263  11.296  1.00  0.00     0.070 C 
HETATM   20  C   UNL     1     -43.240 -47.017   9.647  1.00  0.00     0.024 A 
HETATM   21  C   UNL     1     -44.511 -46.808   8.916  1.00  0.00     0.070 C 
HETATM   22  N   UNL     1     -42.851 -48.250   9.991  1.00  0.00    -0.303 N 
ATOM     23  HN  UNL     1     -43.334 -49.131   9.816  1.00  0.00     0.186 HD
ENDBRANCH  15  16
ENDBRANCH   1  15
TORSDOF 5
ENDMDL
MODEL 3
REMARK VINA RESULT:      -5.9      2.130      5.921
REMARK  5 active torsions:
REMARK  status: ('A' for Active; 'I' for Inactive)
REMARK    1  A    between atoms: N_6  and  C_7 
REMARK    2  A    between atoms: C_7  and  C_8 
REMARK       I    between atoms: C_8  and  N_10 
REMARK    3  A    between atoms: N_10  and  C_11 
REMARK    4  A    between atoms: C_11  and  C_12 
REMARK    5  A    between atoms: C_12  and  N_15 
ROOT
HETATM    1  C   UNL     1     -40.500 -52.224  12.276  1.00  0.00     0.237 C 
HETATM    2  O   UNL     1     -39.488 -52.030  12.948  1.00  0.00    -0.272 OA
HETATM    3  N   UNL     1     -41.025 -51.278  11.416  1.00  0.00    -0.357 N 
HETATM    4  H   UNL     1     -41.762 -51.562  10.778  1.00  0.00     0.162 HD
ENDROOT
BRANCH   3   5
HETATM    5  C   UNL     1     -40.450 -49.941  11.266  1.00  0.00     0.163 C 
BRANCH   5   6
HETATM    6  C   UNL     1     -41.179 -48.839  12.105  1.00  0.00     0.168 C 
HETATM    7  C   UNL     1     -42.514 -49.412  12.646  1.00  0.00     0.050 C 
HETATM    8  C   UNL     1     -40.342 -48.467  13.355  1.00  0.00     0.050 C 
BRANCH   6   9
HETATM    9  N   UNL     1     -41.448 -47.573  11.383  1.00  0.00     0.103 N 
HETATM   10  C   UNL     1     -40.297 -46.685  11.115  1.00  0.00     0.299 C 
HETATM   11  C   UNL     1     -40.811 -45.272  10.776  1.00  0.00     0.198 C 
HETATM   12  O   UNL     1     -41.705 -45.286   9.651  1.00  0.00    -0.388 OA
HETATM   13  C   UNL     1     -42.793 -46.190   9.891  1.00  0.00     0.198 C 
HETATM   14  C   UNL     1     -42.277 -47.615  10.166  1.00  0.00     0.299 C 
ENDBRANCH   6   9
ENDBRANCH   5   6
ENDBRANCH   3   5
BRANCH   1  15
HETATM   15  C   UNL     1     -41.292 -53.506  12.386  1.00  0.00     0.251 C 
BRANCH  15  16
HETATM   16  N   UNL     1     -42.605 -53.277  12.952  1.00  0.00    -0.288 N 
HETATM   17  C   UNL     1     -42.952 -53.171  14.271  1.00  0.00     0.027 A 
HETATM   18  C   UNL     1     -44.297 -52.865  14.279  1.00  0.00     0.052 A 
HETATM   19  C   UNL     1     -42.010 -53.369  15.403  1.00  0.00     0.070 C 
HETATM   20  C   UNL     1     -44.671 -52.792  12.920  1.00  0.00     0.024 A 
HETATM   21  C   UNL     1     -46.004 -52.474  12.359  1.00  0.00     0.070 C 
HETATM   22  N   UNL     1     -43.635 -53.039  12.110  1.00  0.00    -0.303 N 
ATOM     23  HN  UNL     1     -43.626 -53.046  11.090  1.00  0.00     0.186 HD
ENDBRANCH  15  16
ENDBRANCH   1  15
TORSDOF 5
ENDMDL
MODEL 4
REMARK VINA RESULT:      -5.9      3.059      6.474
REMARK  5 active torsions:
REMARK  status: ('A' for Active; 'I' for Inactive)
REMARK    1  A    between atoms: N_6  and  C_7 
REMARK    2  A    between atoms: C_7  and  C_8 
REMARK       I    between atoms: C_8  and  N_10 
REMARK    3  A    between atoms: N_10  and  C_11 
REMARK    4  A    between atoms: C_11  and  C_12 
REMARK    5  A    between atoms: C_12  and  N_15 
ROOT
HETATM    1  C   UNL     1     -41.547 -51.786  12.594  1.00  0.00     0.237 C 
HETATM    2  O   UNL     1     -42.191 -50.872  13.104  1.00  0.00    -0.272 OA
HETATM    3  N   UNL     1     -40.369 -51.582  11.902  1.00  0.00    -0.357 N 
HETATM    4  H   UNL     1     -39.811 -52.392  11.648  1.00  0.00     0.162 HD
ENDROOT
BRANCH   3   5
HETATM    5  C   UNL     1     -39.807 -50.250  11.672  1.00  0.00     0.163 C 
BRANCH   5   6
HETATM    6  C   UNL     1     -38.378 -50.052  12.279  1.00  0.00     0.168 C 
HETATM    7  C   UNL     1     -37.988 -51.316  13.088  1.00  0.00     0.050 C 
HETATM    8  C   UNL     1     -37.322 -49.930  11.150  1.00  0.00     0.050 C 
BRANCH   6   9
HETATM    9  N   UNL     1     -38.219 -48.854  13.138  1.00  0.00     0.103 N 
HETATM   10  C   UNL     1     -39.404 -47.991  13.325  1.00  0.00     0.299 C 
HETATM   11  C   UNL     1     -38.953 -46.614  13.852  1.00  0.00     0.198 C 
HETATM   12  O   UNL     1     -38.218 -46.728  15.081  1.00  0.00    -0.388 OA
HETATM   13  C   UNL     1     -37.100 -47.611  14.913  1.00  0.00     0.198 C 
HETATM   14  C   UNL     1     -37.561 -49.005  14.447  1.00  0.00     0.299 C 
ENDBRANCH   6   9
ENDBRANCH   5   6
ENDBRANCH   3   5
BRANCH   1  15
HETATM   15  C   UNL     1     -42.032 -53.217  12.633  1.00  0.00     0.251 C 
BRANCH  15  16
HETATM   16  N   UNL     1     -43.453 -53.292  12.899  1.00  0.00    -0.288 N 
HETATM   17  C   UNL     1     -44.097 -54.006  13.871  1.00  0.00     0.027 A 
HETATM   18  C   UNL     1     -45.430 -53.671  13.760  1.00  0.00     0.052 A 
HETATM   19  C   UNL     1     -43.422 -54.938  14.810  1.00  0.00     0.070 C 
HETATM   20  C   UNL     1     -45.493 -52.737  12.703  1.00  0.00     0.024 A 
HETATM   21  C   UNL     1     -46.687 -52.038  12.176  1.00  0.00     0.070 C 
HETATM   22  N   UNL     1     -44.284 -52.503  12.181  1.00  0.00    -0.303 N 
ATOM     23  HN  UNL     1     -44.044 -51.872  11.415  1.00  0.00     0.186 HD
ENDBRANCH  15  16
ENDBRANCH   1  15
TORSDOF 5
ENDMDL
MODEL 5
REMARK VINA RESULT:      -5.9      1.997      5.608
REMARK  5 active torsions:
REMARK  status: ('A' for Active; 'I' for Inactive)
REMARK    1  A    between atoms: N_6  and  C_7 
REMARK    2  A    between atoms: C_7  and  C_8 
REMARK       I    between atoms: C_8  and  N_10 
REMARK    3  A    between atoms: N_10  and  C_11 
REMARK    4  A    between atoms: C_11  and  C_12 
REMARK    5  A    between atoms: C_12  and  N_15 
ROOT
HETATM    1  C   UNL     1     -43.032 -53.349  12.658  1.00  0.00     0.237 C 
HETATM    2  O   UNL     1     -42.468 -53.945  13.574  1.00  0.00    -0.272 OA
HETATM    3  N   UNL     1     -42.371 -52.501  11.792  1.00  0.00    -0.357 N 
HETATM    4  H   UNL     1     -42.864 -52.172  10.967  1.00  0.00     0.162 HD
ENDROOT
BRANCH   3   5
HETATM    5  C   UNL     1     -40.946 -52.195  11.919  1.00  0.00     0.163 C 
BRANCH   5   6
HETATM    6  C   UNL     1     -40.651 -50.747  12.435  1.00  0.00     0.168 C 
HETATM    7  C   UNL     1     -40.769 -50.725  13.981  1.00  0.00     0.050 C 
HETATM    8  C   UNL     1     -39.188 -50.345  12.117  1.00  0.00     0.050 C 
BRANCH   6   9
HETATM    9  N   UNL     1     -41.516 -49.687  11.864  1.00  0.00     0.103 N 
HETATM   10  C   UNL     1     -42.395 -48.952  12.797  1.00  0.00     0.299 C 
HETATM   11  C   UNL     1     -43.501 -48.235  11.996  1.00  0.00     0.198 C 
HETATM   12  O   UNL     1     -42.954 -47.341  11.014  1.00  0.00    -0.388 OA
HETATM   13  C   UNL     1     -42.057 -48.045  10.144  1.00  0.00     0.198 C 
HETATM   14  C   UNL     1     -40.917 -48.706  10.942  1.00  0.00     0.299 C 
ENDBRANCH   6   9
ENDBRANCH   5   6
ENDBRANCH   3   5
BRANCH   1  15
HETATM   15  C   UNL     1     -44.525 -53.455  12.444  1.00  0.00     0.251 C 
BRANCH  15  16
HETATM   16  N   UNL     1     -45.257 -52.598  13.352  1.00  0.00    -0.288 N 
HETATM   17  C   UNL     1     -46.384 -51.864  13.101  1.00  0.00     0.027 A 
HETATM   18  C   UNL     1     -46.736 -51.297  14.308  1.00  0.00     0.052 A 
HETATM   19  C   UNL     1     -47.028 -51.749  11.767  1.00  0.00     0.070 C 
HETATM   20  C   UNL     1     -45.773 -51.758  15.231  1.00  0.00     0.024 A 
HETATM   21  C   UNL     1     -45.691 -51.468  16.681  1.00  0.00     0.070 C 
HETATM   22  N   UNL     1     -44.873 -52.557  14.647  1.00  0.00    -0.303 N 
ATOM     23  HN  UNL     1     -44.078 -53.027  15.080  1.00  0.00     0.186 HD
ENDBRANCH  15  16
ENDBRANCH   1  15
TORSDOF 5
ENDMDL
MODEL 6
REMARK VINA RESULT:      -5.8      2.492      3.376
REMARK  5 active torsions:
REMARK  status: ('A' for Active; 'I' for Inactive)
REMARK    1  A    between atoms: N_6  and  C_7 
REMARK    2  A    between atoms: C_7  and  C_8 
REMARK       I    between atoms: C_8  and  N_10 
REMARK    3  A    between atoms: N_10  and  C_11 
REMARK    4  A    between atoms: C_11  and  C_12 
REMARK    5  A    between atoms: C_12  and  N_15 
ROOT
HETATM    1  C   UNL     1     -42.170 -51.681  12.544  1.00  0.00     0.237 C 
HETATM    2  O   UNL     1     -41.241 -52.345  13.001  1.00  0.00    -0.272 OA
HETATM    3  N   UNL     1     -43.417 -52.213  12.283  1.00  0.00    -0.357 N 
HETATM    4  H   UNL     1     -44.177 -51.576  12.061  1.00  0.00     0.162 HD
ENDROOT
BRANCH   3   5
HETATM    5  C   UNL     1     -43.730 -53.629  12.479  1.00  0.00     0.163 C 
BRANCH   5   6
HETATM    6  C   UNL     1     -44.352 -53.953  13.879  1.00  0.00     0.168 C 
HETATM    7  C   UNL     1     -45.389 -55.095  13.723  1.00  0.00     0.050 C 
HETATM    8  C   UNL     1     -43.266 -54.495  14.842  1.00  0.00     0.050 C 
BRANCH   6   9
HETATM    9  N   UNL     1     -44.992 -52.804  14.564  1.00  0.00     0.103 N 
HETATM   10  C   UNL     1     -46.433 -52.913  14.873  1.00  0.00     0.299 C 
HETATM   11  C   UNL     1     -47.000 -51.509  15.160  1.00  0.00     0.198 C 
HETATM   12  O   UNL     1     -46.305 -50.864  16.240  1.00  0.00    -0.388 OA
HETATM   13  C   UNL     1     -44.899 -50.808  15.963  1.00  0.00     0.198 C 
HETATM   14  C   UNL     1     -44.323 -52.219  15.739  1.00  0.00     0.299 C 
ENDBRANCH   6   9
ENDBRANCH   5   6
ENDBRANCH   3   5
BRANCH   1  15
HETATM   15  C   UNL     1     -41.998 -50.226  12.174  1.00  0.00     0.251 C 
BRANCH  15  16
HETATM   16  N   UNL     1     -40.615 -49.809  12.273  1.00  0.00    -0.288 N 
HETATM   17  C   UNL     1     -40.023 -49.066  13.256  1.00  0.00     0.027 A 
HETATM   18  C   UNL     1     -38.682 -49.022  12.935  1.00  0.00     0.052 A 
HETATM   19  C   UNL     1     -40.752 -48.458  14.400  1.00  0.00     0.070 C 
HETATM   20  C   UNL     1     -38.558 -49.779  11.750  1.00  0.00     0.024 A 
HETATM   21  C   UNL     1     -37.326 -50.073  10.983  1.00  0.00     0.070 C 
HETATM   22  N   UNL     1     -39.739 -50.264  11.349  1.00  0.00    -0.303 N 
ATOM     23  HN  UNL     1     -39.933 -50.844  10.533  1.00  0.00     0.186 HD
ENDBRANCH  15  16
ENDBRANCH   1  15
TORSDOF 5
ENDMDL
MODEL 7
REMARK VINA RESULT:      -5.7      1.815      2.541
REMARK  5 active torsions:
REMARK  status: ('A' for Active; 'I' for Inactive)
REMARK    1  A    between atoms: N_6  and  C_7 
REMARK    2  A    between atoms: C_7  and  C_8 
REMARK       I    between atoms: C_8  and  N_10 
REMARK    3  A    between atoms: N_10  and  C_11 
REMARK    4  A    between atoms: C_11  and  C_12 
REMARK    5  A    between atoms: C_12  and  N_15 
ROOT
HETATM    1  C   UNL     1     -42.125 -49.830  12.167  1.00  0.00     0.237 C 
HETATM    2  O   UNL     1     -41.001 -49.889  11.671  1.00  0.00    -0.272 OA
HETATM    3  N   UNL     1     -42.863 -50.952  12.492  1.00  0.00    -0.357 N 
HETATM    4  H   UNL     1     -43.708 -50.830  13.043  1.00  0.00     0.162 HD
ENDROOT
BRANCH   3   5
HETATM    5  C   UNL     1     -42.393 -52.312  12.230  1.00  0.00     0.163 C 
BRANCH   5   6
HETATM    6  C   UNL     1     -42.193 -53.174  13.521  1.00  0.00     0.168 C 
HETATM    7  C   UNL     1     -41.150 -54.286  13.234  1.00  0.00     0.050 C 
HETATM    8  C   UNL     1     -41.590 -52.313  14.660  1.00  0.00     0.050 C 
BRANCH   6   9
HETATM    9  N   UNL     1     -43.427 -53.791  14.063  1.00  0.00     0.103 N 
HETATM   10  C   UNL     1     -44.058 -53.137  15.229  1.00  0.00     0.299 C 
HETATM   11  C   UNL     1     -45.026 -54.128  15.907  1.00  0.00     0.198 C 
HETATM   12  O   UNL     1     -46.030 -54.600  14.994  1.00  0.00    -0.388 OA
HETATM   13  C   UNL     1     -45.415 -55.185  13.837  1.00  0.00     0.198 C 
HETATM   14  C   UNL     1     -44.498 -54.172  13.126  1.00  0.00     0.299 C 
ENDBRANCH   6   9
ENDBRANCH   5   6
ENDBRANCH   3   5
BRANCH   1  15
HETATM   15  C   UNL     1     -42.818 -48.509  12.406  1.00  0.00     0.251 C 
BRANCH  15  16
HETATM   16  N   UNL     1     -42.428 -47.516  11.428  1.00  0.00    -0.288 N 
HETATM   17  C   UNL     1     -43.158 -47.025  10.381  1.00  0.00     0.027 A 
HETATM   18  C   UNL     1     -42.377 -46.042   9.809  1.00  0.00     0.052 A 
HETATM   19  C   UNL     1     -44.509 -47.513  10.001  1.00  0.00     0.070 C 
HETATM   20  C   UNL     1     -41.201 -46.002  10.587  1.00  0.00     0.024 A 
HETATM   21  C   UNL     1     -40.031 -45.109  10.422  1.00  0.00     0.070 C 
HETATM   22  N   UNL     1     -41.234 -46.899  11.579  1.00  0.00    -0.303 N 
ATOM     23  HN  UNL     1     -40.522 -47.077  12.287  1.00  0.00     0.186 HD
ENDBRANCH  15  16
ENDBRANCH   1  15
TORSDOF 5
ENDMDL
MODEL 8
REMARK VINA RESULT:      -5.6      2.439      6.685
REMARK  5 active torsions:
REMARK  status: ('A' for Active; 'I' for Inactive)
REMARK    1  A    between atoms: N_6  and  C_7 
REMARK    2  A    between atoms: C_7  and  C_8 
REMARK       I    between atoms: C_8  and  N_10 
REMARK    3  A    between atoms: N_10  and  C_11 
REMARK    4  A    between atoms: C_11  and  C_12 
REMARK    5  A    between atoms: C_12  and  N_15 
ROOT
HETATM    1  C   UNL     1     -42.479 -51.301  12.592  1.00  0.00     0.237 C 
HETATM    2  O   UNL     1     -42.996 -50.938  13.647  1.00  0.00    -0.272 OA
HETATM    3  N   UNL     1     -41.877 -50.426  11.708  1.00  0.00    -0.357 N 
HETATM    4  H   UNL     1     -41.334 -50.811  10.942  1.00  0.00     0.162 HD
ENDROOT
BRANCH   3   5
HETATM    5  C   UNL     1     -41.845 -48.979  11.926  1.00  0.00     0.163 C 
BRANCH   5   6
HETATM    6  C   UNL     1     -40.477 -48.451  12.476  1.00  0.00     0.168 C 
HETATM    7  C   UNL     1     -39.992 -47.276  11.589  1.00  0.00     0.050 C 
HETATM    8  C   UNL     1     -40.656 -47.861  13.898  1.00  0.00     0.050 C 
BRANCH   6   9
HETATM    9  N   UNL     1     -39.402 -49.468  12.571  1.00  0.00     0.103 N 
HETATM   10  C   UNL     1     -38.170 -49.229  11.790  1.00  0.00     0.299 C 
HETATM   11  C   UNL     1     -37.386 -50.550  11.658  1.00  0.00     0.198 C 
HETATM   12  O   UNL     1     -37.065 -51.109  12.942  1.00  0.00    -0.388 OA
HETATM   13  C   UNL     1     -38.257 -51.289  13.719  1.00  0.00     0.198 C 
HETATM   14  C   UNL     1     -39.004 -49.955  13.903  1.00  0.00     0.299 C 
ENDBRANCH   6   9
ENDBRANCH   5   6
ENDBRANCH   3   5
BRANCH   1  15
HETATM   15  C   UNL     1     -42.516 -52.744  12.146  1.00  0.00     0.251 C 
BRANCH  15  16
HETATM   16  N   UNL     1     -43.167 -53.589  13.124  1.00  0.00    -0.288 N 
HETATM   17  C   UNL     1     -42.599 -54.285  14.155  1.00  0.00     0.027 A 
HETATM   18  C   UNL     1     -43.649 -54.856  14.844  1.00  0.00     0.052 A 
HETATM   19  C   UNL     1     -41.137 -54.365  14.405  1.00  0.00     0.070 C 
HETATM   20  C   UNL     1     -44.812 -54.436  14.164  1.00  0.00     0.024 A 
HETATM   21  C   UNL     1     -46.222 -54.745  14.496  1.00  0.00     0.070 C 
HETATM   22  N   UNL     1     -44.518 -53.658  13.116  1.00  0.00    -0.303 N 
ATOM     23  HN  UNL     1     -45.164 -53.218  12.462  1.00  0.00     0.186 HD
ENDBRANCH  15  16
ENDBRANCH   1  15
TORSDOF 5
ENDMDL
MODEL 9
REMARK VINA RESULT:      -5.6      2.311      3.728
REMARK  5 active torsions:
REMARK  status: ('A' for Active; 'I' for Inactive)
REMARK    1  A    between atoms: N_6  and  C_7 
REMARK    2  A    between atoms: C_7  and  C_8 
REMARK       I    between atoms: C_8  and  N_10 
REMARK    3  A    between atoms: N_10  and  C_11 
REMARK    4  A    between atoms: C_11  and  C_12 
REMARK    5  A    between atoms: C_12  and  N_15 
ROOT
HETATM    1  C   UNL     1     -42.121 -49.235  11.860  1.00  0.00     0.237 C 
HETATM    2  O   UNL     1     -41.171 -49.315  11.083  1.00  0.00    -0.272 OA
HETATM    3  N   UNL     1     -42.638 -50.327  12.531  1.00  0.00    -0.357 N 
HETATM    4  H   UNL     1     -43.312 -50.162  13.273  1.00  0.00     0.162 HD
ENDROOT
BRANCH   3   5
HETATM    5  C   UNL     1     -42.132 -51.686  12.339  1.00  0.00     0.163 C 
BRANCH   5   6
HETATM    6  C   UNL     1     -42.600 -52.698  13.437  1.00  0.00     0.168 C 
HETATM    7  C   UNL     1     -43.370 -51.929  14.543  1.00  0.00     0.050 C 
HETATM    8  C   UNL     1     -43.612 -53.712  12.845  1.00  0.00     0.050 C 
BRANCH   6   9
HETATM    9  N   UNL     1     -41.517 -53.495  14.061  1.00  0.00     0.103 N 
HETATM   10  C   UNL     1     -41.914 -54.544  15.024  1.00  0.00     0.299 C 
HETATM   11  C   UNL     1     -40.691 -54.944  15.874  1.00  0.00     0.198 C 
HETATM   12  O   UNL     1     -39.600 -55.400  15.058  1.00  0.00    -0.388 OA
HETATM   13  C   UNL     1     -39.253 -54.402  14.088  1.00  0.00     0.198 C 
HETATM   14  C   UNL     1     -40.461 -54.052  13.198  1.00  0.00     0.299 C 
ENDBRANCH   6   9
ENDBRANCH   5   6
ENDBRANCH   3   5
BRANCH   1  15
HETATM   15  C   UNL     1     -42.844 -47.930  12.098  1.00  0.00     0.251 C 
BRANCH  15  16
HETATM   16  N   UNL     1     -43.505 -47.459  10.899  1.00  0.00    -0.288 N 
HETATM   17  C   UNL     1     -43.091 -46.487  10.030  1.00  0.00     0.027 A 
HETATM   18  C   UNL     1     -44.021 -46.479   9.010  1.00  0.00     0.052 A 
HETATM   19  C   UNL     1     -41.879 -45.651  10.224  1.00  0.00     0.070 C 
HETATM   20  C   UNL     1     -44.949 -47.488   9.344  1.00  0.00     0.024 A 
HETATM   21  C   UNL     1     -46.142 -47.916   8.578  1.00  0.00     0.070 C 
HETATM   22  N   UNL     1     -44.630 -48.090  10.496  1.00  0.00    -0.303 N 
ATOM     23  HN  UNL     1     -45.124 -48.851  10.962  1.00  0.00     0.186 HD
ENDBRANCH  15  16
ENDBRANCH   1  15
TORSDOF 5
ENDMDL
