MODEL 1
REMARK VINA RESULT:      -6.2      0.000      0.000
REMARK  2 active torsions:
REMARK  status: ('A' for Active; 'I' for Inactive)
REMARK    1  A    between atoms: C_6  and  N_7 
REMARK       I    between atoms: N_7  and  C_8 
REMARK       I    between atoms: C_8  and  N_10 
REMARK    2  A    between atoms: N_10  and  C_11 
ROOT
HETATM    1  N   UNL     1     -42.830 -53.071  12.591  1.00  0.00    -0.295 N 
HETATM    2  C   UNL     1     -41.759 -52.387  12.086  1.00  0.00     0.322 C 
HETATM    3  O   UNL     1     -40.714 -52.980  11.844  1.00  0.00    -0.247 OA
HETATM    4  N   UNL     1     -41.916 -51.047  11.924  1.00  0.00    -0.335 N 
HETATM    5  H   UNL     1     -42.638 -54.045  12.756  1.00  0.00     0.172 HD
HETATM    6  H   UNL     1     -42.812 -50.681  12.234  1.00  0.00     0.164 HD
ENDROOT
BRANCH   1   7
HETATM    7  C   UNL     1     -44.064 -52.553  12.996  1.00  0.00     0.109 A 
HETATM    8  C   UNL     1     -44.225 -52.143  14.310  1.00  0.00     0.049 A 
HETATM    9  C   UNL     1     -45.436 -51.553  14.676  1.00  0.00     0.006 A 
HETATM   10  C   UNL     1     -46.456 -51.427  13.736  1.00  0.00     0.025 A 
HETATM   11  C   UNL     1     -46.231 -51.892  12.450  1.00  0.00     0.007 A 
HETATM   12  C   UNL     1     -47.292 -51.869  11.395  1.00  0.00     0.068 C 
HETATM   13  N   UNL     1     -45.051 -52.430  12.079  1.00  0.00    -0.346 N 
ATOM     14  HN  UNL     1     -44.905 -52.741  11.119  1.00  0.00     0.167 HD
ENDBRANCH   1   7
BRANCH   4  15
HETATM   15  C   UNL     1     -40.856 -50.116  11.629  1.00  0.00     0.109 C 
HETATM   16  C   UNL     1     -40.100 -49.737  12.910  1.00  0.00     0.029 C 
HETATM   17  C   UNL     1     -39.229 -48.488  12.764  1.00  0.00     0.006 C 
HETATM   18  C   UNL     1     -39.859 -47.329  11.985  1.00  0.00     0.027 C 
HETATM   19  C   UNL     1     -41.062 -47.671  11.161  1.00  0.00    -0.029 C 
HETATM   20  C   UNL     1     -41.504 -48.923  10.988  1.00  0.00    -0.006 C 
ENDBRANCH   4  15
TORSDOF 2
ENDMDL
MODEL 2
REMARK VINA RESULT:      -6.0      1.939      5.769
REMARK  2 active torsions:
REMARK  status: ('A' for Active; 'I' for Inactive)
REMARK    1  A    between atoms: C_6  and  N_7 
REMARK       I    between atoms: N_7  and  C_8 
REMARK       I    between atoms: C_8  and  N_10 
REMARK    2  A    between atoms: N_10  and  C_11 
ROOT
HETATM    1  N   UNL     1     -41.497 -49.764  11.594  1.00  0.00    -0.295 N 
HETATM    2  C   UNL     1     -42.121 -50.683  12.390  1.00  0.00     0.322 C 
HETATM    3  O   UNL     1     -41.583 -51.760  12.620  1.00  0.00    -0.247 OA
HETATM    4  N   UNL     1     -43.355 -50.348  12.852  1.00  0.00    -0.335 N 
HETATM    5  H   UNL     1     -40.619 -50.090  11.224  1.00  0.00     0.172 HD
HETATM    6  H   UNL     1     -43.706 -49.453  12.523  1.00  0.00     0.164 HD
ENDROOT
BRANCH   1   7
HETATM    7  C   UNL     1     -41.988 -48.527  11.165  1.00  0.00     0.109 A 
HETATM    8  C   UNL     1     -41.854 -47.425  11.994  1.00  0.00     0.049 A 
HETATM    9  C   UNL     1     -42.276 -46.182  11.517  1.00  0.00     0.006 A 
HETATM   10  C   UNL     1     -42.849 -46.086  10.252  1.00  0.00     0.025 A 
HETATM   11  C   UNL     1     -42.980 -47.239   9.495  1.00  0.00     0.007 A 
HETATM   12  C   UNL     1     -43.651 -47.246   8.158  1.00  0.00     0.068 C 
HETATM   13  N   UNL     1     -42.543 -48.437   9.935  1.00  0.00    -0.346 N 
ATOM     14  HN  UNL     1     -42.629 -49.265   9.346  1.00  0.00     0.167 HD
ENDBRANCH   1   7
BRANCH   4  15
HETATM   15  C   UNL     1     -44.270 -51.250  13.506  1.00  0.00     0.109 C 
HETATM   16  C   UNL     1     -45.647 -51.206  12.828  1.00  0.00     0.029 C 
HETATM   17  C   UNL     1     -46.767 -51.821  13.669  1.00  0.00     0.006 C 
HETATM   18  C   UNL     1     -46.739 -51.478  15.162  1.00  0.00     0.027 C 
HETATM   19  C   UNL     1     -45.454 -50.909  15.679  1.00  0.00    -0.029 C 
HETATM   20  C   UNL     1     -44.339 -50.818  14.942  1.00  0.00    -0.006 C 
ENDBRANCH   4  15
TORSDOF 2
ENDMDL
MODEL 3
REMARK VINA RESULT:      -5.8      1.767      5.890
REMARK  2 active torsions:
REMARK  status: ('A' for Active; 'I' for Inactive)
REMARK    1  A    between atoms: C_6  and  N_7 
REMARK       I    between atoms: N_7  and  C_8 
REMARK       I    between atoms: C_8  and  N_10 
REMARK    2  A    between atoms: N_10  and  C_11 
ROOT
HETATM    1  N   UNL     1     -42.832 -53.292  12.015  1.00  0.00    -0.295 N 
HETATM    2  C   UNL     1     -43.915 -53.543  12.809  1.00  0.00     0.322 C 
HETATM    3  O   UNL     1     -44.769 -54.344  12.445  1.00  0.00    -0.247 OA
HETATM    4  N   UNL     1     -43.998 -52.833  13.965  1.00  0.00    -0.335 N 
HETATM    5  H   UNL     1     -42.854 -53.793  11.141  1.00  0.00     0.172 HD
HETATM    6  H   UNL     1     -43.255 -52.153  14.103  1.00  0.00     0.164 HD
ENDROOT
BRANCH   1   7
HETATM    7  C   UNL     1     -41.808 -52.365  12.229  1.00  0.00     0.109 A 
HETATM    8  C   UNL     1     -40.700 -52.743  12.972  1.00  0.00     0.049 A 
HETATM    9  C   UNL     1     -39.651 -51.832  13.107  1.00  0.00     0.006 A 
HETATM   10  C   UNL     1     -39.755 -50.568  12.534  1.00  0.00     0.025 A 
HETATM   11  C   UNL     1     -40.908 -50.251  11.834  1.00  0.00     0.007 A 
HETATM   12  C   UNL     1     -41.142 -48.894  11.250  1.00  0.00     0.068 C 
HETATM   13  N   UNL     1     -41.911 -51.138  11.669  1.00  0.00    -0.346 N 
ATOM     14  HN  UNL     1     -42.738 -50.887  11.128  1.00  0.00     0.167 HD
ENDBRANCH   1   7
BRANCH   4  15
HETATM   15  C   UNL     1     -45.155 -52.774  14.822  1.00  0.00     0.109 C 
HETATM   16  C   UNL     1     -46.149 -51.720  14.315  1.00  0.00     0.029 C 
HETATM   17  C   UNL     1     -47.202 -51.318  15.349  1.00  0.00     0.006 C 
HETATM   18  C   UNL     1     -46.686 -51.126  16.779  1.00  0.00     0.027 C 
HETATM   19  C   UNL     1     -45.333 -51.697  17.069  1.00  0.00    -0.029 C 
HETATM   20  C   UNL     1     -44.648 -52.449  16.198  1.00  0.00    -0.006 C 
ENDBRANCH   4  15
TORSDOF 2
ENDMDL
MODEL 4
REMARK VINA RESULT:      -5.7      2.547      6.365
REMARK  2 active torsions:
REMARK  status: ('A' for Active; 'I' for Inactive)
REMARK    1  A    between atoms: C_6  and  N_7 
REMARK       I    between atoms: N_7  and  C_8 
REMARK       I    between atoms: C_8  and  N_10 
REMARK    2  A    between atoms: N_10  and  C_11 
ROOT
HETATM    1  N   UNL     1     -43.505 -52.855  12.006  1.00  0.00    -0.295 N 
HETATM    2  C   UNL     1     -44.699 -53.042  12.646  1.00  0.00     0.322 C 
HETATM    3  O   UNL     1     -45.723 -53.210  11.995  1.00  0.00    -0.247 OA
HETATM    4  N   UNL     1     -44.675 -52.983  14.004  1.00  0.00    -0.335 N 
HETATM    5  H   UNL     1     -43.591 -52.839  11.003  1.00  0.00     0.172 HD
HETATM    6  H   UNL     1     -43.767 -52.766  14.406  1.00  0.00     0.164 HD
ENDROOT
BRANCH   1   7
HETATM    7  C   UNL     1     -42.261 -52.575  12.577  1.00  0.00     0.109 A 
HETATM    8  C   UNL     1     -41.879 -51.254  12.750  1.00  0.00     0.049 A 
HETATM    9  C   UNL     1     -40.670 -50.992  13.396  1.00  0.00     0.006 A 
HETATM   10  C   UNL     1     -39.866 -52.050  13.812  1.00  0.00     0.025 A 
HETATM   11  C   UNL     1     -40.299 -53.345  13.575  1.00  0.00     0.007 A 
HETATM   12  C   UNL     1     -39.469 -54.541  13.917  1.00  0.00     0.068 C 
HETATM   13  N   UNL     1     -41.483 -53.605  12.982  1.00  0.00    -0.346 N 
ATOM     14  HN  UNL     1     -41.789 -54.568  12.842  1.00  0.00     0.167 HD
ENDBRANCH   1   7
BRANCH   4  15
HETATM   15  C   UNL     1     -45.838 -52.923  14.853  1.00  0.00     0.109 C 
HETATM   16  C   UNL     1     -46.350 -51.481  14.966  1.00  0.00     0.029 C 
HETATM   17  C   UNL     1     -47.321 -51.261  16.127  1.00  0.00     0.006 C 
HETATM   18  C   UNL     1     -46.946 -51.948  17.444  1.00  0.00     0.027 C 
HETATM   19  C   UNL     1     -45.909 -53.025  17.348  1.00  0.00    -0.029 C 
HETATM   20  C   UNL     1     -45.419 -53.475  16.185  1.00  0.00    -0.006 C 
ENDBRANCH   4  15
TORSDOF 2
ENDMDL
MODEL 5
REMARK VINA RESULT:      -5.6      2.999      4.171
REMARK  2 active torsions:
REMARK  status: ('A' for Active; 'I' for Inactive)
REMARK    1  A    between atoms: C_6  and  N_7 
REMARK       I    between atoms: N_7  and  C_8 
REMARK       I    between atoms: C_8  and  N_10 
REMARK    2  A    between atoms: N_10  and  C_11 
ROOT
HETATM    1  N   UNL     1     -43.360 -52.807  12.087  1.00  0.00    -0.295 N 
HETATM    2  C   UNL     1     -42.043 -52.672  12.426  1.00  0.00     0.322 C 
HETATM    3  O   UNL     1     -41.213 -52.408  11.563  1.00  0.00    -0.247 OA
HETATM    4  N   UNL     1     -41.725 -52.889  13.730  1.00  0.00    -0.335 N 
HETATM    5  H   UNL     1     -43.530 -52.704  11.100  1.00  0.00     0.172 HD
HETATM    6  H   UNL     1     -42.505 -53.170  14.318  1.00  0.00     0.164 HD
ENDROOT
BRANCH   1   7
HETATM    7  C   UNL     1     -44.424 -53.177  12.915  1.00  0.00     0.109 A 
HETATM    8  C   UNL     1     -44.692 -54.523  13.108  1.00  0.00     0.049 A 
HETATM    9  C   UNL     1     -45.706 -54.876  14.001  1.00  0.00     0.006 A 
HETATM   10  C   UNL     1     -46.440 -53.881  14.641  1.00  0.00     0.025 A 
HETATM   11  C   UNL     1     -46.135 -52.556  14.372  1.00  0.00     0.007 A 
HETATM   12  C   UNL     1     -46.918 -51.422  14.952  1.00  0.00     0.068 C 
HETATM   13  N   UNL     1     -45.134 -52.208  13.537  1.00  0.00    -0.346 N 
ATOM     14  HN  UNL     1     -44.915 -51.225  13.376  1.00  0.00     0.167 HD
ENDBRANCH   1   7
BRANCH   4  15
HETATM   15  C   UNL     1     -40.387 -53.023  14.247  1.00  0.00     0.109 C 
HETATM   16  C   UNL     1     -40.017 -54.504  14.408  1.00  0.00     0.029 C 
HETATM   17  C   UNL     1     -38.793 -54.740  15.295  1.00  0.00     0.006 C 
HETATM   18  C   UNL     1     -38.719 -53.885  16.564  1.00  0.00     0.027 C 
HETATM   19  C   UNL     1     -39.624 -52.692  16.603  1.00  0.00    -0.029 C 
HETATM   20  C   UNL     1     -40.364 -52.295  15.560  1.00  0.00    -0.006 C 
ENDBRANCH   4  15
TORSDOF 2
ENDMDL
MODEL 6
REMARK VINA RESULT:      -5.6      0.799      1.726
REMARK  2 active torsions:
REMARK  status: ('A' for Active; 'I' for Inactive)
REMARK    1  A    between atoms: C_6  and  N_7 
REMARK       I    between atoms: N_7  and  C_8 
REMARK       I    between atoms: C_8  and  N_10 
REMARK    2  A    between atoms: N_10  and  C_11 
ROOT
HETATM    1  N   UNL     1     -42.855 -53.056  12.668  1.00  0.00    -0.295 N 
HETATM    2  C   UNL     1     -41.787 -52.404  12.117  1.00  0.00     0.322 C 
HETATM    3  O   UNL     1     -40.765 -53.024  11.846  1.00  0.00    -0.247 OA
HETATM    4  N   UNL     1     -41.919 -51.063  11.941  1.00  0.00    -0.335 N 
HETATM    5  H   UNL     1     -42.680 -54.032  12.839  1.00  0.00     0.172 HD
HETATM    6  H   UNL     1     -42.795 -50.672  12.277  1.00  0.00     0.164 HD
ENDROOT
BRANCH   1   7
HETATM    7  C   UNL     1     -44.062 -52.504  13.107  1.00  0.00     0.109 A 
HETATM    8  C   UNL     1     -45.187 -52.617  12.305  1.00  0.00     0.049 A 
HETATM    9  C   UNL     1     -46.402 -52.133  12.795  1.00  0.00     0.006 A 
HETATM   10  C   UNL     1     -46.448 -51.521  14.045  1.00  0.00     0.025 A 
HETATM   11  C   UNL     1     -45.274 -51.416  14.775  1.00  0.00     0.007 A 
HETATM   12  C   UNL     1     -45.212 -50.709  16.091  1.00  0.00     0.068 C 
HETATM   13  N   UNL     1     -44.104 -51.913  14.323  1.00  0.00    -0.346 N 
ATOM     14  HN  UNL     1     -43.261 -51.843  14.892  1.00  0.00     0.167 HD
ENDBRANCH   1   7
BRANCH   4  15
HETATM   15  C   UNL     1     -40.848 -50.161  11.598  1.00  0.00     0.109 C 
HETATM   16  C   UNL     1     -40.017 -49.812  12.840  1.00  0.00     0.029 C 
HETATM   17  C   UNL     1     -39.119 -48.588  12.656  1.00  0.00     0.006 C 
HETATM   18  C   UNL     1     -39.754 -47.406  11.916  1.00  0.00     0.027 C 
HETATM   19  C   UNL     1     -41.007 -47.708  11.153  1.00  0.00    -0.029 C 
HETATM   20  C   UNL     1     -41.494 -48.946  10.997  1.00  0.00    -0.006 C 
ENDBRANCH   4  15
TORSDOF 2
ENDMDL
MODEL 7
REMARK VINA RESULT:      -5.5      1.245      1.980
REMARK  2 active torsions:
REMARK  status: ('A' for Active; 'I' for Inactive)
REMARK    1  A    between atoms: C_6  and  N_7 
REMARK       I    between atoms: N_7  and  C_8 
REMARK       I    between atoms: C_8  and  N_10 
REMARK    2  A    between atoms: N_10  and  C_11 
ROOT
HETATM    1  N   UNL     1     -42.954 -53.259  12.510  1.00  0.00    -0.295 N 
HETATM    2  C   UNL     1     -41.756 -52.613  12.384  1.00  0.00     0.322 C 
HETATM    3  O   UNL     1     -40.757 -53.236  12.045  1.00  0.00    -0.247 OA
HETATM    4  N   UNL     1     -41.744 -51.290  12.695  1.00  0.00    -0.335 N 
HETATM    5  H   UNL     1     -42.893 -54.248  12.334  1.00  0.00     0.172 HD
HETATM    6  H   UNL     1     -42.630 -50.921  13.030  1.00  0.00     0.164 HD
ENDROOT
BRANCH   1   7
HETATM    7  C   UNL     1     -44.170 -52.731  12.954  1.00  0.00     0.109 A 
HETATM    8  C   UNL     1     -44.336 -52.466  14.305  1.00  0.00     0.049 A 
HETATM    9  C   UNL     1     -45.525 -51.864  14.721  1.00  0.00     0.006 A 
HETATM   10  C   UNL     1     -46.519 -51.582  13.788  1.00  0.00     0.025 A 
HETATM   11  C   UNL     1     -46.293 -51.907  12.460  1.00  0.00     0.007 A 
HETATM   12  C   UNL     1     -47.332 -51.712  11.401  1.00  0.00     0.068 C 
HETATM   13  N   UNL     1     -45.133 -52.457  12.045  1.00  0.00    -0.346 N 
ATOM     14  HN  UNL     1     -44.983 -52.663  11.058  1.00  0.00     0.167 HD
ENDBRANCH   1   7
BRANCH   4  15
HETATM   15  C   UNL     1     -40.559 -50.484  12.852  1.00  0.00     0.109 C 
HETATM   16  C   UNL     1     -39.915 -50.200  11.488  1.00  0.00     0.029 C 
HETATM   17  C   UNL     1     -38.475 -49.694  11.580  1.00  0.00     0.006 C 
HETATM   18  C   UNL     1     -37.588 -50.403  12.609  1.00  0.00     0.027 C 
HETATM   19  C   UNL     1     -38.306 -51.226  13.635  1.00  0.00    -0.029 C 
HETATM   20  C   UNL     1     -39.639 -51.254  13.755  1.00  0.00    -0.006 C 
ENDBRANCH   4  15
TORSDOF 2
ENDMDL
MODEL 8
REMARK VINA RESULT:      -5.3      1.489      5.677
REMARK  2 active torsions:
REMARK  status: ('A' for Active; 'I' for Inactive)
REMARK    1  A    between atoms: C_6  and  N_7 
REMARK       I    between atoms: N_7  and  C_8 
REMARK       I    between atoms: C_8  and  N_10 
REMARK    2  A    between atoms: N_10  and  C_11 
ROOT
HETATM    1  N   UNL     1     -41.929 -51.563  11.854  1.00  0.00    -0.295 N 
HETATM    2  C   UNL     1     -42.793 -52.203  12.697  1.00  0.00     0.322 C 
HETATM    3  O   UNL     1     -43.079 -53.380  12.503  1.00  0.00    -0.247 OA
HETATM    4  N   UNL     1     -43.329 -51.457  13.699  1.00  0.00    -0.335 N 
HETATM    5  H   UNL     1     -41.615 -52.141  11.092  1.00  0.00     0.172 HD
HETATM    6  H   UNL     1     -43.057 -50.478  13.695  1.00  0.00     0.164 HD
ENDROOT
BRANCH   1   7
HETATM    7  C   UNL     1     -41.550 -50.217  11.875  1.00  0.00     0.109 A 
HETATM    8  C   UNL     1     -40.317 -49.872  12.404  1.00  0.00     0.049 A 
HETATM    9  C   UNL     1     -39.920 -48.534  12.343  1.00  0.00     0.006 A 
HETATM   10  C   UNL     1     -40.778 -47.584  11.793  1.00  0.00     0.025 A 
HETATM   11  C   UNL     1     -42.009 -48.001  11.314  1.00  0.00     0.007 A 
HETATM   12  C   UNL     1     -43.025 -47.043  10.778  1.00  0.00     0.068 C 
HETATM   13  N   UNL     1     -42.385 -49.297  11.339  1.00  0.00    -0.346 N 
ATOM     14  HN  UNL     1     -43.287 -49.580  10.957  1.00  0.00     0.167 HD
ENDBRANCH   1   7
BRANCH   4  15
HETATM   15  C   UNL     1     -44.422 -51.866  14.546  1.00  0.00     0.109 C 
HETATM   16  C   UNL     1     -45.765 -51.442  13.936  1.00  0.00     0.029 C 
HETATM   17  C   UNL     1     -46.931 -51.486  14.925  1.00  0.00     0.006 C 
HETATM   18  C   UNL     1     -46.629 -50.951  16.329  1.00  0.00     0.027 C 
HETATM   19  C   UNL     1     -45.180 -50.801  16.675  1.00  0.00    -0.029 C 
HETATM   20  C   UNL     1     -44.186 -51.224  15.882  1.00  0.00    -0.006 C 
ENDBRANCH   4  15
TORSDOF 2
ENDMDL
MODEL 9
REMARK VINA RESULT:      -5.1      2.290      3.617
REMARK  2 active torsions:
REMARK  status: ('A' for Active; 'I' for Inactive)
REMARK    1  A    between atoms: C_6  and  N_7 
REMARK       I    between atoms: N_7  and  C_8 
REMARK       I    between atoms: C_8  and  N_10 
REMARK    2  A    between atoms: N_10  and  C_11 
ROOT
HETATM    1  N   UNL     1     -40.881 -51.497  11.333  1.00  0.00    -0.295 N 
HETATM    2  C   UNL     1     -40.164 -50.438  11.816  1.00  0.00     0.322 C 
HETATM    3  O   UNL     1     -39.540 -49.719  11.045  1.00  0.00    -0.247 OA
HETATM    4  N   UNL     1     -40.156 -50.277  13.166  1.00  0.00    -0.335 N 
HETATM    5  H   UNL     1     -40.798 -51.611  10.336  1.00  0.00     0.172 HD
HETATM    6  H   UNL     1     -40.660 -50.991  13.685  1.00  0.00     0.164 HD
ENDROOT
BRANCH   1   7
HETATM    7  C   UNL     1     -41.585 -52.460  12.061  1.00  0.00     0.109 A 
HETATM    8  C   UNL     1     -40.878 -53.403  12.791  1.00  0.00     0.049 A 
HETATM    9  C   UNL     1     -41.596 -54.306  13.578  1.00  0.00     0.006 A 
HETATM   10  C   UNL     1     -42.987 -54.265  13.582  1.00  0.00     0.025 A 
HETATM   11  C   UNL     1     -43.624 -53.315  12.800  1.00  0.00     0.007 A 
HETATM   12  C   UNL     1     -45.114 -53.245  12.681  1.00  0.00     0.068 C 
HETATM   13  N   UNL     1     -42.937 -52.416  12.065  1.00  0.00    -0.346 N 
ATOM     14  HN  UNL     1     -43.431 -51.711  11.518  1.00  0.00     0.167 HD
ENDBRANCH   1   7
BRANCH   4  15
HETATM   15  C   UNL     1     -39.290 -49.379  13.889  1.00  0.00     0.109 C 
HETATM   16  C   UNL     1     -37.926 -50.034  14.142  1.00  0.00     0.029 C 
HETATM   17  C   UNL     1     -37.093 -49.328  15.214  1.00  0.00     0.006 C 
HETATM   18  C   UNL     1     -37.864 -48.874  16.458  1.00  0.00     0.027 C 
HETATM   19  C   UNL     1     -39.356 -48.835  16.326  1.00  0.00    -0.029 C 
HETATM   20  C   UNL     1     -39.999 -49.049  15.171  1.00  0.00    -0.006 C 
ENDBRANCH   4  15
TORSDOF 2
ENDMDL
