MODEL 1
REMARK VINA RESULT:      -4.8      0.000      0.000
REMARK  1 active torsions:
REMARK  status: ('A' for Active; 'I' for Inactive)
REMARK    1  A    between atoms: C_13  and  C_14 
ROOT
HETATM    1  C   UNL     4     -43.539 -46.567   9.202  1.00  0.00     0.315 C 
HETATM    2  C   UNL     4     -43.321 -47.818   8.312  1.00  0.00     0.313 C 
HETATM    3  N   UNL     4     -44.504 -48.045   7.466  1.00  0.00     0.087 N 
HETATM    4  C   UNL     4     -45.710 -48.227   8.283  1.00  0.00     0.299 C 
HETATM    5  C   UNL     4     -45.910 -47.014   9.208  1.00  0.00     0.300 C 
HETATM    6  N   UNL     4     -44.723 -46.791  10.051  1.00  0.00     0.098 N 
HETATM    7  H   UNL     4     -44.353 -48.911   6.895  1.00  0.00     0.316 HD
HETATM    8  H   UNL     4     -44.577 -47.630  10.663  1.00  0.00     0.317 HD
ENDROOT
BRANCH   1   9
HETATM    9  C   UNL     4     -42.303 -46.274  10.037  1.00  0.00     0.118 A 
HETATM   10  N   UNL     4     -42.025 -45.116  10.706  1.00  0.00    -0.348 N 
HETATM   11  C   UNL     4     -42.811 -43.895  10.874  1.00  0.00     0.157 C 
HETATM   12  C   UNL     4     -40.816 -45.302  11.263  1.00  0.00     0.108 A 
HETATM   13  C   UNL     4     -40.379 -46.566  10.949  1.00  0.00     0.106 A 
HETATM   14  N   UNL     4     -41.312 -47.182  10.185  1.00  0.00    -0.352 N 
ATOM     15  HN  UNL     4     -41.274 -48.127   9.802  1.00  0.00     0.166 HD
ENDBRANCH   1   9
TORSDOF 1
ENDMDL
MODEL 2
REMARK VINA RESULT:      -4.7      2.534      4.384
REMARK  1 active torsions:
REMARK  status: ('A' for Active; 'I' for Inactive)
REMARK    1  A    between atoms: C_13  and  C_14 
ROOT
HETATM    1  C   UNL     4     -41.590 -48.286  10.957  1.00  0.00     0.315 C 
HETATM    2  C   UNL     4     -42.514 -48.845  12.070  1.00  0.00     0.313 C 
HETATM    3  N   UNL     4     -41.704 -49.470  13.128  1.00  0.00     0.087 N 
HETATM    4  C   UNL     4     -40.874 -50.554  12.587  1.00  0.00     0.299 C 
HETATM    5  C   UNL     4     -39.989 -50.023  11.447  1.00  0.00     0.300 C 
HETATM    6  N   UNL     4     -40.804 -49.397  10.392  1.00  0.00     0.098 N 
HETATM    7  H   UNL     4     -42.344 -49.870  13.854  1.00  0.00     0.316 HD
HETATM    8  H   UNL     4     -41.442 -50.120   9.980  1.00  0.00     0.317 HD
ENDROOT
BRANCH   1   9
HETATM    9  C   UNL     4     -42.401 -47.575   9.884  1.00  0.00     0.118 A 
HETATM   10  N   UNL     4     -42.791 -46.267   9.887  1.00  0.00    -0.348 N 
HETATM   11  C   UNL     4     -42.512 -45.186  10.832  1.00  0.00     0.157 C 
HETATM   12  C   UNL     4     -43.514 -46.103   8.766  1.00  0.00     0.108 A 
HETATM   13  C   UNL     4     -43.543 -47.295   8.086  1.00  0.00     0.106 A 
HETATM   14  N   UNL     4     -42.840 -48.221   8.781  1.00  0.00    -0.352 N 
ATOM     15  HN  UNL     4     -42.679 -49.196   8.526  1.00  0.00     0.166 HD
ENDBRANCH   1   9
TORSDOF 1
ENDMDL
MODEL 3
REMARK VINA RESULT:      -4.6      1.610      2.483
REMARK  1 active torsions:
REMARK  status: ('A' for Active; 'I' for Inactive)
REMARK    1  A    between atoms: C_13  and  C_14 
ROOT
HETATM    1  C   UNL     4     -42.610 -47.716   9.852  1.00  0.00     0.315 C 
HETATM    2  C   UNL     4     -43.934 -47.445  10.612  1.00  0.00     0.313 C 
HETATM    3  N   UNL     4     -45.046 -48.144   9.948  1.00  0.00     0.087 N 
HETATM    4  C   UNL     4     -45.184 -47.712   8.551  1.00  0.00     0.299 C 
HETATM    5  C   UNL     4     -43.860 -47.928   7.798  1.00  0.00     0.300 C 
HETATM    6  N   UNL     4     -42.750 -47.228   8.468  1.00  0.00     0.098 N 
HETATM    7  H   UNL     4     -45.937 -47.924  10.454  1.00  0.00     0.316 HD
HETATM    8  H   UNL     4     -42.946 -46.197   8.464  1.00  0.00     0.317 HD
ENDROOT
BRANCH   1   9
HETATM    9  C   UNL     4     -41.435 -47.058  10.557  1.00  0.00     0.118 A 
HETATM   10  N   UNL     4     -40.803 -47.504  11.683  1.00  0.00    -0.348 N 
HETATM   11  C   UNL     4     -41.002 -48.716  12.476  1.00  0.00     0.157 C 
HETATM   12  C   UNL     4     -39.861 -46.586  11.956  1.00  0.00     0.108 A 
HETATM   13  C   UNL     4     -39.912 -45.606  10.996  1.00  0.00     0.106 A 
HETATM   14  N   UNL     4     -40.894 -45.901  10.111  1.00  0.00    -0.352 N 
ATOM     15  HN  UNL     4     -41.168 -45.365   9.287  1.00  0.00     0.166 HD
ENDBRANCH   1   9
TORSDOF 1
ENDMDL
MODEL 4
REMARK VINA RESULT:      -4.6      2.499      3.497
REMARK  1 active torsions:
REMARK  status: ('A' for Active; 'I' for Inactive)
REMARK    1  A    between atoms: C_13  and  C_14 
ROOT
HETATM    1  C   UNL     4     -42.733 -47.959  10.483  1.00  0.00     0.315 C 
HETATM    2  C   UNL     4     -42.535 -46.449  10.773  1.00  0.00     0.313 C 
HETATM    3  N   UNL     4     -43.603 -45.670  10.126  1.00  0.00     0.087 N 
HETATM    4  C   UNL     4     -43.615 -45.894   8.674  1.00  0.00     0.299 C 
HETATM    5  C   UNL     4     -43.759 -47.396   8.373  1.00  0.00     0.300 C 
HETATM    6  N   UNL     4     -42.689 -48.171   9.025  1.00  0.00     0.098 N 
HETATM    7  H   UNL     4     -43.437 -44.651  10.304  1.00  0.00     0.316 HD
HETATM    8  H   UNL     4     -41.763 -47.863   8.641  1.00  0.00     0.317 HD
ENDROOT
BRANCH   1   9
HETATM    9  C   UNL     4     -41.679 -48.791  11.198  1.00  0.00     0.118 A 
HETATM   10  N   UNL     4     -41.624 -49.067  12.534  1.00  0.00    -0.348 N 
HETATM   11  C   UNL     4     -42.541 -48.727  13.621  1.00  0.00     0.157 C 
HETATM   12  C   UNL     4     -40.507 -49.794  12.707  1.00  0.00     0.108 A 
HETATM   13  C   UNL     4     -39.906 -49.970  11.485  1.00  0.00     0.106 A 
HETATM   14  N   UNL     4     -40.641 -49.347  10.533  1.00  0.00    -0.352 N 
ATOM     15  HN  UNL     4     -40.452 -49.307   9.532  1.00  0.00     0.166 HD
ENDBRANCH   1   9
TORSDOF 1
ENDMDL
MODEL 5
REMARK VINA RESULT:      -4.3      6.774      8.040
REMARK  1 active torsions:
REMARK  status: ('A' for Active; 'I' for Inactive)
REMARK    1  A    between atoms: C_13  and  C_14 
ROOT
HETATM    1  C   UNL     4     -43.121 -52.431  13.252  1.00  0.00     0.315 C 
HETATM    2  C   UNL     4     -42.886 -53.786  13.968  1.00  0.00     0.313 C 
HETATM    3  N   UNL     4     -41.442 -54.042  14.096  1.00  0.00     0.087 N 
HETATM    4  C   UNL     4     -40.790 -54.062  12.780  1.00  0.00     0.299 C 
HETATM    5  C   UNL     4     -41.059 -52.742  12.038  1.00  0.00     0.300 C 
HETATM    6  N   UNL     4     -42.506 -52.490  11.914  1.00  0.00     0.098 N 
HETATM    7  H   UNL     4     -41.300 -54.974  14.552  1.00  0.00     0.316 HD
HETATM    8  H   UNL     4     -42.938 -53.260  11.349  1.00  0.00     0.317 HD
ENDROOT
BRANCH   1   9
HETATM    9  C   UNL     4     -44.606 -52.113  13.167  1.00  0.00     0.118 A 
HETATM   10  N   UNL     4     -45.369 -51.513  14.128  1.00  0.00    -0.348 N 
HETATM   11  C   UNL     4     -45.006 -50.961  15.432  1.00  0.00     0.157 C 
HETATM   12  C   UNL     4     -46.616 -51.478  13.629  1.00  0.00     0.108 A 
HETATM   13  C   UNL     4     -46.601 -52.034  12.373  1.00  0.00     0.106 A 
HETATM   14  N   UNL     4     -45.340 -52.429  12.077  1.00  0.00    -0.352 N 
ATOM     15  HN  UNL     4     -45.015 -52.869  11.216  1.00  0.00     0.166 HD
ENDBRANCH   1   9
TORSDOF 1
ENDMDL
MODEL 6
REMARK VINA RESULT:      -4.3      1.786      2.659
REMARK  1 active torsions:
REMARK  status: ('A' for Active; 'I' for Inactive)
REMARK    1  A    between atoms: C_13  and  C_14 
ROOT
HETATM    1  C   UNL     4     -42.761 -45.696  10.230  1.00  0.00     0.315 C 
HETATM    2  C   UNL     4     -43.093 -46.902  11.146  1.00  0.00     0.313 C 
HETATM    3  N   UNL     4     -43.695 -47.985  10.352  1.00  0.00     0.087 N 
HETATM    4  C   UNL     4     -44.918 -47.528   9.678  1.00  0.00     0.299 C 
HETATM    5  C   UNL     4     -44.612 -46.299   8.804  1.00  0.00     0.300 C 
HETATM    6  N   UNL     4     -44.008 -45.219   9.604  1.00  0.00     0.098 N 
HETATM    7  H   UNL     4     -43.943 -48.778  10.990  1.00  0.00     0.316 HD
HETATM    8  H   UNL     4     -44.691 -44.917  10.340  1.00  0.00     0.317 HD
ENDROOT
BRANCH   1   9
HETATM    9  C   UNL     4     -42.076 -44.589  11.016  1.00  0.00     0.118 A 
HETATM   10  N   UNL     4     -40.745 -44.283  11.006  1.00  0.00    -0.348 N 
HETATM   11  C   UNL     4     -39.639 -44.845  10.233  1.00  0.00     0.157 C 
HETATM   12  C   UNL     4     -40.601 -43.270  11.877  1.00  0.00     0.108 A 
HETATM   13  C   UNL     4     -41.835 -42.956  12.392  1.00  0.00     0.106 A 
HETATM   14  N   UNL     4     -42.765 -43.778  11.850  1.00  0.00    -0.352 N 
ATOM     15  HN  UNL     4     -43.768 -43.783  12.032  1.00  0.00     0.166 HD
ENDBRANCH   1   9
TORSDOF 1
ENDMDL
MODEL 7
REMARK VINA RESULT:      -4.3      3.289      5.916
REMARK  1 active torsions:
REMARK  status: ('A' for Active; 'I' for Inactive)
REMARK    1  A    between atoms: C_13  and  C_14 
ROOT
HETATM    1  C   UNL     4     -39.189 -48.738  11.773  1.00  0.00     0.315 C 
HETATM    2  C   UNL     4     -39.446 -49.347  13.176  1.00  0.00     0.313 C 
HETATM    3  N   UNL     4     -38.188 -49.870  13.734  1.00  0.00     0.087 N 
HETATM    4  C   UNL     4     -37.605 -50.891  12.854  1.00  0.00     0.299 C 
HETATM    5  C   UNL     4     -37.393 -50.315  11.444  1.00  0.00     0.300 C 
HETATM    6  N   UNL     4     -38.654 -49.791  10.891  1.00  0.00     0.098 N 
HETATM    7  H   UNL     4     -38.384 -50.306  14.666  1.00  0.00     0.316 HD
HETATM    8  H   UNL     4     -39.342 -50.578  10.807  1.00  0.00     0.317 HD
ENDROOT
BRANCH   1   9
HETATM    9  C   UNL     4     -40.462 -48.131  11.205  1.00  0.00     0.118 A 
HETATM   10  N   UNL     4     -40.954 -46.882  11.455  1.00  0.00    -0.348 N 
HETATM   11  C   UNL     4     -40.410 -45.779  12.246  1.00  0.00     0.157 C 
HETATM   12  C   UNL     4     -42.109 -46.805  10.772  1.00  0.00     0.108 A 
HETATM   13  C   UNL     4     -42.302 -47.988  10.103  1.00  0.00     0.106 A 
HETATM   14  N   UNL     4     -41.267 -48.822  10.366  1.00  0.00    -0.352 N 
ATOM     15  HN  UNL     4     -41.127 -49.767  10.009  1.00  0.00     0.166 HD
ENDBRANCH   1   9
TORSDOF 1
ENDMDL
MODEL 8
REMARK VINA RESULT:      -4.3      2.164      2.869
REMARK  1 active torsions:
REMARK  status: ('A' for Active; 'I' for Inactive)
REMARK    1  A    between atoms: C_13  and  C_14 
ROOT
HETATM    1  C   UNL     4     -42.463 -46.451  10.739  1.00  0.00     0.315 C 
HETATM    2  C   UNL     4     -42.499 -47.971  10.437  1.00  0.00     0.313 C 
HETATM    3  N   UNL     4     -42.548 -48.193   8.982  1.00  0.00     0.087 N 
HETATM    4  C   UNL     4     -43.725 -47.545   8.389  1.00  0.00     0.299 C 
HETATM    5  C   UNL     4     -43.728 -46.044   8.725  1.00  0.00     0.300 C 
HETATM    6  N   UNL     4     -43.677 -45.828  10.181  1.00  0.00     0.098 N 
HETATM    7  H   UNL     4     -42.605 -49.222   8.797  1.00  0.00     0.316 HD
HETATM    8  H   UNL     4     -44.533 -46.247  10.618  1.00  0.00     0.317 HD
ENDROOT
BRANCH   1   9
HETATM    9  C   UNL     4     -42.345 -46.197  12.234  1.00  0.00     0.118 A 
HETATM   10  N   UNL     4     -41.195 -46.178  12.971  1.00  0.00    -0.348 N 
HETATM   11  C   UNL     4     -39.797 -46.319  12.568  1.00  0.00     0.157 C 
HETATM   12  C   UNL     4     -41.582 -45.958  14.238  1.00  0.00     0.108 A 
HETATM   13  C   UNL     4     -42.949 -45.827  14.262  1.00  0.00     0.106 A 
HETATM   14  N   UNL     4     -43.432 -45.970  13.005  1.00  0.00    -0.352 N 
ATOM     15  HN  UNL     4     -44.405 -45.919  12.705  1.00  0.00     0.166 HD
ENDBRANCH   1   9
TORSDOF 1
ENDMDL
MODEL 9
REMARK VINA RESULT:      -4.2      7.044      8.568
REMARK  1 active torsions:
REMARK  status: ('A' for Active; 'I' for Inactive)
REMARK    1  A    between atoms: C_13  and  C_14 
ROOT
HETATM    1  C   UNL     4     -43.066 -53.368  12.894  1.00  0.00     0.315 C 
HETATM    2  C   UNL     4     -42.231 -52.349  12.076  1.00  0.00     0.313 C 
HETATM    3  N   UNL     4     -40.891 -52.897  11.809  1.00  0.00     0.087 N 
HETATM    4  C   UNL     4     -40.192 -53.214  13.061  1.00  0.00     0.299 C 
HETATM    5  C   UNL     4     -41.034 -54.186  13.905  1.00  0.00     0.300 C 
HETATM    6  N   UNL     4     -42.374 -53.634  14.168  1.00  0.00     0.098 N 
HETATM    7  H   UNL     4     -40.330 -52.184  11.286  1.00  0.00     0.316 HD
HETATM    8  H   UNL     4     -42.275 -52.747  14.719  1.00  0.00     0.317 HD
ENDROOT
BRANCH   1   9
HETATM    9  C   UNL     4     -44.478 -52.852  13.124  1.00  0.00     0.118 A 
HETATM   10  N   UNL     4     -45.553 -53.577  13.554  1.00  0.00    -0.348 N 
HETATM   11  C   UNL     4     -45.662 -54.976  13.966  1.00  0.00     0.157 C 
HETATM   12  C   UNL     4     -46.585 -52.717  13.570  1.00  0.00     0.108 A 
HETATM   13  C   UNL     4     -46.133 -51.483  13.172  1.00  0.00     0.106 A 
HETATM   14  N   UNL     4     -44.809 -51.561  12.897  1.00  0.00    -0.352 N 
ATOM     15  HN  UNL     4     -44.195 -50.809  12.586  1.00  0.00     0.166 HD
ENDBRANCH   1   9
TORSDOF 1
ENDMDL
