MODEL 1
REMARK VINA RESULT:      -5.9      0.000      0.000
REMARK  3 active torsions:
REMARK  status: ('A' for Active; 'I' for Inactive)
REMARK    1  A    between atoms: N_6  and  C_11 
REMARK    2  A    between atoms: CA_16  and  C_18 
REMARK    3  A    between atoms: C_18  and  OXT_20 
ROOT
HETATM    1  C   UNL     2     -40.838 -48.459  11.728  1.00  0.00     0.034 A 
HETATM    2  C   UNL     2     -39.429 -48.400  11.801  1.00  0.00     0.046 A 
HETATM    3  C   UNL     2     -38.684 -49.574  11.906  1.00  0.00     0.091 A 
HETATM    4  N   UNL     2     -39.307 -50.778  11.918  1.00  0.00    -0.360 N 
ATOM      5  HN  UNL     2     -38.743 -51.625  11.985  1.00  0.00     0.165 HD
HETATM    6  CA  UNL     2     -40.659 -50.891  11.843  1.00  0.00     0.108 A 
HETATM    7  C   UNL     2     -41.447 -49.729  11.760  1.00  0.00     0.066 A 
ENDROOT
BRANCH   1   8
HETATM    8  N   UNL     2     -41.620 -47.257  11.606  1.00  0.00    -0.376 N 
HETATM    9  C   UNL     2     -41.224 -46.014  12.238  1.00  0.00     0.154 C 
HETATM   10  C   UNL     2     -41.038 -44.967  11.127  1.00  0.00     0.136 C 
HETATM   11  C   UNL     2     -39.810 -45.263  10.238  1.00  0.00     0.041 C 
HETATM   12  O   UNL     2     -42.232 -44.822  10.364  1.00  0.00    -0.378 OA
HETATM   13  C   UNL     2     -42.642 -46.039   9.750  1.00  0.00     0.136 C 
HETATM   14  C   UNL     2     -42.826 -47.158  10.794  1.00  0.00     0.154 C 
HETATM   15  C   UNL     2     -43.953 -45.782   9.010  1.00  0.00     0.041 C 
ENDBRANCH   1   8
BRANCH   6  16
HETATM   16  C   UNL     2     -41.277 -52.240  11.826  1.00  0.00     0.193 C 
HETATM   17  O   UNL     2     -42.449 -52.383  12.136  1.00  0.00    -0.645 OA
BRANCH  16  18
HETATM   18  OXT UNL     2     -40.565 -53.326  11.452  1.00  0.00    -0.772 OA
HETATM   19  HXT UNL     2     -40.667 -54.189  11.877  1.00  0.00     0.167 HD
ENDBRANCH  16  18
ENDBRANCH   6  16
TORSDOF 3
ENDMDL
MODEL 2
REMARK VINA RESULT:      -5.8      5.983      6.866
REMARK  3 active torsions:
REMARK  status: ('A' for Active; 'I' for Inactive)
REMARK    1  A    between atoms: N_6  and  C_11 
REMARK    2  A    between atoms: CA_16  and  C_18 
REMARK    3  A    between atoms: C_18  and  OXT_20 
ROOT
HETATM    1  C   UNL     2     -43.793 -53.869  14.592  1.00  0.00     0.034 A 
HETATM    2  C   UNL     2     -43.459 -54.704  15.680  1.00  0.00     0.046 A 
HETATM    3  C   UNL     2     -42.152 -55.163  15.837  1.00  0.00     0.091 A 
HETATM    4  N   UNL     2     -41.190 -54.794  14.956  1.00  0.00    -0.360 N 
ATOM      5  HN  UNL     2     -40.237 -55.133  15.093  1.00  0.00     0.165 HD
HETATM    6  CA  UNL     2     -41.455 -53.988  13.894  1.00  0.00     0.108 A 
HETATM    7  C   UNL     2     -42.767 -53.523  13.690  1.00  0.00     0.066 A 
ENDROOT
BRANCH   1   8
HETATM    8  N   UNL     2     -45.134 -53.378  14.425  1.00  0.00    -0.376 N 
HETATM    9  C   UNL     2     -45.952 -52.975  15.551  1.00  0.00     0.154 C 
HETATM   10  C   UNL     2     -46.315 -51.493  15.355  1.00  0.00     0.136 C 
HETATM   11  C   UNL     2     -45.094 -50.562  15.515  1.00  0.00     0.041 C 
HETATM   12  O   UNL     2     -46.983 -51.296  14.112  1.00  0.00    -0.378 OA
HETATM   13  C   UNL     2     -46.196 -51.702  12.997  1.00  0.00     0.136 C 
HETATM   14  C   UNL     2     -45.763 -53.176  13.125  1.00  0.00     0.154 C 
HETATM   15  C   UNL     2     -47.025 -51.501  11.730  1.00  0.00     0.041 C 
ENDBRANCH   1   8
BRANCH   6  16
HETATM   16  C   UNL     2     -40.351 -53.593  12.986  1.00  0.00     0.193 C 
HETATM   17  O   UNL     2     -39.254 -53.307  13.440  1.00  0.00    -0.645 OA
BRANCH  16  18
HETATM   18  OXT UNL     2     -40.529 -53.561  11.647  1.00  0.00    -0.772 OA
HETATM   19  HXT UNL     2     -39.794 -53.479  11.024  1.00  0.00     0.167 HD
ENDBRANCH  16  18
ENDBRANCH   6  16
TORSDOF 3
ENDMDL
MODEL 3
REMARK VINA RESULT:      -5.7      2.417      6.179
REMARK  3 active torsions:
REMARK  status: ('A' for Active; 'I' for Inactive)
REMARK    1  A    between atoms: N_6  and  C_11 
REMARK    2  A    between atoms: CA_16  and  C_18 
REMARK    3  A    between atoms: C_18  and  OXT_20 
ROOT
HETATM    1  C   UNL     2     -40.441 -48.143  11.741  1.00  0.00     0.034 A 
HETATM    2  C   UNL     2     -41.619 -48.581  11.097  1.00  0.00     0.046 A 
HETATM    3  C   UNL     2     -42.261 -47.757  10.174  1.00  0.00     0.091 A 
HETATM    4  N   UNL     2     -41.746 -46.539   9.874  1.00  0.00    -0.360 N 
ATOM      5  HN  UNL     2     -42.226 -45.955   9.189  1.00  0.00     0.165 HD
HETATM    6  CA  UNL     2     -40.612 -46.072  10.460  1.00  0.00     0.108 A 
HETATM    7  C   UNL     2     -39.949 -46.865  11.414  1.00  0.00     0.066 A 
ENDROOT
BRANCH   1   8
HETATM    8  N   UNL     2     -39.761 -48.988  12.686  1.00  0.00    -0.376 N 
HETATM    9  C   UNL     2     -39.554 -50.402  12.445  1.00  0.00     0.154 C 
HETATM   10  C   UNL     2     -38.037 -50.656  12.447  1.00  0.00     0.136 C 
HETATM   11  C   UNL     2     -37.334 -50.032  11.222  1.00  0.00     0.041 C 
HETATM   12  O   UNL     2     -37.454 -50.233  13.676  1.00  0.00    -0.378 OA
HETATM   13  C   UNL     2     -37.663 -48.848  13.933  1.00  0.00     0.136 C 
HETATM   14  C   UNL     2     -39.164 -48.498  13.922  1.00  0.00     0.154 C 
HETATM   15  C   UNL     2     -37.051 -48.518  15.292  1.00  0.00     0.041 C 
ENDBRANCH   1   8
BRANCH   6  16
HETATM   16  C   UNL     2     -40.082 -44.744  10.062  1.00  0.00     0.193 C 
HETATM   17  O   UNL     2     -40.434 -43.738  10.659  1.00  0.00    -0.645 OA
BRANCH  16  18
HETATM   18  OXT UNL     2     -39.190 -44.625   9.054  1.00  0.00    -0.772 OA
HETATM   19  HXT UNL     2     -39.453 -44.413   8.147  1.00  0.00     0.167 HD
ENDBRANCH  16  18
ENDBRANCH   6  16
TORSDOF 3
ENDMDL
MODEL 4
REMARK VINA RESULT:      -5.7      2.434      5.503
REMARK  3 active torsions:
REMARK  status: ('A' for Active; 'I' for Inactive)
REMARK    1  A    between atoms: N_6  and  C_11 
REMARK    2  A    between atoms: CA_16  and  C_18 
REMARK    3  A    between atoms: C_18  and  OXT_20 
ROOT
HETATM    1  C   UNL     2     -40.382 -47.920  11.635  1.00  0.00     0.034 A 
HETATM    2  C   UNL     2     -39.927 -46.584  11.581  1.00  0.00     0.046 A 
HETATM    3  C   UNL     2     -40.522 -45.675  10.707  1.00  0.00     0.091 A 
HETATM    4  N   UNL     2     -41.555 -46.064   9.919  1.00  0.00    -0.360 N 
ATOM      5  HN  UNL     2     -41.983 -45.382   9.294  1.00  0.00     0.165 HD
HETATM    6  CA  UNL     2     -42.036 -47.335   9.937  1.00  0.00     0.108 A 
HETATM    7  C   UNL     2     -41.446 -48.287  10.789  1.00  0.00     0.066 A 
ENDROOT
BRANCH   1   8
HETATM    8  N   UNL     2     -39.785 -48.865  12.541  1.00  0.00    -0.376 N 
HETATM    9  C   UNL     2     -39.642 -50.267  12.206  1.00  0.00     0.154 C 
HETATM   10  C   UNL     2     -38.141 -50.603  12.245  1.00  0.00     0.136 C 
HETATM   11  C   UNL     2     -37.358 -49.932  11.096  1.00  0.00     0.041 C 
HETATM   12  O   UNL     2     -37.588 -50.300  13.522  1.00  0.00    -0.378 OA
HETATM   13  C   UNL     2     -37.736 -48.927  13.872  1.00  0.00     0.136 C 
HETATM   14  C   UNL     2     -39.215 -48.496  13.831  1.00  0.00     0.154 C 
HETATM   15  C   UNL     2     -37.164 -48.728  15.274  1.00  0.00     0.041 C 
ENDBRANCH   1   8
BRANCH   6  16
HETATM   16  C   UNL     2     -43.191 -47.688   9.075  1.00  0.00     0.193 C 
HETATM   17  O   UNL     2     -44.332 -47.547   9.487  1.00  0.00    -0.645 OA
BRANCH  16  18
HETATM   18  OXT UNL     2     -43.006 -48.151   7.819  1.00  0.00    -0.772 OA
HETATM   19  HXT UNL     2     -43.613 -47.949   7.093  1.00  0.00     0.167 HD
ENDBRANCH  16  18
ENDBRANCH   6  16
TORSDOF 3
ENDMDL
MODEL 5
REMARK VINA RESULT:      -5.6      2.383      2.646
REMARK  3 active torsions:
REMARK  status: ('A' for Active; 'I' for Inactive)
REMARK    1  A    between atoms: N_6  and  C_11 
REMARK    2  A    between atoms: CA_16  and  C_18 
REMARK    3  A    between atoms: C_18  and  OXT_20 
ROOT
HETATM    1  C   UNL     2     -39.754 -47.478  12.654  1.00  0.00     0.034 A 
HETATM    2  C   UNL     2     -39.222 -47.299  13.950  1.00  0.00     0.046 A 
HETATM    3  C   UNL     2     -38.175 -48.104  14.395  1.00  0.00     0.091 A 
HETATM    4  N   UNL     2     -37.648 -49.050  13.580  1.00  0.00    -0.360 N 
ATOM      5  HN  UNL     2     -36.875 -49.622  13.921  1.00  0.00     0.165 HD
HETATM    6  CA  UNL     2     -38.117 -49.260  12.321  1.00  0.00     0.108 A 
HETATM    7  C   UNL     2     -39.189 -48.483  11.844  1.00  0.00     0.066 A 
ENDROOT
BRANCH   1   8
HETATM    8  N   UNL     2     -40.826 -46.647  12.176  1.00  0.00    -0.376 N 
HETATM    9  C   UNL     2     -40.800 -45.204  12.310  1.00  0.00     0.154 C 
HETATM   10  C   UNL     2     -40.869 -44.605  10.896  1.00  0.00     0.136 C 
HETATM   11  C   UNL     2     -39.578 -44.860  10.085  1.00  0.00     0.041 C 
HETATM   12  O   UNL     2     -42.032 -45.056  10.211  1.00  0.00    -0.378 OA
HETATM   13  C   UNL     2     -42.079 -46.474  10.085  1.00  0.00     0.136 C 
HETATM   14  C   UNL     2     -41.988 -47.161  11.462  1.00  0.00     0.154 C 
HETATM   15  C   UNL     2     -43.387 -46.848   9.391  1.00  0.00     0.041 C 
ENDBRANCH   1   8
BRANCH   6  16
HETATM   16  C   UNL     2     -37.473 -50.288  11.466  1.00  0.00     0.193 C 
HETATM   17  O   UNL     2     -37.120 -51.353  11.947  1.00  0.00    -0.645 OA
BRANCH  16  18
HETATM   18  OXT UNL     2     -37.285 -50.075  10.145  1.00  0.00    -0.772 OA
HETATM   19  HXT UNL     2     -36.542 -50.455   9.656  1.00  0.00     0.167 HD
ENDBRANCH  16  18
ENDBRANCH   6  16
TORSDOF 3
ENDMDL
MODEL 6
REMARK VINA RESULT:      -5.6      4.984      7.370
REMARK  3 active torsions:
REMARK  status: ('A' for Active; 'I' for Inactive)
REMARK    1  A    between atoms: N_6  and  C_11 
REMARK    2  A    between atoms: CA_16  and  C_18 
REMARK    3  A    between atoms: C_18  and  OXT_20 
ROOT
HETATM    1  C   UNL     2     -43.267 -53.804  13.188  1.00  0.00     0.034 A 
HETATM    2  C   UNL     2     -43.769 -54.868  13.970  1.00  0.00     0.046 A 
HETATM    3  C   UNL     2     -45.141 -54.991  14.186  1.00  0.00     0.091 A 
HETATM    4  N   UNL     2     -46.001 -54.102  13.632  1.00  0.00    -0.360 N 
ATOM      5  HN  UNL     2     -47.002 -54.215  13.795  1.00  0.00     0.165 HD
HETATM    6  CA  UNL     2     -45.571 -53.064  12.867  1.00  0.00     0.108 A 
HETATM    7  C   UNL     2     -44.193 -52.893  12.644  1.00  0.00     0.066 A 
ENDROOT
BRANCH   1   8
HETATM    8  N   UNL     2     -41.855 -53.672  12.945  1.00  0.00    -0.376 N 
HETATM    9  C   UNL     2     -41.321 -52.692  12.021  1.00  0.00     0.154 C 
HETATM   10  C   UNL     2     -40.388 -51.764  12.816  1.00  0.00     0.136 C 
HETATM   11  C   UNL     2     -41.158 -50.862  13.807  1.00  0.00     0.041 C 
HETATM   12  O   UNL     2     -39.358 -52.510  13.457  1.00  0.00    -0.378 OA
HETATM   13  C   UNL     2     -39.868 -53.488  14.357  1.00  0.00     0.136 C 
HETATM   14  C   UNL     2     -40.840 -54.449  13.645  1.00  0.00     0.154 C 
HETATM   15  C   UNL     2     -38.687 -54.262  14.940  1.00  0.00     0.041 C 
ENDBRANCH   1   8
BRANCH   6  16
HETATM   16  C   UNL     2     -46.567 -52.146  12.261  1.00  0.00     0.193 C 
HETATM   17  O   UNL     2     -46.938 -51.154  12.869  1.00  0.00    -0.645 OA
BRANCH  16  18
HETATM   18  OXT UNL     2     -47.063 -52.376  11.025  1.00  0.00    -0.772 OA
HETATM   19  HXT UNL     2     -46.508 -52.652  10.282  1.00  0.00     0.167 HD
ENDBRANCH  16  18
ENDBRANCH   6  16
TORSDOF 3
ENDMDL
MODEL 7
REMARK VINA RESULT:      -5.5      3.307      4.292
REMARK  3 active torsions:
REMARK  status: ('A' for Active; 'I' for Inactive)
REMARK    1  A    between atoms: N_6  and  C_11 
REMARK    2  A    between atoms: CA_16  and  C_18 
REMARK    3  A    between atoms: C_18  and  OXT_20 
ROOT
HETATM    1  C   UNL     2     -41.971 -46.023  11.285  1.00  0.00     0.034 A 
HETATM    2  C   UNL     2     -41.089 -47.057  11.665  1.00  0.00     0.046 A 
HETATM    3  C   UNL     2     -41.046 -48.245  10.936  1.00  0.00     0.091 A 
HETATM    4  N   UNL     2     -41.837 -48.405   9.847  1.00  0.00    -0.360 N 
ATOM      5  HN  UNL     2     -41.783 -49.277   9.321  1.00  0.00     0.165 HD
HETATM    6  CA  UNL     2     -42.699 -47.439   9.434  1.00  0.00     0.108 A 
HETATM    7  C   UNL     2     -42.788 -46.236  10.157  1.00  0.00     0.066 A 
ENDROOT
BRANCH   1   8
HETATM    8  N   UNL     2     -42.018 -44.787  12.021  1.00  0.00    -0.376 N 
HETATM    9  C   UNL     2     -41.525 -44.681  13.380  1.00  0.00     0.154 C 
HETATM   10  C   UNL     2     -40.400 -43.632  13.385  1.00  0.00     0.136 C 
HETATM   11  C   UNL     2     -39.138 -44.119  12.640  1.00  0.00     0.041 C 
HETATM   12  O   UNL     2     -40.870 -42.383  12.888  1.00  0.00    -0.378 OA
HETATM   13  C   UNL     2     -41.371 -42.475  11.559  1.00  0.00     0.136 C 
HETATM   14  C   UNL     2     -42.491 -43.529  11.455  1.00  0.00     0.154 C 
HETATM   15  C   UNL     2     -41.897 -41.101  11.151  1.00  0.00     0.041 C 
ENDBRANCH   1   8
BRANCH   6  16
HETATM   16  C   UNL     2     -43.512 -47.663   8.213  1.00  0.00     0.193 C 
HETATM   17  O   UNL     2     -44.708 -47.892   8.305  1.00  0.00    -0.645 OA
BRANCH  16  18
HETATM   18  OXT UNL     2     -42.954 -47.599   6.985  1.00  0.00    -0.772 OA
HETATM   19  HXT UNL     2     -42.267 -46.957   6.756  1.00  0.00     0.167 HD
ENDBRANCH  16  18
ENDBRANCH   6  16
TORSDOF 3
ENDMDL
MODEL 8
REMARK VINA RESULT:      -5.5      1.027      2.129
REMARK  3 active torsions:
REMARK  status: ('A' for Active; 'I' for Inactive)
REMARK    1  A    between atoms: N_6  and  C_11 
REMARK    2  A    between atoms: CA_16  and  C_18 
REMARK    3  A    between atoms: C_18  and  OXT_20 
ROOT
HETATM    1  C   UNL     2     -40.232 -48.649  11.429  1.00  0.00     0.034 A 
HETATM    2  C   UNL     2     -38.882 -48.727  11.835  1.00  0.00     0.046 A 
HETATM    3  C   UNL     2     -38.347 -49.943  12.259  1.00  0.00     0.091 A 
HETATM    4  N   UNL     2     -39.115 -51.060  12.265  1.00  0.00    -0.360 N 
ATOM      5  HN  UNL     2     -38.702 -51.942  12.569  1.00  0.00     0.165 HD
HETATM    6  CA  UNL     2     -40.418 -51.042  11.877  1.00  0.00     0.108 A 
HETATM    7  C   UNL     2     -41.000 -49.829  11.465  1.00  0.00     0.066 A 
ENDROOT
BRANCH   1   8
HETATM    8  N   UNL     2     -40.794 -47.403  10.977  1.00  0.00    -0.376 N 
HETATM    9  C   UNL     2     -42.184 -47.284  10.583  1.00  0.00     0.154 C 
HETATM   10  C   UNL     2     -42.840 -46.243  11.506  1.00  0.00     0.136 C 
HETATM   11  C   UNL     2     -42.977 -46.748  12.959  1.00  0.00     0.041 C 
HETATM   12  O   UNL     2     -42.155 -44.997  11.432  1.00  0.00    -0.378 OA
HETATM   13  C   UNL     2     -40.784 -45.103  11.802  1.00  0.00     0.136 C 
HETATM   14  C   UNL     2     -40.051 -46.150  10.940  1.00  0.00     0.154 C 
HETATM   15  C   UNL     2     -40.137 -43.729  11.632  1.00  0.00     0.041 C 
ENDBRANCH   1   8
BRANCH   6  16
HETATM   16  C   UNL     2     -41.195 -52.306  11.874  1.00  0.00     0.193 C 
HETATM   17  O   UNL     2     -42.376 -52.303  12.184  1.00  0.00    -0.645 OA
BRANCH  16  18
HETATM   18  OXT UNL     2     -40.620 -53.474  11.511  1.00  0.00    -0.772 OA
HETATM   19  HXT UNL     2     -39.685 -53.667  11.669  1.00  0.00     0.167 HD
ENDBRANCH  16  18
ENDBRANCH   6  16
TORSDOF 3
ENDMDL
MODEL 9
REMARK VINA RESULT:      -5.5      3.875      6.677
REMARK  3 active torsions:
REMARK  status: ('A' for Active; 'I' for Inactive)
REMARK    1  A    between atoms: N_6  and  C_11 
REMARK    2  A    between atoms: CA_16  and  C_18 
REMARK    3  A    between atoms: C_18  and  OXT_20 
ROOT
HETATM    1  C   UNL     2     -42.453 -52.279  13.044  1.00  0.00     0.034 A 
HETATM    2  C   UNL     2     -41.619 -52.943  13.970  1.00  0.00     0.046 A 
HETATM    3  C   UNL     2     -40.253 -52.666  14.008  1.00  0.00     0.091 A 
HETATM    4  N   UNL     2     -39.721 -51.743  13.170  1.00  0.00    -0.360 N 
ATOM      5  HN  UNL     2     -38.722 -51.547  13.220  1.00  0.00     0.165 HD
HETATM    6  CA  UNL     2     -40.480 -51.070  12.264  1.00  0.00     0.108 A 
HETATM    7  C   UNL     2     -41.858 -51.339  12.180  1.00  0.00     0.066 A 
ENDROOT
BRANCH   1   8
HETATM    8  N   UNL     2     -43.866 -52.545  13.002  1.00  0.00    -0.376 N 
HETATM    9  C   UNL     2     -44.400 -53.785  12.476  1.00  0.00     0.154 C 
HETATM   10  C   UNL     2     -45.188 -54.468  13.607  1.00  0.00     0.136 C 
HETATM   11  C   UNL     2     -44.269 -54.986  14.735  1.00  0.00     0.041 C 
HETATM   12  O   UNL     2     -46.213 -53.611  14.099  1.00  0.00    -0.378 OA
HETATM   13  C   UNL     2     -45.704 -52.381  14.605  1.00  0.00     0.136 C 
HETATM   14  C   UNL     2     -44.874 -51.639  13.540  1.00  0.00     0.154 C 
HETATM   15  C   UNL     2     -46.886 -51.523  15.050  1.00  0.00     0.041 C 
ENDBRANCH   1   8
BRANCH   6  16
HETATM   16  C   UNL     2     -39.843 -50.046  11.399  1.00  0.00     0.193 C 
HETATM   17  O   UNL     2     -38.903 -49.388  11.816  1.00  0.00    -0.645 OA
BRANCH  16  18
HETATM   18  OXT UNL     2     -40.274 -49.838  10.136  1.00  0.00    -0.772 OA
HETATM   19  HXT UNL     2     -40.183 -50.501   9.437  1.00  0.00     0.167 HD
ENDBRANCH  16  18
ENDBRANCH   6  16
TORSDOF 3
ENDMDL
