MODEL 1
REMARK VINA RESULT:      -5.5      0.000      0.000
REMARK  4 active torsions:
REMARK  status: ('A' for Active; 'I' for Inactive)
REMARK       I    between atoms: N_2  and  C_3 
REMARK    1  A    between atoms: C_3  and  C_5 
REMARK    2  A    between atoms: C_5  and  N_6 
REMARK    3  A    between atoms: C_9  and  N_12 
REMARK       I    between atoms: N_12  and  C_13 
REMARK       I    between atoms: C_13  and  N_15 
REMARK    4  A    between atoms: N_15  and  C_16 
ROOT
HETATM    1  N   UNL     1     -41.481 -46.652  11.492  1.00  0.00     0.097 N 
HETATM    2  C   UNL     1     -41.985 -47.129  12.787  1.00  0.00     0.275 C 
HETATM    3  C   UNL     1     -41.307 -48.402  13.281  1.00  0.00     0.055 C 
HETATM    4  C   UNL     1     -41.516 -49.536  12.281  1.00  0.00     0.089 C 
HETATM    5  C   UNL     1     -41.042 -49.109  10.892  1.00  0.00     0.055 C 
HETATM    6  C   UNL     1     -41.496 -47.708  10.469  1.00  0.00     0.275 C 
ENDROOT
BRANCH   4   7
HETATM    7  N   UNL     1     -42.898 -50.019  12.303  1.00  0.00    -0.338 N 
HETATM    8  C   UNL     1     -43.136 -51.272  12.863  1.00  0.00     0.322 C 
HETATM    9  O   UNL     1     -42.208 -51.982  13.237  1.00  0.00    -0.247 OA
HETATM   10  N   UNL     1     -44.470 -51.584  12.900  1.00  0.00    -0.289 N 
HETATM   11  H   UNL     1     -45.123 -51.075  12.332  1.00  0.00     0.172 HD
HETATM   12  H   UNL     1     -43.632 -49.336  12.450  1.00  0.00     0.164 HD
BRANCH  10  13
HETATM   13  C   UNL     1     -44.878 -52.800  13.388  1.00  0.00     0.152 A 
HETATM   14  N   UNL     1     -44.433 -53.996  13.091  1.00  0.00    -0.346 N 
HETATM   15  C   UNL     1     -45.206 -54.946  13.718  1.00  0.00     0.097 A 
ATOM     16  HN  UNL     1     -43.635 -54.193  12.486  1.00  0.00     0.167 HD
HETATM   17  C   UNL     1     -46.210 -54.452  14.524  1.00  0.00     0.070 A 
HETATM   18  S   UNL     1     -46.159 -52.734  14.516  1.00  0.00    -0.064 SA
ENDBRANCH  10  13
ENDBRANCH   4   7
BRANCH   1  19
HETATM   19  C   UNL     1     -40.162 -45.978  11.621  1.00  0.00     0.374 C 
BRANCH  19  20
HETATM   20  C   UNL     1     -39.937 -44.985  10.459  1.00  0.00     0.245 C 
HETATM   21  N   UNL     1     -38.883 -45.327   9.637  1.00  0.00    -0.364 N 
HETATM   22  C   UNL     1     -38.554 -44.578   8.453  1.00  0.00     0.149 C 
HETATM   23  H   UNL     1     -38.516 -46.266   9.770  1.00  0.00     0.161 HD
HETATM   24  O   UNL     1     -40.604 -43.966  10.321  1.00  0.00    -0.272 OA
ENDBRANCH  19  20
ENDBRANCH   1  19
TORSDOF 4
ENDMDL
MODEL 2
REMARK VINA RESULT:      -5.3      5.050      6.533
REMARK  4 active torsions:
REMARK  status: ('A' for Active; 'I' for Inactive)
REMARK       I    between atoms: N_2  and  C_3 
REMARK    1  A    between atoms: C_3  and  C_5 
REMARK    2  A    between atoms: C_5  and  N_6 
REMARK    3  A    between atoms: C_9  and  N_12 
REMARK       I    between atoms: N_12  and  C_13 
REMARK       I    between atoms: C_13  and  N_15 
REMARK    4  A    between atoms: N_15  and  C_16 
ROOT
HETATM    1  N   UNL     1     -42.853 -46.622  10.790  1.00  0.00     0.097 N 
HETATM    2  C   UNL     1     -41.779 -45.782  11.337  1.00  0.00     0.275 C 
HETATM    3  C   UNL     1     -40.380 -46.220  10.919  1.00  0.00     0.055 C 
HETATM    4  C   UNL     1     -40.108 -47.647  11.389  1.00  0.00     0.089 C 
HETATM    5  C   UNL     1     -41.203 -48.586  10.884  1.00  0.00     0.055 C 
HETATM    6  C   UNL     1     -42.628 -48.051  11.055  1.00  0.00     0.275 C 
ENDROOT
BRANCH   4   7
HETATM    7  N   UNL     1     -39.914 -47.703  12.840  1.00  0.00    -0.338 N 
HETATM    8  C   UNL     1     -38.776 -48.350  13.315  1.00  0.00     0.322 C 
HETATM    9  O   UNL     1     -38.015 -48.933  12.548  1.00  0.00    -0.247 OA
HETATM   10  N   UNL     1     -38.661 -48.272  14.678  1.00  0.00    -0.289 N 
HETATM   11  H   UNL     1     -39.455 -48.020  15.237  1.00  0.00     0.172 HD
HETATM   12  H   UNL     1     -40.213 -46.902  13.384  1.00  0.00     0.164 HD
BRANCH  10  13
HETATM   13  C   UNL     1     -37.614 -48.889  15.316  1.00  0.00     0.152 A 
HETATM   14  N   UNL     1     -37.386 -50.170  15.468  1.00  0.00    -0.346 N 
HETATM   15  C   UNL     1     -36.288 -50.351  16.278  1.00  0.00     0.097 A 
ATOM     16  HN  UNL     1     -37.937 -50.919  15.049  1.00  0.00     0.167 HD
HETATM   17  C   UNL     1     -35.668 -49.194  16.699  1.00  0.00     0.070 A 
HETATM   18  S   UNL     1     -36.475 -47.834  16.026  1.00  0.00    -0.064 SA
ENDBRANCH  10  13
ENDBRANCH   4   7
BRANCH   1  19
HETATM   19  C   UNL     1     -43.118 -46.326   9.356  1.00  0.00     0.374 C 
BRANCH  19  20
HETATM   20  C   UNL     1     -44.370 -47.081   8.861  1.00  0.00     0.245 C 
HETATM   21  N   UNL     1     -45.532 -46.705   9.503  1.00  0.00    -0.364 N 
HETATM   22  C   UNL     1     -46.820 -47.232   9.138  1.00  0.00     0.149 C 
HETATM   23  H   UNL     1     -45.462 -45.862  10.067  1.00  0.00     0.161 HD
HETATM   24  O   UNL     1     -44.318 -47.967   8.014  1.00  0.00    -0.272 OA
ENDBRANCH  19  20
ENDBRANCH   1  19
TORSDOF 4
ENDMDL
MODEL 3
REMARK VINA RESULT:      -5.2      3.227      8.240
REMARK  4 active torsions:
REMARK  status: ('A' for Active; 'I' for Inactive)
REMARK       I    between atoms: N_2  and  C_3 
REMARK    1  A    between atoms: C_3  and  C_5 
REMARK    2  A    between atoms: C_5  and  N_6 
REMARK    3  A    between atoms: C_9  and  N_12 
REMARK       I    between atoms: N_12  and  C_13 
REMARK       I    between atoms: C_13  and  N_15 
REMARK    4  A    between atoms: N_15  and  C_16 
ROOT
HETATM    1  N   UNL     1     -42.746 -53.747  13.054  1.00  0.00     0.097 N 
HETATM    2  C   UNL     1     -41.426 -53.261  12.630  1.00  0.00     0.275 C 
HETATM    3  C   UNL     1     -40.952 -52.024  13.386  1.00  0.00     0.055 C 
HETATM    4  C   UNL     1     -41.934 -50.872  13.185  1.00  0.00     0.089 C 
HETATM    5  C   UNL     1     -43.346 -51.307  13.576  1.00  0.00     0.055 C 
HETATM    6  C   UNL     1     -43.758 -52.682  13.041  1.00  0.00     0.275 C 
ENDROOT
BRANCH   4   7
HETATM    7  N   UNL     1     -41.847 -50.328  11.827  1.00  0.00    -0.338 N 
HETATM    8  C   UNL     1     -42.363 -49.053  11.608  1.00  0.00     0.322 C 
HETATM    9  O   UNL     1     -42.955 -48.450  12.498  1.00  0.00    -0.247 OA
HETATM   10  N   UNL     1     -42.156 -48.619  10.325  1.00  0.00    -0.289 N 
HETATM   11  H   UNL     1     -41.915 -49.274   9.603  1.00  0.00     0.172 HD
HETATM   12  H   UNL     1     -41.025 -50.559  11.282  1.00  0.00     0.164 HD
BRANCH  10  13
HETATM   13  C   UNL     1     -42.636 -47.396   9.927  1.00  0.00     0.152 A 
HETATM   14  N   UNL     1     -42.336 -46.207  10.387  1.00  0.00    -0.346 N 
HETATM   15  C   UNL     1     -43.140 -45.263   9.789  1.00  0.00     0.097 A 
ATOM     16  HN  UNL     1     -41.616 -46.010  11.082  1.00  0.00     0.167 HD
HETATM   17  C   UNL     1     -44.017 -45.750   8.844  1.00  0.00     0.070 A 
HETATM   18  S   UNL     1     -43.802 -47.447   8.680  1.00  0.00    -0.064 SA
ENDBRANCH  10  13
ENDBRANCH   4   7
BRANCH   1  19
HETATM   19  C   UNL     1     -42.682 -54.481  14.346  1.00  0.00     0.374 C 
BRANCH  19  20
HETATM   20  C   UNL     1     -44.098 -54.716  14.915  1.00  0.00     0.245 C 
HETATM   21  N   UNL     1     -44.353 -54.005  16.071  1.00  0.00    -0.364 N 
HETATM   22  C   UNL     1     -45.638 -54.022  16.718  1.00  0.00     0.149 C 
HETATM   23  H   UNL     1     -43.674 -53.282  16.294  1.00  0.00     0.161 HD
HETATM   24  O   UNL     1     -44.893 -55.500  14.410  1.00  0.00    -0.272 OA
ENDBRANCH  19  20
ENDBRANCH   1  19
TORSDOF 4
ENDMDL
MODEL 4
REMARK VINA RESULT:      -5.2      4.432      8.544
REMARK  4 active torsions:
REMARK  status: ('A' for Active; 'I' for Inactive)
REMARK       I    between atoms: N_2  and  C_3 
REMARK    1  A    between atoms: C_3  and  C_5 
REMARK    2  A    between atoms: C_5  and  N_6 
REMARK    3  A    between atoms: C_9  and  N_12 
REMARK       I    between atoms: N_12  and  C_13 
REMARK       I    between atoms: C_13  and  N_15 
REMARK    4  A    between atoms: N_15  and  C_16 
ROOT
HETATM    1  N   UNL     1     -39.973 -54.029  14.581  1.00  0.00     0.097 N 
HETATM    2  C   UNL     1     -39.922 -52.577  14.799  1.00  0.00     0.275 C 
HETATM    3  C   UNL     1     -41.291 -51.908  14.822  1.00  0.00     0.055 C 
HETATM    4  C   UNL     1     -42.012 -52.130  13.493  1.00  0.00     0.089 C 
HETATM    5  C   UNL     1     -42.082 -53.623  13.175  1.00  0.00     0.055 C 
HETATM    6  C   UNL     1     -40.771 -54.383  13.398  1.00  0.00     0.275 C 
ENDROOT
BRANCH   4   7
HETATM    7  N   UNL     1     -41.412 -51.332  12.421  1.00  0.00    -0.338 N 
HETATM    8  C   UNL     1     -42.033 -50.132  12.084  1.00  0.00     0.322 C 
HETATM    9  O   UNL     1     -43.097 -49.805  12.602  1.00  0.00    -0.247 OA
HETATM   10  N   UNL     1     -41.343 -49.437  11.127  1.00  0.00    -0.289 N 
HETATM   11  H   UNL     1     -40.645 -49.900  10.572  1.00  0.00     0.172 HD
HETATM   12  H   UNL     1     -40.401 -51.329  12.349  1.00  0.00     0.164 HD
BRANCH  10  13
HETATM   13  C   UNL     1     -41.836 -48.248  10.651  1.00  0.00     0.152 A 
HETATM   14  N   UNL     1     -42.868 -48.040   9.871  1.00  0.00    -0.346 N 
HETATM   15  C   UNL     1     -42.936 -46.706   9.539  1.00  0.00     0.097 A 
ATOM     16  HN  UNL     1     -43.522 -48.757   9.558  1.00  0.00     0.167 HD
HETATM   17  C   UNL     1     -41.969 -45.906  10.110  1.00  0.00     0.070 A 
HETATM   18  S   UNL     1     -40.961 -46.860  11.125  1.00  0.00    -0.064 SA
ENDBRANCH  10  13
ENDBRANCH   4   7
BRANCH   1  19
HETATM   19  C   UNL     1     -40.385 -54.763  15.808  1.00  0.00     0.374 C 
BRANCH  19  20
HETATM   20  C   UNL     1     -39.299 -55.776  16.231  1.00  0.00     0.245 C 
HETATM   21  N   UNL     1     -39.586 -56.432  17.411  1.00  0.00    -0.364 N 
HETATM   22  C   UNL     1     -38.742 -57.470  17.941  1.00  0.00     0.149 C 
HETATM   23  H   UNL     1     -40.538 -56.320  17.749  1.00  0.00     0.161 HD
HETATM   24  O   UNL     1     -38.261 -55.938  15.599  1.00  0.00    -0.272 OA
ENDBRANCH  19  20
ENDBRANCH   1  19
TORSDOF 4
ENDMDL
MODEL 5
REMARK VINA RESULT:      -5.1      2.988      8.477
REMARK  4 active torsions:
REMARK  status: ('A' for Active; 'I' for Inactive)
REMARK       I    between atoms: N_2  and  C_3 
REMARK    1  A    between atoms: C_3  and  C_5 
REMARK    2  A    between atoms: C_5  and  N_6 
REMARK    3  A    between atoms: C_9  and  N_12 
REMARK       I    between atoms: N_12  and  C_13 
REMARK       I    between atoms: C_13  and  N_15 
REMARK    4  A    between atoms: N_15  and  C_16 
ROOT
HETATM    1  N   UNL     1     -42.912 -52.445  13.697  1.00  0.00     0.097 N 
HETATM    2  C   UNL     1     -42.681 -52.551  12.250  1.00  0.00     0.275 C 
HETATM    3  C   UNL     1     -41.224 -52.370  11.843  1.00  0.00     0.055 C 
HETATM    4  C   UNL     1     -40.721 -50.992  12.271  1.00  0.00     0.089 C 
HETATM    5  C   UNL     1     -40.953 -50.788  13.767  1.00  0.00     0.055 C 
HETATM    6  C   UNL     1     -42.340 -51.213  14.260  1.00  0.00     0.275 C 
ENDROOT
BRANCH   4   7
HETATM    7  N   UNL     1     -41.299 -49.932  11.441  1.00  0.00    -0.338 N 
HETATM    8  C   UNL     1     -40.718 -48.668  11.511  1.00  0.00     0.322 C 
HETATM    9  O   UNL     1     -39.817 -48.431  12.310  1.00  0.00    -0.247 OA
HETATM   10  N   UNL     1     -41.289 -47.781  10.637  1.00  0.00    -0.289 N 
HETATM   11  H   UNL     1     -42.184 -47.981  10.228  1.00  0.00     0.172 HD
HETATM   12  H   UNL     1     -41.654 -50.192  10.528  1.00  0.00     0.164 HD
BRANCH  10  13
HETATM   13  C   UNL     1     -40.860 -46.478  10.602  1.00  0.00     0.152 A 
HETATM   14  N   UNL     1     -39.708 -46.002  10.201  1.00  0.00    -0.346 N 
HETATM   15  C   UNL     1     -39.653 -44.650  10.452  1.00  0.00     0.097 A 
ATOM     16  HN  UNL     1     -38.964 -46.550   9.769  1.00  0.00     0.167 HD
HETATM   17  C   UNL     1     -40.792 -44.106  11.006  1.00  0.00     0.070 A 
HETATM   18  S   UNL     1     -41.983 -45.332  11.189  1.00  0.00    -0.064 SA
ENDBRANCH  10  13
ENDBRANCH   4   7
BRANCH   1  19
HETATM   19  C   UNL     1     -42.489 -53.673  14.421  1.00  0.00     0.374 C 
BRANCH  19  20
HETATM   20  C   UNL     1     -43.711 -54.419  14.998  1.00  0.00     0.245 C 
HETATM   21  N   UNL     1     -44.688 -53.579  15.493  1.00  0.00    -0.364 N 
HETATM   22  C   UNL     1     -45.940 -54.069  16.004  1.00  0.00     0.149 C 
HETATM   23  H   UNL     1     -44.582 -52.598  15.246  1.00  0.00     0.161 HD
HETATM   24  O   UNL     1     -43.775 -55.642  15.055  1.00  0.00    -0.272 OA
ENDBRANCH  19  20
ENDBRANCH   1  19
TORSDOF 4
ENDMDL
MODEL 6
REMARK VINA RESULT:      -5.0      4.367      6.991
REMARK  4 active torsions:
REMARK  status: ('A' for Active; 'I' for Inactive)
REMARK       I    between atoms: N_2  and  C_3 
REMARK    1  A    between atoms: C_3  and  C_5 
REMARK    2  A    between atoms: C_5  and  N_6 
REMARK    3  A    between atoms: C_9  and  N_12 
REMARK       I    between atoms: N_12  and  C_13 
REMARK       I    between atoms: C_13  and  N_15 
REMARK    4  A    between atoms: N_15  and  C_16 
ROOT
HETATM    1  N   UNL     1     -39.286 -51.362  12.476  1.00  0.00     0.097 N 
HETATM    2  C   UNL     1     -38.836 -50.159  11.762  1.00  0.00     0.275 C 
HETATM    3  C   UNL     1     -39.295 -48.854  12.402  1.00  0.00     0.055 C 
HETATM    4  C   UNL     1     -40.821 -48.796  12.450  1.00  0.00     0.089 C 
HETATM    5  C   UNL     1     -41.374 -50.033  13.155  1.00  0.00     0.055 C 
HETATM    6  C   UNL     1     -40.737 -51.354  12.714  1.00  0.00     0.275 C 
ENDROOT
BRANCH   4   7
HETATM    7  N   UNL     1     -41.388 -48.580  11.117  1.00  0.00    -0.338 N 
HETATM    8  C   UNL     1     -42.709 -48.146  11.039  1.00  0.00     0.322 C 
HETATM    9  O   UNL     1     -43.399 -48.041  12.049  1.00  0.00    -0.247 OA
HETATM   10  N   UNL     1     -43.106 -47.905   9.750  1.00  0.00    -0.289 N 
HETATM   11  H   UNL     1     -42.576 -48.275   8.982  1.00  0.00     0.172 HD
HETATM   12  H   UNL     1     -40.773 -48.216  10.399  1.00  0.00     0.164 HD
BRANCH  10  13
HETATM   13  C   UNL     1     -44.393 -47.506   9.490  1.00  0.00     0.152 A 
HETATM   14  N   UNL     1     -45.504 -48.192   9.601  1.00  0.00    -0.346 N 
HETATM   15  C   UNL     1     -46.557 -47.448   9.120  1.00  0.00     0.097 A 
ATOM     16  HN  UNL     1     -45.577 -49.134   9.985  1.00  0.00     0.167 HD
HETATM   17  C   UNL     1     -46.233 -46.180   8.686  1.00  0.00     0.070 A 
HETATM   18  S   UNL     1     -44.553 -45.904   8.921  1.00  0.00    -0.064 SA
ENDBRANCH  10  13
ENDBRANCH   4   7
BRANCH   1  19
HETATM   19  C   UNL     1     -38.490 -51.610  13.708  1.00  0.00     0.374 C 
BRANCH  19  20
HETATM   20  C   UNL     1     -38.856 -52.974  14.333  1.00  0.00     0.245 C 
HETATM   21  N   UNL     1     -39.152 -52.903  15.679  1.00  0.00    -0.364 N 
HETATM   22  C   UNL     1     -39.591 -54.047  16.433  1.00  0.00     0.149 C 
HETATM   23  H   UNL     1     -39.284 -51.964  16.045  1.00  0.00     0.161 HD
HETATM   24  O   UNL     1     -38.833 -54.022  13.696  1.00  0.00    -0.272 OA
ENDBRANCH  19  20
ENDBRANCH   1  19
TORSDOF 4
ENDMDL
MODEL 7
REMARK VINA RESULT:      -5.0      4.709      5.210
REMARK  4 active torsions:
REMARK  status: ('A' for Active; 'I' for Inactive)
REMARK       I    between atoms: N_2  and  C_3 
REMARK    1  A    between atoms: C_3  and  C_5 
REMARK    2  A    between atoms: C_5  and  N_6 
REMARK    3  A    between atoms: C_9  and  N_12 
REMARK       I    between atoms: N_12  and  C_13 
REMARK       I    between atoms: C_13  and  N_15 
REMARK    4  A    between atoms: N_15  and  C_16 
ROOT
HETATM    1  N   UNL     1     -41.361 -48.897  12.211  1.00  0.00     0.097 N 
HETATM    2  C   UNL     1     -40.128 -48.821  13.008  1.00  0.00     0.275 C 
HETATM    3  C   UNL     1     -39.068 -49.838  12.602  1.00  0.00     0.055 C 
HETATM    4  C   UNL     1     -39.608 -51.258  12.757  1.00  0.00     0.089 C 
HETATM    5  C   UNL     1     -40.913 -51.414  11.978  1.00  0.00     0.055 C 
HETATM    6  C   UNL     1     -41.905 -50.262  12.164  1.00  0.00     0.275 C 
ENDROOT
BRANCH   4   7
HETATM    7  N   UNL     1     -39.722 -51.634  14.168  1.00  0.00    -0.338 N 
HETATM    8  C   UNL     1     -39.196 -52.865  14.553  1.00  0.00     0.322 C 
HETATM    9  O   UNL     1     -38.741 -53.645  13.722  1.00  0.00    -0.247 OA
HETATM   10  N   UNL     1     -39.290 -53.074  15.904  1.00  0.00    -0.289 N 
HETATM   11  H   UNL     1     -39.913 -52.516  16.459  1.00  0.00     0.172 HD
HETATM   12  H   UNL     1     -39.639 -50.896  14.858  1.00  0.00     0.164 HD
BRANCH  10  13
HETATM   13  C   UNL     1     -38.853 -54.256  16.448  1.00  0.00     0.152 A 
HETATM   14  N   UNL     1     -39.119 -55.482  16.072  1.00  0.00    -0.346 N 
HETATM   15  C   UNL     1     -38.574 -56.371  16.971  1.00  0.00     0.097 A 
ATOM     16  HN  UNL     1     -39.649 -55.739  15.240  1.00  0.00     0.167 HD
HETATM   17  C   UNL     1     -37.859 -55.801  18.003  1.00  0.00     0.070 A 
HETATM   18  S   UNL     1     -37.846 -54.093  17.818  1.00  0.00    -0.064 SA
ENDBRANCH  10  13
ENDBRANCH   4   7
BRANCH   1  19
HETATM   19  C   UNL     1     -41.194 -48.284  10.866  1.00  0.00     0.374 C 
BRANCH  19  20
HETATM   20  C   UNL     1     -42.556 -47.831  10.297  1.00  0.00     0.245 C 
HETATM   21  N   UNL     1     -42.646 -47.943   8.924  1.00  0.00    -0.364 N 
HETATM   22  C   UNL     1     -43.855 -47.647   8.204  1.00  0.00     0.149 C 
HETATM   23  H   UNL     1     -41.903 -48.479   8.484  1.00  0.00     0.161 HD
HETATM   24  O   UNL     1     -43.447 -47.369  11.001  1.00  0.00    -0.272 OA
ENDBRANCH  19  20
ENDBRANCH   1  19
TORSDOF 4
ENDMDL
MODEL 8
REMARK VINA RESULT:      -4.9      3.476      4.733
REMARK  4 active torsions:
REMARK  status: ('A' for Active; 'I' for Inactive)
REMARK       I    between atoms: N_2  and  C_3 
REMARK    1  A    between atoms: C_3  and  C_5 
REMARK    2  A    between atoms: C_5  and  N_6 
REMARK    3  A    between atoms: C_9  and  N_12 
REMARK       I    between atoms: N_12  and  C_13 
REMARK       I    between atoms: C_13  and  N_15 
REMARK    4  A    between atoms: N_15  and  C_16 
ROOT
HETATM    1  N   UNL     1     -41.003 -43.519  12.110  1.00  0.00     0.097 N 
HETATM    2  C   UNL     1     -39.753 -44.128  11.634  1.00  0.00     0.275 C 
HETATM    3  C   UNL     1     -39.925 -45.004  10.399  1.00  0.00     0.055 C 
HETATM    4  C   UNL     1     -40.891 -46.150  10.692  1.00  0.00     0.089 C 
HETATM    5  C   UNL     1     -42.215 -45.601  11.224  1.00  0.00     0.055 C 
HETATM    6  C   UNL     1     -42.068 -44.515  12.294  1.00  0.00     0.275 C 
ENDROOT
BRANCH   4   7
HETATM    7  N   UNL     1     -40.280 -47.151  11.569  1.00  0.00    -0.338 N 
HETATM    8  C   UNL     1     -40.701 -48.472  11.433  1.00  0.00     0.322 C 
HETATM    9  O   UNL     1     -41.618 -48.767  10.672  1.00  0.00    -0.247 OA
HETATM   10  N   UNL     1     -40.008 -49.328  12.247  1.00  0.00    -0.289 N 
HETATM   11  H   UNL     1     -39.477 -48.970  13.021  1.00  0.00     0.172 HD
HETATM   12  H   UNL     1     -39.302 -47.033  11.805  1.00  0.00     0.164 HD
BRANCH  10  13
HETATM   13  C   UNL     1     -40.321 -50.664  12.266  1.00  0.00     0.152 A 
HETATM   14  N   UNL     1     -40.888 -51.388  11.333  1.00  0.00    -0.346 N 
HETATM   15  C   UNL     1     -41.130 -52.655  11.814  1.00  0.00     0.097 A 
ATOM     16  HN  UNL     1     -41.116 -51.063  10.394  1.00  0.00     0.167 HD
HETATM   17  C   UNL     1     -40.701 -52.889  13.103  1.00  0.00     0.070 A 
HETATM   18  S   UNL     1     -39.939 -51.477  13.718  1.00  0.00    -0.064 SA
ENDBRANCH  10  13
ENDBRANCH   4   7
BRANCH   1  19
HETATM   19  C   UNL     1     -41.417 -42.365  11.269  1.00  0.00     0.374 C 
BRANCH  19  20
HETATM   20  C   UNL     1     -40.927 -41.035  11.882  1.00  0.00     0.245 C 
HETATM   21  N   UNL     1     -41.046 -39.957  11.029  1.00  0.00    -0.364 N 
HETATM   22  C   UNL     1     -40.718 -38.615  11.432  1.00  0.00     0.149 C 
HETATM   23  H   UNL     1     -41.607 -40.121  10.198  1.00  0.00     0.161 HD
HETATM   24  O   UNL     1     -40.434 -40.964  13.002  1.00  0.00    -0.272 OA
ENDBRANCH  19  20
ENDBRANCH   1  19
TORSDOF 4
ENDMDL
MODEL 9
REMARK VINA RESULT:      -4.8      5.126      6.946
REMARK  4 active torsions:
REMARK  status: ('A' for Active; 'I' for Inactive)
REMARK       I    between atoms: N_2  and  C_3 
REMARK    1  A    between atoms: C_3  and  C_5 
REMARK    2  A    between atoms: C_5  and  N_6 
REMARK    3  A    between atoms: C_9  and  N_12 
REMARK       I    between atoms: N_12  and  C_13 
REMARK       I    between atoms: C_13  and  N_15 
REMARK    4  A    between atoms: N_15  and  C_16 
ROOT
HETATM    1  N   UNL     1     -37.803 -48.651  15.490  1.00  0.00     0.097 N 
HETATM    2  C   UNL     1     -39.179 -49.116  15.718  1.00  0.00     0.275 C 
HETATM    3  C   UNL     1     -39.685 -50.087  14.658  1.00  0.00     0.055 C 
HETATM    4  C   UNL     1     -39.662 -49.428  13.280  1.00  0.00     0.089 C 
HETATM    5  C   UNL     1     -38.266 -48.888  12.976  1.00  0.00     0.055 C 
HETATM    6  C   UNL     1     -37.616 -48.121  14.132  1.00  0.00     0.275 C 
ENDROOT
BRANCH   4   7
HETATM    7  N   UNL     1     -40.718 -48.420  13.155  1.00  0.00    -0.338 N 
HETATM    8  C   UNL     1     -41.401 -48.347  11.943  1.00  0.00     0.322 C 
HETATM    9  O   UNL     1     -41.063 -49.038  10.986  1.00  0.00    -0.247 OA
HETATM   10  N   UNL     1     -42.413 -47.426  11.967  1.00  0.00    -0.289 N 
HETATM   11  H   UNL     1     -42.440 -46.724  12.685  1.00  0.00     0.172 HD
HETATM   12  H   UNL     1     -41.278 -48.222  13.976  1.00  0.00     0.164 HD
BRANCH  10  13
HETATM   13  C   UNL     1     -43.164 -47.199  10.841  1.00  0.00     0.152 A 
HETATM   14  N   UNL     1     -44.052 -47.978  10.275  1.00  0.00    -0.346 N 
HETATM   15  C   UNL     1     -44.478 -47.413   9.094  1.00  0.00     0.097 A 
ATOM     16  HN  UNL     1     -44.378 -48.868  10.651  1.00  0.00     0.167 HD
HETATM   17  C   UNL     1     -43.933 -46.181   8.800  1.00  0.00     0.070 A 
HETATM   18  S   UNL     1     -42.874 -45.705  10.066  1.00  0.00    -0.064 SA
ENDBRANCH  10  13
ENDBRANCH   4   7
BRANCH   1  19
HETATM   19  C   UNL     1     -36.798 -49.682  15.861  1.00  0.00     0.374 C 
BRANCH  19  20
HETATM   20  C   UNL     1     -35.713 -49.085  16.784  1.00  0.00     0.245 C 
HETATM   21  N   UNL     1     -35.939 -49.318  18.126  1.00  0.00    -0.364 N 
HETATM   22  C   UNL     1     -35.010 -48.912  19.146  1.00  0.00     0.149 C 
HETATM   23  H   UNL     1     -36.662 -50.003  18.331  1.00  0.00     0.161 HD
HETATM   24  O   UNL     1     -34.772 -48.423  16.358  1.00  0.00    -0.272 OA
ENDBRANCH  19  20
ENDBRANCH   1  19
TORSDOF 4
ENDMDL
