MODEL 1
REMARK VINA RESULT:      -5.4      0.000      0.000
REMARK  4 active torsions:
REMARK  status: ('A' for Active; 'I' for Inactive)
REMARK    1  A    between atoms: C_5  and  N_6 
REMARK    2  A    between atoms: C_7  and  C_8 
REMARK    3  A    between atoms: C_8  and  C_9 
REMARK    4  A    between atoms: C_9  and  O_11 
ROOT
HETATM    1  C   UNL     1     -46.353 -48.058   8.756  1.00  0.00     0.089 C 
HETATM    2  C   UNL     1     -45.180 -47.316   9.327  1.00  0.00     0.081 A 
HETATM    3  N   UNL     1     -45.028 -46.053   9.130  1.00  0.00    -0.337 N 
ATOM      4  HN  UNL     1     -45.702 -45.534   8.567  1.00  0.00     0.168 HD
HETATM    5  C   UNL     1     -43.950 -45.413   9.688  1.00  0.00     0.091 A 
HETATM    6  C   UNL     1     -43.003 -46.059  10.404  1.00  0.00     0.058 A 
HETATM    7  C   UNL     1     -43.219 -47.515  10.634  1.00  0.00     0.256 A 
HETATM    8  O   UNL     1     -42.466 -48.189  11.330  1.00  0.00    -0.267 OA
HETATM    9  N   UNL     1     -44.314 -48.064  10.056  1.00  0.00    -0.313 N 
HETATM   10  H   UNL     1     -44.472 -49.046  10.227  1.00  0.00     0.170 HD
ENDROOT
BRANCH   6  11
HETATM   11  C   UNL     1     -41.780 -45.524  11.104  1.00  0.00     0.157 C 
BRANCH  11  12
HETATM   12  C   UNL     1     -40.447 -45.467  10.375  1.00  0.00     0.144 C 
HETATM   13  O   UNL     1     -39.979 -44.506   9.783  1.00  0.00    -0.650 OA
BRANCH  12  14
HETATM   14  O   UNL     1     -39.789 -46.655  10.425  1.00  0.00    -0.776 OA
HETATM   15  H   UNL     1     -39.595 -46.968  11.329  1.00  0.00     0.167 HD
ENDBRANCH  12  14
ENDBRANCH  11  12
ENDBRANCH   6  11
BRANCH   5  16
HETATM   16  N   UNL     1     -43.913 -44.051   9.479  1.00  0.00    -0.288 NA
HETATM   17  H   UNL     1     -43.783 -43.597  10.381  1.00  0.00     0.125 HD
HETATM   18  H   UNL     1     -44.764 -43.690   9.037  1.00  0.00     0.125 HD
ENDBRANCH   5  16
TORSDOF 4
ENDMDL
MODEL 2
REMARK VINA RESULT:      -5.4      1.277      2.289
REMARK  4 active torsions:
REMARK  status: ('A' for Active; 'I' for Inactive)
REMARK    1  A    between atoms: C_5  and  N_6 
REMARK    2  A    between atoms: C_7  and  C_8 
REMARK    3  A    between atoms: C_8  and  C_9 
REMARK    4  A    between atoms: C_9  and  O_11 
ROOT
HETATM    1  C   UNL     1     -46.449 -48.134   8.717  1.00  0.00     0.089 C 
HETATM    2  C   UNL     1     -45.272 -47.455   9.356  1.00  0.00     0.081 A 
HETATM    3  N   UNL     1     -44.506 -48.081  10.180  1.00  0.00    -0.337 N 
ATOM      4  HN  UNL     1     -44.695 -49.052  10.424  1.00  0.00     0.168 HD
HETATM    5  C   UNL     1     -43.431 -47.424  10.725  1.00  0.00     0.091 A 
HETATM    6  C   UNL     1     -43.159 -46.124  10.473  1.00  0.00     0.058 A 
HETATM    7  C   UNL     1     -44.050 -45.435   9.498  1.00  0.00     0.256 A 
HETATM    8  O   UNL     1     -43.857 -44.279   9.135  1.00  0.00    -0.267 OA
HETATM    9  N   UNL     1     -45.081 -46.159   9.000  1.00  0.00    -0.313 N 
HETATM   10  H   UNL     1     -45.674 -45.700   8.325  1.00  0.00     0.170 HD
ENDROOT
BRANCH   6  11
HETATM   11  C   UNL     1     -42.025 -45.257  10.954  1.00  0.00     0.157 C 
BRANCH  11  12
HETATM   12  C   UNL     1     -40.640 -45.406  10.345  1.00  0.00     0.144 C 
HETATM   13  O   UNL     1     -39.958 -44.517   9.856  1.00  0.00    -0.650 OA
BRANCH  12  14
HETATM   14  O   UNL     1     -40.207 -46.693  10.375  1.00  0.00    -0.776 OA
HETATM   15  H   UNL     1     -40.915 -47.357  10.274  1.00  0.00     0.167 HD
ENDBRANCH  12  14
ENDBRANCH  11  12
ENDBRANCH   6  11
BRANCH   5  16
HETATM   16  N   UNL     1     -42.631 -48.198  11.539  1.00  0.00    -0.288 NA
HETATM   17  H   UNL     1     -42.953 -48.083  12.498  1.00  0.00     0.125 HD
HETATM   18  H   UNL     1     -41.639 -47.948  11.481  1.00  0.00     0.125 HD
ENDBRANCH   5  16
TORSDOF 4
ENDMDL
MODEL 3
REMARK VINA RESULT:      -4.9      7.552      9.168
REMARK  4 active torsions:
REMARK  status: ('A' for Active; 'I' for Inactive)
REMARK    1  A    between atoms: C_5  and  N_6 
REMARK    2  A    between atoms: C_7  and  C_8 
REMARK    3  A    between atoms: C_8  and  C_9 
REMARK    4  A    between atoms: C_9  and  O_11 
ROOT
HETATM    1  C   UNL     1     -40.832 -51.665  12.157  1.00  0.00     0.089 C 
HETATM    2  C   UNL     1     -42.012 -52.480  12.602  1.00  0.00     0.081 A 
HETATM    3  N   UNL     1     -43.190 -52.261  12.131  1.00  0.00    -0.337 N 
ATOM      4  HN  UNL     1     -43.344 -51.515  11.453  1.00  0.00     0.168 HD
HETATM    5  C   UNL     1     -44.235 -53.043  12.554  1.00  0.00     0.091 A 
HETATM    6  C   UNL     1     -44.097 -54.013  13.485  1.00  0.00     0.058 A 
HETATM    7  C   UNL     1     -42.718 -54.258  13.992  1.00  0.00     0.256 A 
HETATM    8  O   UNL     1     -42.459 -55.161  14.782  1.00  0.00    -0.267 OA
HETATM    9  N   UNL     1     -41.743 -53.447  13.515  1.00  0.00    -0.313 N 
HETATM   10  H   UNL     1     -40.805 -53.624  13.843  1.00  0.00     0.170 HD
ENDROOT
BRANCH   6  11
HETATM   11  C   UNL     1     -45.113 -54.976  14.044  1.00  0.00     0.157 C 
BRANCH  11  12
HETATM   12  C   UNL     1     -46.185 -54.482  15.001  1.00  0.00     0.144 C 
HETATM   13  O   UNL     1     -46.175 -54.574  16.219  1.00  0.00    -0.650 OA
BRANCH  12  14
HETATM   14  O   UNL     1     -47.229 -53.912  14.345  1.00  0.00    -0.776 OA
HETATM   15  H   UNL     1     -48.100 -54.293  14.568  1.00  0.00     0.167 HD
ENDBRANCH  12  14
ENDBRANCH  11  12
ENDBRANCH   6  11
BRANCH   5  16
HETATM   16  N   UNL     1     -45.442 -52.778  11.941  1.00  0.00    -0.288 NA
HETATM   17  H   UNL     1     -45.706 -53.597  11.397  1.00  0.00     0.125 HD
HETATM   18  H   UNL     1     -45.407 -51.958  11.327  1.00  0.00     0.125 HD
ENDBRANCH   5  16
TORSDOF 4
ENDMDL
MODEL 4
REMARK VINA RESULT:      -4.9      7.794      9.012
REMARK  4 active torsions:
REMARK  status: ('A' for Active; 'I' for Inactive)
REMARK    1  A    between atoms: C_5  and  N_6 
REMARK    2  A    between atoms: C_7  and  C_8 
REMARK    3  A    between atoms: C_8  and  C_9 
REMARK    4  A    between atoms: C_9  and  O_11 
ROOT
HETATM    1  C   UNL     1     -46.943 -51.709  11.772  1.00  0.00     0.089 C 
HETATM    2  C   UNL     1     -45.979 -52.617  12.480  1.00  0.00     0.081 A 
HETATM    3  N   UNL     1     -44.745 -52.689  12.123  1.00  0.00    -0.337 N 
ATOM      4  HN  UNL     1     -44.402 -52.136  11.338  1.00  0.00     0.168 HD
HETATM    5  C   UNL     1     -43.896 -53.519  12.812  1.00  0.00     0.091 A 
HETATM    6  C   UNL     1     -44.306 -54.309  13.829  1.00  0.00     0.058 A 
HETATM    7  C   UNL     1     -45.735 -54.184  14.234  1.00  0.00     0.256 A 
HETATM    8  O   UNL     1     -46.202 -54.794  15.191  1.00  0.00    -0.267 OA
HETATM    9  N   UNL     1     -46.500 -53.335  13.507  1.00  0.00    -0.313 N 
HETATM   10  H   UNL     1     -47.463 -53.235  13.792  1.00  0.00     0.170 HD
ENDROOT
BRANCH   6  11
HETATM   11  C   UNL     1     -43.522 -55.251  14.706  1.00  0.00     0.157 C 
BRANCH  11  12
HETATM   12  C   UNL     1     -42.950 -54.764  16.028  1.00  0.00     0.144 C 
HETATM   13  O   UNL     1     -41.872 -54.217  16.199  1.00  0.00    -0.650 OA
BRANCH  12  14
HETATM   14  O   UNL     1     -43.785 -55.022  17.069  1.00  0.00    -0.776 OA
HETATM   15  H   UNL     1     -43.429 -55.657  17.720  1.00  0.00     0.167 HD
ENDBRANCH  12  14
ENDBRANCH  11  12
ENDBRANCH   6  11
BRANCH   5  16
HETATM   16  N   UNL     1     -42.581 -53.475  12.399  1.00  0.00    -0.288 NA
HETATM   17  H   UNL     1     -41.993 -53.414  13.228  1.00  0.00     0.125 HD
HETATM   18  H   UNL     1     -42.381 -52.682  11.782  1.00  0.00     0.125 HD
ENDBRANCH   5  16
TORSDOF 4
ENDMDL
MODEL 5
REMARK VINA RESULT:      -4.9      5.271      5.872
REMARK  4 active torsions:
REMARK  status: ('A' for Active; 'I' for Inactive)
REMARK    1  A    between atoms: C_5  and  N_6 
REMARK    2  A    between atoms: C_7  and  C_8 
REMARK    3  A    between atoms: C_8  and  C_9 
REMARK    4  A    between atoms: C_9  and  O_11 
ROOT
HETATM    1  C   UNL     1     -43.920 -50.885  13.328  1.00  0.00     0.089 C 
HETATM    2  C   UNL     1     -42.481 -50.584  13.022  1.00  0.00     0.081 A 
HETATM    3  N   UNL     1     -42.080 -50.398  11.812  1.00  0.00    -0.337 N 
ATOM      4  HN  UNL     1     -42.737 -50.465  11.035  1.00  0.00     0.168 HD
HETATM    5  C   UNL     1     -40.759 -50.107  11.582  1.00  0.00     0.091 A 
HETATM    6  C   UNL     1     -39.837 -50.051  12.569  1.00  0.00     0.058 A 
HETATM    7  C   UNL     1     -40.336 -50.248  13.959  1.00  0.00     0.256 A 
HETATM    8  O   UNL     1     -39.606 -50.145  14.940  1.00  0.00    -0.267 OA
HETATM    9  N   UNL     1     -41.656 -50.520  14.097  1.00  0.00    -0.313 N 
HETATM   10  H   UNL     1     -41.999 -50.635  15.039  1.00  0.00     0.170 HD
ENDROOT
BRANCH   6  11
HETATM   11  C   UNL     1     -38.367 -49.725  12.509  1.00  0.00     0.157 C 
BRANCH  11  12
HETATM   12  C   UNL     1     -37.421 -50.609  11.713  1.00  0.00     0.144 C 
HETATM   13  O   UNL     1     -36.808 -51.582  12.128  1.00  0.00    -0.650 OA
BRANCH  12  14
HETATM   14  O   UNL     1     -37.294 -50.190  10.427  1.00  0.00    -0.776 OA
HETATM   15  H   UNL     1     -36.938 -49.286  10.333  1.00  0.00     0.167 HD
ENDBRANCH  12  14
ENDBRANCH  11  12
ENDBRANCH   6  11
BRANCH   5  16
HETATM   16  N   UNL     1     -40.442 -49.856  10.264  1.00  0.00    -0.288 NA
HETATM   17  H   UNL     1     -39.510 -49.446  10.237  1.00  0.00     0.125 HD
HETATM   18  H   UNL     1     -41.105 -49.223   9.806  1.00  0.00     0.125 HD
ENDBRANCH   5  16
TORSDOF 4
ENDMDL
MODEL 6
REMARK VINA RESULT:      -4.8      8.447      9.042
REMARK  4 active torsions:
REMARK  status: ('A' for Active; 'I' for Inactive)
REMARK    1  A    between atoms: C_5  and  N_6 
REMARK    2  A    between atoms: C_7  and  C_8 
REMARK    3  A    between atoms: C_8  and  C_9 
REMARK    4  A    between atoms: C_9  and  O_11 
ROOT
HETATM    1  C   UNL     1     -45.410 -53.742  13.076  1.00  0.00     0.089 C 
HETATM    2  C   UNL     1     -43.954 -53.745  13.444  1.00  0.00     0.081 A 
HETATM    3  N   UNL     1     -43.038 -53.652  12.544  1.00  0.00    -0.337 N 
ATOM      4  HN  UNL     1     -43.288 -53.586  11.558  1.00  0.00     0.168 HD
HETATM    5  C   UNL     1     -41.720 -53.640  12.929  1.00  0.00     0.091 A 
HETATM    6  C   UNL     1     -41.330 -53.771  14.216  1.00  0.00     0.058 A 
HETATM    7  C   UNL     1     -42.414 -53.854  15.235  1.00  0.00     0.256 A 
HETATM    8  O   UNL     1     -42.181 -53.899  16.439  1.00  0.00    -0.267 OA
HETATM    9  N   UNL     1     -43.686 -53.848  14.770  1.00  0.00    -0.313 N 
HETATM   10  H   UNL     1     -44.421 -53.884  15.460  1.00  0.00     0.170 HD
ENDROOT
BRANCH   6  11
HETATM   11  C   UNL     1     -39.949 -53.755  14.820  1.00  0.00     0.157 C 
BRANCH  11  12
HETATM   12  C   UNL     1     -39.029 -54.953  14.650  1.00  0.00     0.144 C 
HETATM   13  O   UNL     1     -38.616 -55.688  15.534  1.00  0.00    -0.650 OA
BRANCH  12  14
HETATM   14  O   UNL     1     -38.668 -55.136  13.353  1.00  0.00    -0.776 OA
HETATM   15  H   UNL     1     -39.102 -55.895  12.919  1.00  0.00     0.167 HD
ENDBRANCH  12  14
ENDBRANCH  11  12
ENDBRANCH   6  11
BRANCH   5  16
HETATM   16  N   UNL     1     -40.818 -53.466  11.901  1.00  0.00    -0.288 NA
HETATM   17  H   UNL     1     -41.183 -52.747  11.280  1.00  0.00     0.125 HD
HETATM   18  H   UNL     1     -40.650 -54.324  11.365  1.00  0.00     0.125 HD
ENDBRANCH   5  16
TORSDOF 4
ENDMDL
MODEL 7
REMARK VINA RESULT:      -4.8      1.923      2.920
REMARK  4 active torsions:
REMARK  status: ('A' for Active; 'I' for Inactive)
REMARK    1  A    between atoms: C_5  and  N_6 
REMARK    2  A    between atoms: C_7  and  C_8 
REMARK    3  A    between atoms: C_8  and  C_9 
REMARK    4  A    between atoms: C_9  and  O_11 
ROOT
HETATM    1  C   UNL     1     -45.472 -47.406   9.157  1.00  0.00     0.089 C 
HETATM    2  C   UNL     1     -44.072 -47.181   9.651  1.00  0.00     0.081 A 
HETATM    3  N   UNL     1     -43.257 -48.164   9.818  1.00  0.00    -0.337 N 
ATOM      4  HN  UNL     1     -43.557 -49.120   9.629  1.00  0.00     0.168 HD
HETATM    5  C   UNL     1     -41.981 -47.909  10.254  1.00  0.00     0.091 A 
HETATM    6  C   UNL     1     -41.546 -46.668  10.565  1.00  0.00     0.058 A 
HETATM    7  C   UNL     1     -42.504 -45.550  10.338  1.00  0.00     0.256 A 
HETATM    8  O   UNL     1     -42.196 -44.375  10.513  1.00  0.00    -0.267 OA
HETATM    9  N   UNL     1     -43.739 -45.889   9.897  1.00  0.00    -0.313 N 
HETATM   10  H   UNL     1     -44.383 -45.132   9.725  1.00  0.00     0.170 HD
ENDROOT
BRANCH   6  11
HETATM   11  C   UNL     1     -40.189 -46.200  11.027  1.00  0.00     0.157 C 
BRANCH  11  12
HETATM   12  C   UNL     1     -39.735 -46.471  12.452  1.00  0.00     0.144 C 
HETATM   13  O   UNL     1     -39.699 -45.667  13.372  1.00  0.00    -0.650 OA
BRANCH  12  14
HETATM   14  O   UNL     1     -39.329 -47.756  12.621  1.00  0.00    -0.776 OA
HETATM   15  H   UNL     1     -39.227 -48.025  13.555  1.00  0.00     0.167 HD
ENDBRANCH  12  14
ENDBRANCH  11  12
ENDBRANCH   6  11
BRANCH   5  16
HETATM   16  N   UNL     1     -41.165 -49.017  10.335  1.00  0.00    -0.288 NA
HETATM   17  H   UNL     1     -41.755 -49.846  10.314  1.00  0.00     0.125 HD
HETATM   18  H   UNL     1     -40.590 -49.030  11.183  1.00  0.00     0.125 HD
ENDBRANCH   5  16
TORSDOF 4
ENDMDL
MODEL 8
REMARK VINA RESULT:      -4.8      7.258      8.535
REMARK  4 active torsions:
REMARK  status: ('A' for Active; 'I' for Inactive)
REMARK    1  A    between atoms: C_5  and  N_6 
REMARK    2  A    between atoms: C_7  and  C_8 
REMARK    3  A    between atoms: C_8  and  C_9 
REMARK    4  A    between atoms: C_9  and  O_11 
ROOT
HETATM    1  C   UNL     1     -47.870 -51.040  16.784  1.00  0.00     0.089 C 
HETATM    2  C   UNL     1     -47.081 -51.797  15.755  1.00  0.00     0.081 A 
HETATM    3  N   UNL     1     -46.947 -51.351  14.555  1.00  0.00    -0.337 N 
ATOM      4  HN  UNL     1     -47.389 -50.474  14.279  1.00  0.00     0.168 HD
HETATM    5  C   UNL     1     -46.201 -52.068  13.654  1.00  0.00     0.091 A 
HETATM    6  C   UNL     1     -45.632 -53.257  13.952  1.00  0.00     0.058 A 
HETATM    7  C   UNL     1     -45.786 -53.735  15.355  1.00  0.00     0.256 A 
HETATM    8  O   UNL     1     -45.251 -54.762  15.761  1.00  0.00    -0.267 OA
HETATM    9  N   UNL     1     -46.529 -52.961  16.182  1.00  0.00    -0.313 N 
HETATM   10  H   UNL     1     -46.618 -53.274  17.137  1.00  0.00     0.170 HD
ENDROOT
BRANCH   6  11
HETATM   11  C   UNL     1     -44.769 -54.161  13.110  1.00  0.00     0.157 C 
BRANCH  11  12
HETATM   12  C   UNL     1     -43.326 -53.783  12.819  1.00  0.00     0.144 C 
HETATM   13  O   UNL     1     -42.331 -54.208  13.387  1.00  0.00    -0.650 OA
BRANCH  12  14
HETATM   14  O   UNL     1     -43.232 -52.862  11.825  1.00  0.00    -0.776 OA
HETATM   15  H   UNL     1     -44.056 -52.734  11.317  1.00  0.00     0.167 HD
ENDBRANCH  12  14
ENDBRANCH  11  12
ENDBRANCH   6  11
BRANCH   5  16
HETATM   16  N   UNL     1     -46.058 -51.474  12.418  1.00  0.00    -0.288 NA
HETATM   17  H   UNL     1     -45.469 -50.651  12.530  1.00  0.00     0.125 HD
HETATM   18  H   UNL     1     -46.952 -51.197  12.000  1.00  0.00     0.125 HD
ENDBRANCH   5  16
TORSDOF 4
ENDMDL
MODEL 9
REMARK VINA RESULT:      -4.7      6.968      7.904
REMARK  4 active torsions:
REMARK  status: ('A' for Active; 'I' for Inactive)
REMARK    1  A    between atoms: C_5  and  N_6 
REMARK    2  A    between atoms: C_7  and  C_8 
REMARK    3  A    between atoms: C_8  and  C_9 
REMARK    4  A    between atoms: C_9  and  O_11 
ROOT
HETATM    1  C   UNL     1     -46.157 -51.696  13.571  1.00  0.00     0.089 C 
HETATM    2  C   UNL     1     -44.827 -52.374  13.413  1.00  0.00     0.081 A 
HETATM    3  N   UNL     1     -43.982 -51.986  12.522  1.00  0.00    -0.337 N 
ATOM      4  HN  UNL     1     -44.210 -51.214  11.896  1.00  0.00     0.168 HD
HETATM    5  C   UNL     1     -42.771 -52.624  12.425  1.00  0.00     0.091 A 
HETATM    6  C   UNL     1     -42.435 -53.682  13.197  1.00  0.00     0.058 A 
HETATM    7  C   UNL     1     -43.423 -54.091  14.233  1.00  0.00     0.256 A 
HETATM    8  O   UNL     1     -43.197 -54.988  15.040  1.00  0.00    -0.267 OA
HETATM    9  N   UNL     1     -44.589 -53.401  14.266  1.00  0.00    -0.313 N 
HETATM   10  H   UNL     1     -45.251 -53.665  14.980  1.00  0.00     0.170 HD
ENDROOT
BRANCH   6  11
HETATM   11  C   UNL     1     -41.157 -54.481  13.249  1.00  0.00     0.157 C 
BRANCH  11  12
HETATM   12  C   UNL     1     -39.844 -53.797  13.592  1.00  0.00     0.144 C 
HETATM   13  O   UNL     1     -39.691 -52.626  13.905  1.00  0.00    -0.650 OA
BRANCH  12  14
HETATM   14  O   UNL     1     -38.788 -54.647  13.497  1.00  0.00    -0.776 OA
HETATM   15  H   UNL     1     -38.575 -54.921  12.584  1.00  0.00     0.167 HD
ENDBRANCH  12  14
ENDBRANCH  11  12
ENDBRANCH   6  11
BRANCH   5  16
HETATM   16  N   UNL     1     -41.909 -52.092  11.490  1.00  0.00    -0.288 NA
HETATM   17  H   UNL     1     -41.271 -51.462  11.972  1.00  0.00     0.125 HD
HETATM   18  H   UNL     1     -42.392 -51.583  10.744  1.00  0.00     0.125 HD
ENDBRANCH   5  16
TORSDOF 4
ENDMDL
