MODEL 1
REMARK VINA RESULT:      -5.5      0.000      0.000
REMARK  3 active torsions:
REMARK  status: ('A' for Active; 'I' for Inactive)
REMARK    1  A    between atoms: N_12  and  C_13 
REMARK    2  A    between atoms: C_13  and  C_14 
REMARK    3  A    between atoms: C_14  and  O_15 
ROOT
HETATM    1  C   UNL     1     -39.476 -54.174  14.019  1.00  0.00     0.164 C 
HETATM    2  N   UNL     1     -40.620 -53.334  13.711  1.00  0.00    -0.269 N 
HETATM    3  C   UNL     1     -40.403 -52.180  12.933  1.00  0.00     0.332 A 
HETATM    4  O   UNL     1     -39.279 -51.881  12.521  1.00  0.00    -0.246 OA
HETATM    5  N   UNL     1     -41.517 -51.388  12.654  1.00  0.00    -0.287 N 
HETATM    6  C   UNL     1     -41.383 -50.184  11.851  1.00  0.00     0.163 C 
HETATM    7  C   UNL     1     -42.750 -51.762  13.129  1.00  0.00     0.146 A 
HETATM    8  N   UNL     1     -43.914 -51.093  12.919  1.00  0.00    -0.316 N 
ATOM      9  HN  UNL     1     -44.056 -50.222  12.407  1.00  0.00     0.170 HD
HETATM   10  C   UNL     1     -44.813 -51.828  13.530  1.00  0.00     0.183 A 
HETATM   11 CL   UNL     1     -46.478 -51.479  13.573  1.00  0.00    -0.044 Cl
HETATM   12  N   UNL     1     -44.279 -52.937  14.138  1.00  0.00    -0.314 N 
HETATM   13  C   UNL     1     -42.928 -52.889  13.878  1.00  0.00     0.150 A 
HETATM   14  C   UNL     1     -41.851 -53.749  14.234  1.00  0.00     0.282 A 
HETATM   15  O   UNL     1     -41.999 -54.745  14.937  1.00  0.00    -0.265 OA
ENDROOT
BRANCH  12  16
HETATM   16  C   UNL     1     -44.991 -53.988  14.842  1.00  0.00     0.158 C 
BRANCH  16  17
HETATM   17  C   UNL     1     -45.626 -55.019  13.914  1.00  0.00     0.184 C 
BRANCH  17  18
HETATM   18  O   UNL     1     -46.878 -55.477  14.414  1.00  0.00    -0.399 OA
HETATM   19  H   UNL     1     -47.036 -56.373  14.066  1.00  0.00     0.209 HD
ENDBRANCH  17  18
ENDBRANCH  16  17
ENDBRANCH  12  16
TORSDOF 3
ENDMDL
MODEL 2
REMARK VINA RESULT:      -5.5      1.508      1.634
REMARK  3 active torsions:
REMARK  status: ('A' for Active; 'I' for Inactive)
REMARK    1  A    between atoms: N_12  and  C_13 
REMARK    2  A    between atoms: C_13  and  C_14 
REMARK    3  A    between atoms: C_14  and  O_15 
ROOT
HETATM    1  C   UNL     1     -40.330 -55.282  15.460  1.00  0.00     0.164 C 
HETATM    2  N   UNL     1     -41.194 -54.484  14.609  1.00  0.00    -0.269 N 
HETATM    3  C   UNL     1     -40.590 -53.560  13.733  1.00  0.00     0.332 A 
HETATM    4  O   UNL     1     -39.365 -53.424  13.684  1.00  0.00    -0.246 OA
HETATM    5  N   UNL     1     -41.442 -52.803  12.927  1.00  0.00    -0.287 N 
HETATM    6  C   UNL     1     -40.901 -51.834  11.990  1.00  0.00     0.163 C 
HETATM    7  C   UNL     1     -42.799 -52.992  13.012  1.00  0.00     0.146 A 
HETATM    8  N   UNL     1     -43.736 -52.336  12.279  1.00  0.00    -0.316 N 
ATOM      9  HN  UNL     1     -43.591 -51.607  11.581  1.00  0.00     0.170 HD
HETATM   10  C   UNL     1     -44.871 -52.859  12.678  1.00  0.00     0.183 A 
HETATM   11 CL   UNL     1     -46.400 -52.428  12.068  1.00  0.00    -0.044 Cl
HETATM   12  N   UNL     1     -44.710 -53.817  13.649  1.00  0.00    -0.314 N 
HETATM   13  C   UNL     1     -43.354 -53.898  13.869  1.00  0.00     0.150 A 
HETATM   14  C   UNL     1     -42.571 -54.701  14.746  1.00  0.00     0.282 A 
HETATM   15  O   UNL     1     -43.065 -55.493  15.543  1.00  0.00    -0.265 OA
ENDROOT
BRANCH  12  16
HETATM   16  C   UNL     1     -45.741 -54.634  14.264  1.00  0.00     0.158 C 
BRANCH  16  17
HETATM   17  C   UNL     1     -46.306 -54.033  15.547  1.00  0.00     0.184 C 
BRANCH  17  18
HETATM   18  O   UNL     1     -45.677 -54.577  16.703  1.00  0.00    -0.399 OA
HETATM   19  H   UNL     1     -45.030 -53.927  17.032  1.00  0.00     0.209 HD
ENDBRANCH  17  18
ENDBRANCH  16  17
ENDBRANCH  12  16
TORSDOF 3
ENDMDL
MODEL 3
REMARK VINA RESULT:      -5.4      2.554      5.244
REMARK  3 active torsions:
REMARK  status: ('A' for Active; 'I' for Inactive)
REMARK    1  A    between atoms: N_12  and  C_13 
REMARK    2  A    between atoms: C_13  and  C_14 
REMARK    3  A    between atoms: C_14  and  O_15 
ROOT
HETATM    1  C   UNL     1     -39.707 -54.602  14.609  1.00  0.00     0.164 C 
HETATM    2  N   UNL     1     -40.373 -53.543  13.871  1.00  0.00    -0.269 N 
HETATM    3  C   UNL     1     -41.748 -53.687  13.603  1.00  0.00     0.332 A 
HETATM    4  O   UNL     1     -42.379 -54.679  13.979  1.00  0.00    -0.246 OA
HETATM    5  N   UNL     1     -42.364 -52.658  12.890  1.00  0.00    -0.287 N 
HETATM    6  C   UNL     1     -43.781 -52.723  12.578  1.00  0.00     0.163 C 
HETATM    7  C   UNL     1     -41.624 -51.570  12.497  1.00  0.00     0.146 A 
HETATM    8  N   UNL     1     -42.099 -50.496  11.813  1.00  0.00    -0.316 N 
ATOM      9  HN  UNL     1     -43.048 -50.336  11.475  1.00  0.00     0.170 HD
HETATM   10  C   UNL     1     -41.053 -49.715  11.689  1.00  0.00     0.183 A 
HETATM   11 CL   UNL     1     -41.071 -48.193  10.928  1.00  0.00    -0.044 Cl
HETATM   12  N   UNL     1     -39.918 -50.242  12.252  1.00  0.00    -0.314 N 
HETATM   13  C   UNL     1     -40.293 -51.458  12.775  1.00  0.00     0.150 A 
HETATM   14  C   UNL     1     -39.571 -52.465  13.477  1.00  0.00     0.282 A 
HETATM   15  O   UNL     1     -38.366 -52.386  13.700  1.00  0.00    -0.265 OA
ENDROOT
BRANCH  12  16
HETATM   16  C   UNL     1     -38.608 -49.621  12.348  1.00  0.00     0.158 C 
BRANCH  16  17
HETATM   17  C   UNL     1     -37.697 -49.938  11.167  1.00  0.00     0.184 C 
BRANCH  17  18
HETATM   18  O   UNL     1     -37.175 -51.260  11.246  1.00  0.00    -0.399 OA
HETATM   19  H   UNL     1     -37.905 -51.886  11.095  1.00  0.00     0.209 HD
ENDBRANCH  17  18
ENDBRANCH  16  17
ENDBRANCH  12  16
TORSDOF 3
ENDMDL
MODEL 4
REMARK VINA RESULT:      -5.2      3.963      5.862
REMARK  3 active torsions:
REMARK  status: ('A' for Active; 'I' for Inactive)
REMARK    1  A    between atoms: N_12  and  C_13 
REMARK    2  A    between atoms: C_13  and  C_14 
REMARK    3  A    between atoms: C_14  and  O_15 
ROOT
HETATM    1  C   UNL     1     -42.275 -52.037  13.082  1.00  0.00     0.164 C 
HETATM    2  N   UNL     1     -41.479 -50.929  12.583  1.00  0.00    -0.269 N 
HETATM    3  C   UNL     1     -40.097 -51.136  12.401  1.00  0.00     0.332 A 
HETATM    4  O   UNL     1     -39.568 -52.221  12.657  1.00  0.00    -0.246 OA
HETATM    5  N   UNL     1     -39.354 -50.056  11.923  1.00  0.00    -0.287 N 
HETATM    6  C   UNL     1     -37.925 -50.186  11.700  1.00  0.00     0.163 C 
HETATM    7  C   UNL     1     -39.987 -48.869  11.647  1.00  0.00     0.146 A 
HETATM    8  N   UNL     1     -39.388 -47.748  11.165  1.00  0.00    -0.316 N 
ATOM      9  HN  UNL     1     -38.401 -47.603  10.953  1.00  0.00     0.170 HD
HETATM   10  C   UNL     1     -40.377 -46.895  11.036  1.00  0.00     0.183 A 
HETATM   11 CL   UNL     1     -40.212 -45.311  10.437  1.00  0.00    -0.044 Cl
HETATM   12  N   UNL     1     -41.588 -47.412  11.426  1.00  0.00    -0.314 N 
HETATM   13  C   UNL     1     -41.329 -48.701  11.830  1.00  0.00     0.150 A 
HETATM   14  C   UNL     1     -42.167 -49.735  12.334  1.00  0.00     0.282 A 
HETATM   15  O   UNL     1     -43.368 -49.580  12.534  1.00  0.00    -0.265 OA
ENDROOT
BRANCH  12  16
HETATM   16  C   UNL     1     -42.887 -46.766  11.357  1.00  0.00     0.158 C 
BRANCH  16  17
HETATM   17  C   UNL     1     -43.634 -47.044  10.056  1.00  0.00     0.184 C 
BRANCH  17  18
HETATM   18  O   UNL     1     -44.585 -48.093  10.209  1.00  0.00    -0.399 OA
HETATM   19  H   UNL     1     -44.162 -48.818  10.703  1.00  0.00     0.209 HD
ENDBRANCH  17  18
ENDBRANCH  16  17
ENDBRANCH  12  16
TORSDOF 3
ENDMDL
MODEL 5
REMARK VINA RESULT:      -5.1      6.252      8.026
REMARK  3 active torsions:
REMARK  status: ('A' for Active; 'I' for Inactive)
REMARK    1  A    between atoms: N_12  and  C_13 
REMARK    2  A    between atoms: C_13  and  C_14 
REMARK    3  A    between atoms: C_14  and  O_15 
ROOT
HETATM    1  C   UNL     1     -42.640 -43.360  11.110  1.00  0.00     0.164 C 
HETATM    2  N   UNL     1     -42.393 -44.768  10.856  1.00  0.00    -0.269 N 
HETATM    3  C   UNL     1     -43.076 -45.377   9.784  1.00  0.00     0.332 A 
HETATM    4  O   UNL     1     -43.864 -44.743   9.077  1.00  0.00    -0.246 OA
HETATM    5  N   UNL     1     -42.824 -46.731   9.563  1.00  0.00    -0.287 N 
HETATM    6  C   UNL     1     -43.480 -47.434   8.474  1.00  0.00     0.163 C 
HETATM    7  C   UNL     1     -41.935 -47.396  10.372  1.00  0.00     0.146 A 
HETATM    8  N   UNL     1     -41.589 -48.705  10.258  1.00  0.00    -0.316 N 
ATOM      9  HN  UNL     1     -41.934 -49.391   9.586  1.00  0.00     0.170 HD
HETATM   10  C   UNL     1     -40.708 -48.881  11.213  1.00  0.00     0.183 A 
HETATM   11 CL   UNL     1     -39.903 -50.348  11.525  1.00  0.00    -0.044 Cl
HETATM   12  N   UNL     1     -40.478 -47.745  11.950  1.00  0.00    -0.314 N 
HETATM   13  C   UNL     1     -41.287 -46.777  11.401  1.00  0.00     0.150 A 
HETATM   14  C   UNL     1     -41.493 -45.405  11.720  1.00  0.00     0.282 A 
HETATM   15  O   UNL     1     -40.939 -44.851  12.665  1.00  0.00    -0.265 OA
ENDROOT
BRANCH  12  16
HETATM   16  C   UNL     1     -39.527 -47.572  13.033  1.00  0.00     0.158 C 
BRANCH  16  17
HETATM   17  C   UNL     1     -40.121 -47.839  14.412  1.00  0.00     0.184 C 
BRANCH  17  18
HETATM   18  O   UNL     1     -40.626 -46.648  15.007  1.00  0.00    -0.399 OA
HETATM   19  H   UNL     1     -41.381 -46.337  14.475  1.00  0.00     0.209 HD
ENDBRANCH  17  18
ENDBRANCH  16  17
ENDBRANCH  12  16
TORSDOF 3
ENDMDL
MODEL 6
REMARK VINA RESULT:      -5.1      6.294      7.907
REMARK  3 active torsions:
REMARK  status: ('A' for Active; 'I' for Inactive)
REMARK    1  A    between atoms: N_12  and  C_13 
REMARK    2  A    between atoms: C_13  and  C_14 
REMARK    3  A    between atoms: C_14  and  O_15 
ROOT
HETATM    1  C   UNL     1     -43.285 -47.541   8.967  1.00  0.00     0.164 C 
HETATM    2  N   UNL     1     -42.452 -46.917   9.979  1.00  0.00    -0.269 N 
HETATM    3  C   UNL     1     -42.590 -45.530  10.188  1.00  0.00     0.332 A 
HETATM    4  O   UNL     1     -43.391 -44.856   9.535  1.00  0.00    -0.246 OA
HETATM    5  N   UNL     1     -41.776 -44.954  11.164  1.00  0.00    -0.287 N 
HETATM    6  C   UNL     1     -41.860 -43.532  11.448  1.00  0.00     0.163 C 
HETATM    7  C   UNL     1     -40.902 -45.744  11.869  1.00  0.00     0.146 A 
HETATM    8  N   UNL     1     -40.066 -45.316  12.852  1.00  0.00    -0.316 N 
ATOM      9  HN  UNL     1     -39.942 -44.367  13.202  1.00  0.00     0.170 HD
HETATM   10  C   UNL     1     -39.457 -46.410  13.244  1.00  0.00     0.183 A 
HETATM   11 CL   UNL     1     -38.301 -46.476  14.491  1.00  0.00    -0.044 Cl
HETATM   12  N   UNL     1     -39.852 -47.525  12.548  1.00  0.00    -0.314 N 
HETATM   13  C   UNL     1     -40.794 -47.086  11.646  1.00  0.00     0.150 A 
HETATM   14  C   UNL     1     -41.564 -47.762  10.658  1.00  0.00     0.282 A 
HETATM   15  O   UNL     1     -41.448 -48.962  10.429  1.00  0.00    -0.265 OA
ENDROOT
BRANCH  12  16
HETATM   16  C   UNL     1     -39.429 -48.898  12.765  1.00  0.00     0.158 C 
BRANCH  16  17
HETATM   17  C   UNL     1     -38.257 -49.318  11.883  1.00  0.00     0.184 C 
BRANCH  17  18
HETATM   18  O   UNL     1     -38.697 -49.996  10.711  1.00  0.00    -0.399 OA
HETATM   19  H   UNL     1     -38.705 -49.359   9.975  1.00  0.00     0.209 HD
ENDBRANCH  17  18
ENDBRANCH  16  17
ENDBRANCH  12  16
TORSDOF 3
ENDMDL
MODEL 7
REMARK VINA RESULT:      -5.1      3.954      6.182
REMARK  3 active torsions:
REMARK  status: ('A' for Active; 'I' for Inactive)
REMARK    1  A    between atoms: N_12  and  C_13 
REMARK    2  A    between atoms: C_13  and  C_14 
REMARK    3  A    between atoms: C_14  and  O_15 
ROOT
HETATM    1  C   UNL     1     -37.339 -50.293  14.326  1.00  0.00     0.164 C 
HETATM    2  N   UNL     1     -38.547 -50.232  13.522  1.00  0.00    -0.269 N 
HETATM    3  C   UNL     1     -39.191 -51.443  13.201  1.00  0.00     0.332 A 
HETATM    4  O   UNL     1     -38.751 -52.530  13.586  1.00  0.00    -0.246 OA
HETATM    5  N   UNL     1     -40.348 -51.358  12.425  1.00  0.00    -0.287 N 
HETATM    6  C   UNL     1     -41.078 -52.558  12.057  1.00  0.00     0.163 C 
HETATM    7  C   UNL     1     -40.804 -50.127  12.024  1.00  0.00     0.146 A 
HETATM    8  N   UNL     1     -41.920 -49.901  11.281  1.00  0.00    -0.316 N 
ATOM      9  HN  UNL     1     -42.569 -50.587  10.898  1.00  0.00     0.170 HD
HETATM   10  C   UNL     1     -41.965 -48.594  11.173  1.00  0.00     0.183 A 
HETATM   11 CL   UNL     1     -43.187 -47.736  10.356  1.00  0.00    -0.044 Cl
HETATM   12  N   UNL     1     -40.920 -47.965  11.802  1.00  0.00    -0.314 N 
HETATM   13  C   UNL     1     -40.159 -48.970  12.353  1.00  0.00     0.150 A 
HETATM   14  C   UNL     1     -38.961 -48.955  13.122  1.00  0.00     0.282 A 
HETATM   15  O   UNL     1     -38.357 -47.921  13.393  1.00  0.00    -0.265 OA
ENDROOT
BRANCH  12  16
HETATM   16  C   UNL     1     -40.697 -46.536  11.931  1.00  0.00     0.158 C 
BRANCH  16  17
HETATM   17  C   UNL     1     -39.919 -45.935  10.764  1.00  0.00     0.184 C 
BRANCH  17  18
HETATM   18  O   UNL     1     -40.788 -45.359   9.794  1.00  0.00    -0.399 OA
HETATM   19  H   UNL     1     -41.340 -46.069   9.420  1.00  0.00     0.209 HD
ENDBRANCH  17  18
ENDBRANCH  16  17
ENDBRANCH  12  16
TORSDOF 3
ENDMDL
MODEL 8
REMARK VINA RESULT:      -5.0      5.079      7.357
REMARK  3 active torsions:
REMARK  status: ('A' for Active; 'I' for Inactive)
REMARK    1  A    between atoms: N_12  and  C_13 
REMARK    2  A    between atoms: C_13  and  C_14 
REMARK    3  A    between atoms: C_14  and  O_15 
ROOT
HETATM    1  C   UNL     1     -40.655 -44.014  11.045  1.00  0.00     0.164 C 
HETATM    2  N   UNL     1     -41.164 -45.374  11.050  1.00  0.00    -0.269 N 
HETATM    3  C   UNL     1     -42.408 -45.618  10.437  1.00  0.00     0.332 A 
HETATM    4  O   UNL     1     -43.057 -44.710   9.909  1.00  0.00    -0.246 OA
HETATM    5  N   UNL     1     -42.876 -46.933  10.457  1.00  0.00    -0.287 N 
HETATM    6  C   UNL     1     -44.147 -47.273   9.841  1.00  0.00     0.163 C 
HETATM    7  C   UNL     1     -42.119 -47.912  11.052  1.00  0.00     0.146 A 
HETATM    8  N   UNL     1     -42.448 -49.228  11.129  1.00  0.00    -0.316 N 
ATOM      9  HN  UNL     1     -43.292 -49.686  10.786  1.00  0.00     0.170 HD
HETATM   10  C   UNL     1     -41.427 -49.771  11.749  1.00  0.00     0.183 A 
HETATM   11 CL   UNL     1     -41.282 -51.430  12.099  1.00  0.00    -0.044 Cl
HETATM   12  N   UNL     1     -40.457 -48.860  12.087  1.00  0.00    -0.314 N 
HETATM   13  C   UNL     1     -40.914 -47.644  11.635  1.00  0.00     0.150 A 
HETATM   14  C   UNL     1     -40.363 -46.333  11.685  1.00  0.00     0.282 A 
HETATM   15  O   UNL     1     -39.297 -46.079  12.238  1.00  0.00    -0.265 OA
ENDROOT
BRANCH  12  16
HETATM   16  C   UNL     1     -39.177 -49.127  12.721  1.00  0.00     0.158 C 
BRANCH  16  17
HETATM   17  C   UNL     1     -38.082 -49.519  11.735  1.00  0.00     0.184 C 
BRANCH  17  18
HETATM   18  O   UNL     1     -37.984 -50.933  11.591  1.00  0.00    -0.399 OA
HETATM   19  H   UNL     1     -38.372 -51.347  12.383  1.00  0.00     0.209 HD
ENDBRANCH  17  18
ENDBRANCH  16  17
ENDBRANCH  12  16
TORSDOF 3
ENDMDL
MODEL 9
REMARK VINA RESULT:      -5.0      2.972      4.111
REMARK  3 active torsions:
REMARK  status: ('A' for Active; 'I' for Inactive)
REMARK    1  A    between atoms: N_12  and  C_13 
REMARK    2  A    between atoms: C_13  and  C_14 
REMARK    3  A    between atoms: C_14  and  O_15 
ROOT
HETATM    1  C   UNL     1     -37.706 -49.409  12.344  1.00  0.00     0.164 C 
HETATM    2  N   UNL     1     -39.080 -49.875  12.301  1.00  0.00    -0.269 N 
HETATM    3  C   UNL     1     -40.087 -48.941  11.987  1.00  0.00     0.332 A 
HETATM    4  O   UNL     1     -39.820 -47.758  11.755  1.00  0.00    -0.246 OA
HETATM    5  N   UNL     1     -41.399 -49.412  11.955  1.00  0.00    -0.287 N 
HETATM    6  C   UNL     1     -42.497 -48.517  11.632  1.00  0.00     0.163 C 
HETATM    7  C   UNL     1     -41.649 -50.737  12.216  1.00  0.00     0.146 A 
HETATM    8  N   UNL     1     -42.872 -51.328  12.204  1.00  0.00    -0.316 N 
ATOM      9  HN  UNL     1     -43.778 -50.896  12.024  1.00  0.00     0.170 HD
HETATM   10  C   UNL     1     -42.617 -52.585  12.479  1.00  0.00     0.183 A 
HETATM   11 CL   UNL     1     -43.793 -53.812  12.570  1.00  0.00    -0.044 Cl
HETATM   12  N   UNL     1     -41.281 -52.831  12.682  1.00  0.00    -0.314 N 
HETATM   13  C   UNL     1     -40.651 -51.619  12.514  1.00  0.00     0.150 A 
HETATM   14  C   UNL     1     -39.284 -51.230  12.592  1.00  0.00     0.282 A 
HETATM   15  O   UNL     1     -38.385 -52.010  12.893  1.00  0.00    -0.265 OA
ENDROOT
BRANCH  12  16
HETATM   16  C   UNL     1     -40.648 -54.112  12.942  1.00  0.00     0.158 C 
BRANCH  16  17
HETATM   17  C   UNL     1     -40.174 -54.273  14.383  1.00  0.00     0.184 C 
BRANCH  17  18
HETATM   18  O   UNL     1     -38.781 -54.561  14.450  1.00  0.00    -0.399 OA
HETATM   19  H   UNL     1     -38.510 -54.957  13.602  1.00  0.00     0.209 HD
ENDBRANCH  17  18
ENDBRANCH  16  17
ENDBRANCH  12  16
TORSDOF 3
ENDMDL
