MODEL 1
REMARK VINA RESULT:      -6.2      0.000      0.000
REMARK  3 active torsions:
REMARK  status: ('A' for Active; 'I' for Inactive)
REMARK       I    between atoms: N_5  and  C_9 
REMARK       I    between atoms: C_9  and  N_11 
REMARK    1  A    between atoms: N_11  and  C_12 
REMARK    2  A    between atoms: C_12  and  C_13 
REMARK    3  A    between atoms: C_13  and  C_14 
ROOT
HETATM    1  C   UNL     1     -46.817 -51.481  12.102  1.00  0.00     0.010 C 
HETATM    2  C   UNL     1     -46.370 -51.614  13.560  1.00  0.00    -0.015 C 
HETATM    3  C   UNL     1     -44.962 -51.056  13.787  1.00  0.00     0.024 C 
HETATM    4  C   UNL     1     -43.859 -51.966  13.240  1.00  0.00     0.128 C 
HETATM    5  N   UNL     1     -43.997 -53.351  13.721  1.00  0.00    -0.330 N 
HETATM    6  C   UNL     1     -45.325 -53.949  13.438  1.00  0.00     0.085 C 
HETATM    7  C   UNL     1     -45.573 -55.400  13.857  1.00  0.00     0.032 C 
HETATM    8  C   UNL     1     -46.433 -53.068  14.047  1.00  0.00     0.029 C 
HETATM    9  C   UNL     1     -42.988 -54.059  14.365  1.00  0.00     0.318 C 
HETATM   10  O   UNL     1     -43.113 -55.192  14.821  1.00  0.00    -0.247 OA
HETATM   11  N   UNL     1     -41.791 -53.404  14.502  1.00  0.00    -0.343 N 
HETATM   12  H   UNL     1     -41.527 -52.820  13.720  1.00  0.00     0.164 HD
ENDROOT
BRANCH  11  13
HETATM   13  C   UNL     1     -40.663 -54.056  15.160  1.00  0.00     0.132 C 
BRANCH  13  14
HETATM   14  C   UNL     1     -39.351 -53.901  14.389  1.00  0.00     0.106 C 
BRANCH  14  15
HETATM   15  C   UNL     1     -39.335 -52.622  13.639  1.00  0.00     0.149 A 
HETATM   16  N   UNL     1     -38.691 -51.509  13.912  1.00  0.00    -0.327 N 
HETATM   17  C   UNL     1     -39.033 -50.710  12.851  1.00  0.00     0.100 A 
ATOM     18  HN  UNL     1     -38.090 -51.294  14.709  1.00  0.00     0.169 HD
HETATM   19  C   UNL     1     -38.558 -49.325  12.720  1.00  0.00     0.091 C 
HETATM   20  N   UNL     1     -39.830 -51.290  11.945  1.00  0.00    -0.248 N 
HETATM   21  O   UNL     1     -40.035 -52.571  12.467  1.00  0.00    -0.223 OA
ATOM     22  HN  UNL     1     -40.198 -50.892  11.080  1.00  0.00     0.196 HD
ENDBRANCH  14  15
ENDBRANCH  13  14
ENDBRANCH  11  13
TORSDOF 3
ENDMDL
MODEL 2
REMARK VINA RESULT:      -6.1      3.410      4.432
REMARK  3 active torsions:
REMARK  status: ('A' for Active; 'I' for Inactive)
REMARK       I    between atoms: N_5  and  C_9 
REMARK       I    between atoms: C_9  and  N_11 
REMARK    1  A    between atoms: N_11  and  C_12 
REMARK    2  A    between atoms: C_12  and  C_13 
REMARK    3  A    between atoms: C_13  and  C_14 
ROOT
HETATM    1  C   UNL     1     -47.119 -53.004  14.758  1.00  0.00     0.010 C 
HETATM    2  C   UNL     1     -46.592 -51.600  14.446  1.00  0.00    -0.015 C 
HETATM    3  C   UNL     1     -46.074 -51.484  13.008  1.00  0.00     0.024 C 
HETATM    4  C   UNL     1     -44.721 -52.169  12.800  1.00  0.00     0.128 C 
HETATM    5  N   UNL     1     -43.723 -51.735  13.792  1.00  0.00    -0.330 N 
HETATM    6  C   UNL     1     -44.164 -51.917  15.197  1.00  0.00     0.085 C 
HETATM    7  C   UNL     1     -43.194 -51.536  16.319  1.00  0.00     0.032 C 
HETATM    8  C   UNL     1     -45.493 -51.170  15.426  1.00  0.00     0.029 C 
HETATM    9  C   UNL     1     -42.473 -51.219  13.470  1.00  0.00     0.318 C 
HETATM   10  O   UNL     1     -41.658 -50.800  14.288  1.00  0.00    -0.247 OA
HETATM   11  N   UNL     1     -42.173 -51.168  12.133  1.00  0.00    -0.343 N 
HETATM   12  H   UNL     1     -42.514 -51.947  11.585  1.00  0.00     0.164 HD
ENDROOT
BRANCH  11  13
HETATM   13  C   UNL     1     -40.886 -50.647  11.683  1.00  0.00     0.132 C 
BRANCH  13  14
HETATM   14  C   UNL     1     -40.812 -49.119  11.729  1.00  0.00     0.106 C 
BRANCH  14  15
HETATM   15  C   UNL     1     -41.889 -48.520  10.904  1.00  0.00     0.149 A 
HETATM   16  N   UNL     1     -41.866 -48.174   9.635  1.00  0.00    -0.327 N 
HETATM   17  C   UNL     1     -43.147 -47.725   9.437  1.00  0.00     0.100 A 
ATOM     18  HN  UNL     1     -41.094 -48.225   8.970  1.00  0.00     0.169 HD
HETATM   19  C   UNL     1     -43.608 -47.201   8.142  1.00  0.00     0.091 C 
HETATM   20  N   UNL     1     -43.943 -47.804  10.510  1.00  0.00    -0.248 N 
HETATM   21  O   UNL     1     -43.106 -48.337  11.495  1.00  0.00    -0.223 OA
ATOM     22  HN  UNL     1     -44.925 -47.539  10.589  1.00  0.00     0.196 HD
ENDBRANCH  14  15
ENDBRANCH  13  14
ENDBRANCH  11  13
TORSDOF 3
ENDMDL
MODEL 3
REMARK VINA RESULT:      -5.7      1.962      2.499
REMARK  3 active torsions:
REMARK  status: ('A' for Active; 'I' for Inactive)
REMARK       I    between atoms: N_5  and  C_9 
REMARK       I    between atoms: C_9  and  N_11 
REMARK    1  A    between atoms: N_11  and  C_12 
REMARK    2  A    between atoms: C_12  and  C_13 
REMARK    3  A    between atoms: C_13  and  C_14 
ROOT
HETATM    1  C   UNL     1     -46.976 -50.560  17.162  1.00  0.00     0.010 C 
HETATM    2  C   UNL     1     -46.886 -52.009  16.678  1.00  0.00    -0.015 C 
HETATM    3  C   UNL     1     -45.531 -52.645  17.005  1.00  0.00     0.024 C 
HETATM    4  C   UNL     1     -44.400 -52.147  16.102  1.00  0.00     0.128 C 
HETATM    5  N   UNL     1     -44.742 -52.260  14.674  1.00  0.00    -0.330 N 
HETATM    6  C   UNL     1     -46.009 -51.579  14.311  1.00  0.00     0.085 C 
HETATM    7  C   UNL     1     -46.449 -51.596  12.844  1.00  0.00     0.032 C 
HETATM    8  C   UNL     1     -47.161 -52.129  15.173  1.00  0.00     0.029 C 
HETATM    9  C   UNL     1     -43.960 -52.921  13.733  1.00  0.00     0.318 C 
HETATM   10  O   UNL     1     -44.266 -53.071  12.553  1.00  0.00    -0.247 OA
HETATM   11  N   UNL     1     -42.783 -53.449  14.197  1.00  0.00    -0.343 N 
HETATM   12  H   UNL     1     -42.306 -52.893  14.894  1.00  0.00     0.164 HD
ENDROOT
BRANCH  11  13
HETATM   13  C   UNL     1     -41.885 -54.161  13.293  1.00  0.00     0.132 C 
BRANCH  13  14
HETATM   14  C   UNL     1     -40.441 -53.661  13.370  1.00  0.00     0.106 C 
BRANCH  14  15
HETATM   15  C   UNL     1     -40.309 -52.343  12.703  1.00  0.00     0.149 A 
HETATM   16  N   UNL     1     -39.426 -51.392  12.914  1.00  0.00    -0.327 N 
HETATM   17  C   UNL     1     -39.787 -50.453  11.980  1.00  0.00     0.100 A 
ATOM     18  HN  UNL     1     -38.668 -51.360  13.596  1.00  0.00     0.169 HD
HETATM   19  C   UNL     1     -39.084 -49.169  11.841  1.00  0.00     0.091 C 
HETATM   20  N   UNL     1     -40.823 -50.798  11.207  1.00  0.00    -0.248 N 
HETATM   21  O   UNL     1     -41.177 -52.063  11.686  1.00  0.00    -0.223 OA
ATOM     22  HN  UNL     1     -41.252 -50.265  10.449  1.00  0.00     0.196 HD
ENDBRANCH  14  15
ENDBRANCH  13  14
ENDBRANCH  11  13
TORSDOF 3
ENDMDL
MODEL 4
REMARK VINA RESULT:      -5.6      2.963      4.099
REMARK  3 active torsions:
REMARK  status: ('A' for Active; 'I' for Inactive)
REMARK       I    between atoms: N_5  and  C_9 
REMARK       I    between atoms: C_9  and  N_11 
REMARK    1  A    between atoms: N_11  and  C_12 
REMARK    2  A    between atoms: C_12  and  C_13 
REMARK    3  A    between atoms: C_13  and  C_14 
ROOT
HETATM    1  C   UNL     1     -46.482 -53.476  14.913  1.00  0.00     0.010 C 
HETATM    2  C   UNL     1     -46.766 -51.994  14.655  1.00  0.00    -0.015 C 
HETATM    3  C   UNL     1     -46.466 -51.590  13.208  1.00  0.00     0.024 C 
HETATM    4  C   UNL     1     -44.968 -51.478  12.914  1.00  0.00     0.128 C 
HETATM    5  N   UNL     1     -44.276 -50.620  13.889  1.00  0.00    -0.330 N 
HETATM    6  C   UNL     1     -44.478 -51.039  15.299  1.00  0.00     0.085 C 
HETATM    7  C   UNL     1     -43.774 -50.244  16.402  1.00  0.00     0.032 C 
HETATM    8  C   UNL     1     -45.985 -51.086  15.616  1.00  0.00     0.029 C 
HETATM    9  C   UNL     1     -43.486 -49.527  13.549  1.00  0.00     0.318 C 
HETATM   10  O   UNL     1     -42.954 -48.771  14.356  1.00  0.00    -0.247 OA
HETATM   11  N   UNL     1     -43.335 -49.294  12.206  1.00  0.00    -0.343 N 
HETATM   12  H   UNL     1     -43.261 -50.122  11.630  1.00  0.00     0.164 HD
ENDROOT
BRANCH  11  13
HETATM   13  C   UNL     1     -42.524 -48.175  11.737  1.00  0.00     0.132 C 
BRANCH  13  14
HETATM   14  C   UNL     1     -41.456 -48.594  10.725  1.00  0.00     0.106 C 
BRANCH  14  15
HETATM   15  C   UNL     1     -40.276 -49.166  11.418  1.00  0.00     0.149 A 
HETATM   16  N   UNL     1     -39.296 -49.890  10.926  1.00  0.00    -0.327 N 
HETATM   17  C   UNL     1     -38.499 -50.081  12.026  1.00  0.00     0.100 A 
ATOM     18  HN  UNL     1     -39.162 -50.225   9.971  1.00  0.00     0.169 HD
HETATM   19  C   UNL     1     -37.258 -50.869  11.974  1.00  0.00     0.091 C 
HETATM   20  N   UNL     1     -38.935 -49.492  13.146  1.00  0.00    -0.248 N 
HETATM   21  O   UNL     1     -40.126 -48.877  12.744  1.00  0.00    -0.223 OA
ATOM     22  HN  UNL     1     -38.503 -49.492  14.070  1.00  0.00     0.196 HD
ENDBRANCH  14  15
ENDBRANCH  13  14
ENDBRANCH  11  13
TORSDOF 3
ENDMDL
MODEL 5
REMARK VINA RESULT:      -5.6      2.096      5.976
REMARK  3 active torsions:
REMARK  status: ('A' for Active; 'I' for Inactive)
REMARK       I    between atoms: N_5  and  C_9 
REMARK       I    between atoms: C_9  and  N_11 
REMARK    1  A    between atoms: N_11  and  C_12 
REMARK    2  A    between atoms: C_12  and  C_13 
REMARK    3  A    between atoms: C_13  and  C_14 
ROOT
HETATM    1  C   UNL     1     -40.890 -46.551  12.394  1.00  0.00     0.010 C 
HETATM    2  C   UNL     1     -40.672 -47.689  11.393  1.00  0.00    -0.015 C 
HETATM    3  C   UNL     1     -41.839 -48.682  11.383  1.00  0.00     0.024 C 
HETATM    4  C   UNL     1     -41.857 -49.601  12.607  1.00  0.00     0.128 C 
HETATM    5  N   UNL     1     -40.560 -50.263  12.820  1.00  0.00    -0.330 N 
HETATM    6  C   UNL     1     -39.419 -49.319  12.920  1.00  0.00     0.085 C 
HETATM    7  C   UNL     1     -38.023 -49.890  13.181  1.00  0.00     0.032 C 
HETATM    8  C   UNL     1     -39.360 -48.439  11.657  1.00  0.00     0.029 C 
HETATM    9  C   UNL     1     -40.394 -51.639  12.938  1.00  0.00     0.318 C 
HETATM   10  O   UNL     1     -39.310 -52.204  13.057  1.00  0.00    -0.247 OA
HETATM   11  N   UNL     1     -41.543 -52.386  12.890  1.00  0.00    -0.343 N 
HETATM   12  H   UNL     1     -42.346 -51.971  13.343  1.00  0.00     0.164 HD
ENDROOT
BRANCH  11  13
HETATM   13  C   UNL     1     -41.484 -53.840  13.007  1.00  0.00     0.132 C 
BRANCH  13  14
HETATM   14  C   UNL     1     -42.700 -54.431  13.724  1.00  0.00     0.106 C 
BRANCH  14  15
HETATM   15  C   UNL     1     -43.908 -53.612  13.463  1.00  0.00     0.149 A 
HETATM   16  N   UNL     1     -44.622 -52.895  14.304  1.00  0.00    -0.327 N 
HETATM   17  C   UNL     1     -45.570 -52.345  13.479  1.00  0.00     0.100 A 
ATOM     18  HN  UNL     1     -44.501 -52.779  15.310  1.00  0.00     0.169 HD
HETATM   19  C   UNL     1     -46.633 -51.460  13.980  1.00  0.00     0.091 C 
HETATM   20  N   UNL     1     -45.452 -52.674  12.187  1.00  0.00    -0.248 N 
HETATM   21  O   UNL     1     -44.339 -53.522  12.170  1.00  0.00    -0.223 OA
ATOM     22  HN  UNL     1     -46.033 -52.377  11.403  1.00  0.00     0.196 HD
ENDBRANCH  14  15
ENDBRANCH  13  14
ENDBRANCH  11  13
TORSDOF 3
ENDMDL
MODEL 6
REMARK VINA RESULT:      -5.4      1.893      3.092
REMARK  3 active torsions:
REMARK  status: ('A' for Active; 'I' for Inactive)
REMARK       I    between atoms: N_5  and  C_9 
REMARK       I    between atoms: C_9  and  N_11 
REMARK    1  A    between atoms: N_11  and  C_12 
REMARK    2  A    between atoms: C_12  and  C_13 
REMARK    3  A    between atoms: C_13  and  C_14 
ROOT
HETATM    1  C   UNL     1     -47.620 -51.530  15.974  1.00  0.00     0.010 C 
HETATM    2  C   UNL     1     -46.207 -51.950  16.387  1.00  0.00    -0.015 C 
HETATM    3  C   UNL     1     -45.143 -50.962  15.899  1.00  0.00     0.024 C 
HETATM    4  C   UNL     1     -44.866 -51.071  14.397  1.00  0.00     0.128 C 
HETATM    5  N   UNL     1     -44.574 -52.455  13.989  1.00  0.00    -0.330 N 
HETATM    6  C   UNL     1     -45.630 -53.423  14.374  1.00  0.00     0.085 C 
HETATM    7  C   UNL     1     -45.455 -54.889  13.967  1.00  0.00     0.032 C 
HETATM    8  C   UNL     1     -45.862 -53.362  15.896  1.00  0.00     0.029 C 
HETATM    9  C   UNL     1     -43.434 -52.841  13.291  1.00  0.00     0.318 C 
HETATM   10  O   UNL     1     -43.154 -53.999  12.998  1.00  0.00    -0.247 OA
HETATM   11  N   UNL     1     -42.574 -51.830  12.945  1.00  0.00    -0.343 N 
HETATM   12  H   UNL     1     -43.016 -50.962  12.675  1.00  0.00     0.164 HD
ENDROOT
BRANCH  11  13
HETATM   13  C   UNL     1     -41.349 -52.123  12.208  1.00  0.00     0.132 C 
BRANCH  13  14
HETATM   14  C   UNL     1     -40.085 -51.923  13.047  1.00  0.00     0.106 C 
BRANCH  14  15
HETATM   15  C   UNL     1     -39.798 -53.133  13.854  1.00  0.00     0.149 A 
HETATM   16  N   UNL     1     -40.447 -53.610  14.894  1.00  0.00    -0.327 N 
HETATM   17  C   UNL     1     -39.741 -54.751  15.175  1.00  0.00     0.100 A 
ATOM     18  HN  UNL     1     -41.266 -53.229  15.369  1.00  0.00     0.169 HD
HETATM   19  C   UNL     1     -40.086 -55.636  16.298  1.00  0.00     0.091 C 
HETATM   20  N   UNL     1     -38.717 -54.998  14.349  1.00  0.00    -0.248 N 
HETATM   21  O   UNL     1     -38.751 -53.917  13.462  1.00  0.00    -0.223 OA
ATOM     22  HN  UNL     1     -38.068 -55.785  14.363  1.00  0.00     0.196 HD
ENDBRANCH  14  15
ENDBRANCH  13  14
ENDBRANCH  11  13
TORSDOF 3
ENDMDL
MODEL 7
REMARK VINA RESULT:      -5.3      3.846      5.053
REMARK  3 active torsions:
REMARK  status: ('A' for Active; 'I' for Inactive)
REMARK       I    between atoms: N_5  and  C_9 
REMARK       I    between atoms: C_9  and  N_11 
REMARK    1  A    between atoms: N_11  and  C_12 
REMARK    2  A    between atoms: C_12  and  C_13 
REMARK    3  A    between atoms: C_13  and  C_14 
ROOT
HETATM    1  C   UNL     1     -46.445 -53.755  14.754  1.00  0.00     0.010 C 
HETATM    2  C   UNL     1     -46.591 -52.436  13.990  1.00  0.00    -0.015 C 
HETATM    3  C   UNL     1     -45.829 -52.450  12.661  1.00  0.00     0.024 C 
HETATM    4  C   UNL     1     -44.314 -52.321  12.835  1.00  0.00     0.128 C 
HETATM    5  N   UNL     1     -43.951 -51.168  13.676  1.00  0.00    -0.330 N 
HETATM    6  C   UNL     1     -44.609 -51.173  15.006  1.00  0.00     0.085 C 
HETATM    7  C   UNL     1     -44.277 -50.043  15.985  1.00  0.00     0.032 C 
HETATM    8  C   UNL     1     -46.138 -51.234  14.830  1.00  0.00     0.029 C 
HETATM    9  C   UNL     1     -43.065 -50.168  13.292  1.00  0.00     0.318 C 
HETATM   10  O   UNL     1     -42.802 -49.173  13.962  1.00  0.00    -0.247 OA
HETATM   11  N   UNL     1     -42.482 -50.325  12.061  1.00  0.00    -0.343 N 
HETATM   12  H   UNL     1     -42.248 -51.277  11.813  1.00  0.00     0.164 HD
ENDROOT
BRANCH  11  13
HETATM   13  C   UNL     1     -41.533 -49.335  11.561  1.00  0.00     0.132 C 
BRANCH  13  14
HETATM   14  C   UNL     1     -42.125 -48.440  10.470  1.00  0.00     0.106 C 
BRANCH  14  15
HETATM   15  C   UNL     1     -41.727 -47.027  10.682  1.00  0.00     0.149 A 
HETATM   16  N   UNL     1     -40.590 -46.434  10.390  1.00  0.00    -0.327 N 
HETATM   17  C   UNL     1     -40.834 -45.141  10.779  1.00  0.00     0.100 A 
ATOM     18  HN  UNL     1     -39.745 -46.832   9.980  1.00  0.00     0.169 HD
HETATM   19  C   UNL     1     -39.823 -44.079  10.663  1.00  0.00     0.091 C 
HETATM   20  N   UNL     1     -42.060 -44.921  11.267  1.00  0.00    -0.248 N 
HETATM   21  O   UNL     1     -42.663 -46.182  11.204  1.00  0.00    -0.223 OA
ATOM     22  HN  UNL     1     -42.459 -44.044  11.604  1.00  0.00     0.196 HD
ENDBRANCH  14  15
ENDBRANCH  13  14
ENDBRANCH  11  13
TORSDOF 3
ENDMDL
MODEL 8
REMARK VINA RESULT:      -5.2      4.490      7.651
REMARK  3 active torsions:
REMARK  status: ('A' for Active; 'I' for Inactive)
REMARK       I    between atoms: N_5  and  C_9 
REMARK       I    between atoms: C_9  and  N_11 
REMARK    1  A    between atoms: N_11  and  C_12 
REMARK    2  A    between atoms: C_12  and  C_13 
REMARK    3  A    between atoms: C_13  and  C_14 
ROOT
HETATM    1  C   UNL     1     -37.225 -49.180  17.009  1.00  0.00     0.010 C 
HETATM    2  C   UNL     1     -36.965 -49.077  15.503  1.00  0.00    -0.015 C 
HETATM    3  C   UNL     1     -37.810 -47.983  14.843  1.00  0.00     0.024 C 
HETATM    4  C   UNL     1     -39.281 -48.374  14.684  1.00  0.00     0.128 C 
HETATM    5  N   UNL     1     -39.438 -49.679  14.021  1.00  0.00    -0.330 N 
HETATM    6  C   UNL     1     -38.698 -50.778  14.689  1.00  0.00     0.085 C 
HETATM    7  C   UNL     1     -38.816 -52.191  14.112  1.00  0.00     0.032 C 
HETATM    8  C   UNL     1     -37.204 -50.414  14.789  1.00  0.00     0.029 C 
HETATM    9  C   UNL     1     -40.213 -49.892  12.887  1.00  0.00     0.318 C 
HETATM   10  O   UNL     1     -40.303 -50.963  12.293  1.00  0.00    -0.247 OA
HETATM   11  N   UNL     1     -40.893 -48.800  12.413  1.00  0.00    -0.343 N 
HETATM   12  H   UNL     1     -41.262 -48.181  13.122  1.00  0.00     0.164 HD
ENDROOT
BRANCH  11  13
HETATM   13  C   UNL     1     -41.740 -48.912  11.229  1.00  0.00     0.132 C 
BRANCH  13  14
HETATM   14  C   UNL     1     -41.917 -47.583  10.493  1.00  0.00     0.106 C 
BRANCH  14  15
HETATM   15  C   UNL     1     -43.217 -47.550   9.782  1.00  0.00     0.149 A 
HETATM   16  N   UNL     1     -44.406 -47.226  10.242  1.00  0.00    -0.327 N 
HETATM   17  C   UNL     1     -45.190 -47.347   9.123  1.00  0.00     0.100 A 
ATOM     18  HN  UNL     1     -44.676 -46.955  11.188  1.00  0.00     0.169 HD
HETATM   19  C   UNL     1     -46.640 -47.099   9.145  1.00  0.00     0.091 C 
HETATM   20  N   UNL     1     -44.535 -47.703   8.012  1.00  0.00    -0.248 N 
HETATM   21  O   UNL     1     -43.212 -47.840   8.447  1.00  0.00    -0.223 OA
ATOM     22  HN  UNL     1     -44.909 -47.842   7.073  1.00  0.00     0.196 HD
ENDBRANCH  14  15
ENDBRANCH  13  14
ENDBRANCH  11  13
TORSDOF 3
ENDMDL
MODEL 9
REMARK VINA RESULT:      -5.2      3.727      5.815
REMARK  3 active torsions:
REMARK  status: ('A' for Active; 'I' for Inactive)
REMARK       I    between atoms: N_5  and  C_9 
REMARK       I    between atoms: C_9  and  N_11 
REMARK    1  A    between atoms: N_11  and  C_12 
REMARK    2  A    between atoms: C_12  and  C_13 
REMARK    3  A    between atoms: C_13  and  C_14 
ROOT
HETATM    1  C   UNL     1     -39.576 -55.005  15.345  1.00  0.00     0.010 C 
HETATM    2  C   UNL     1     -39.467 -54.253  14.016  1.00  0.00    -0.015 C 
HETATM    3  C   UNL     1     -38.955 -52.821  14.202  1.00  0.00     0.024 C 
HETATM    4  C   UNL     1     -40.008 -51.877  14.788  1.00  0.00     0.128 C 
HETATM    5  N   UNL     1     -41.273 -51.926  14.036  1.00  0.00    -0.330 N 
HETATM    6  C   UNL     1     -41.839 -53.292  13.914  1.00  0.00     0.085 C 
HETATM    7  C   UNL     1     -43.175 -53.463  13.185  1.00  0.00     0.032 C 
HETATM    8  C   UNL     1     -40.803 -54.228  13.261  1.00  0.00     0.029 C 
HETATM    9  C   UNL     1     -41.907 -50.811  13.499  1.00  0.00     0.318 C 
HETATM   10  O   UNL     1     -42.930 -50.849  12.821  1.00  0.00    -0.247 OA
HETATM   11  N   UNL     1     -41.305 -49.604  13.744  1.00  0.00    -0.343 N 
HETATM   12  H   UNL     1     -40.887 -49.509  14.660  1.00  0.00     0.164 HD
ENDROOT
BRANCH  11  13
HETATM   13  C   UNL     1     -41.888 -48.369  13.229  1.00  0.00     0.132 C 
BRANCH  13  14
HETATM   14  C   UNL     1     -41.157 -47.832  11.997  1.00  0.00     0.106 C 
BRANCH  14  15
HETATM   15  C   UNL     1     -42.099 -47.666  10.864  1.00  0.00     0.149 A 
HETATM   16  N   UNL     1     -41.957 -48.029   9.608  1.00  0.00    -0.327 N 
HETATM   17  C   UNL     1     -43.156 -47.650   9.062  1.00  0.00     0.100 A 
ATOM     18  HN  UNL     1     -41.160 -48.478   9.155  1.00  0.00     0.169 HD
HETATM   19  C   UNL     1     -43.470 -47.838   7.637  1.00  0.00     0.091 C 
HETATM   20  N   UNL     1     -44.019 -47.099   9.925  1.00  0.00    -0.248 N 
HETATM   21  O   UNL     1     -43.315 -47.108  11.134  1.00  0.00    -0.223 OA
ATOM     22  HN  UNL     1     -44.962 -46.756   9.744  1.00  0.00     0.196 HD
ENDBRANCH  14  15
ENDBRANCH  13  14
ENDBRANCH  11  13
TORSDOF 3
ENDMDL
