MODEL 1
REMARK VINA RESULT:      -6.2      0.000      0.000
REMARK  4 active torsions:
REMARK  status: ('A' for Active; 'I' for Inactive)
REMARK    1  A    between atoms: O_1  and  C_2 
REMARK    2  A    between atoms: C_5  and  N_8 
REMARK       I    between atoms: N_8  and  C_9 
REMARK       I    between atoms: C_9  and  N_11 
REMARK    3  A    between atoms: N_11  and  C_12 
REMARK    4  A    between atoms: C_15  and  N_19 
ROOT
HETATM    1  N   UNL     1     -42.523 -48.799  11.015  1.00  0.00    -0.338 N 
HETATM    2  C   UNL     1     -42.404 -49.770  11.987  1.00  0.00     0.321 C 
HETATM    3  O   UNL     1     -43.075 -49.781  13.013  1.00  0.00    -0.247 OA
HETATM    4  N   UNL     1     -41.388 -50.652  11.690  1.00  0.00    -0.308 N 
HETATM    5  H   UNL     1     -42.375 -49.126  10.070  1.00  0.00     0.164 HD
HETATM    6  H   UNL     1     -40.638 -50.238  11.153  1.00  0.00     0.170 HD
ENDROOT
BRANCH   4   7
HETATM    7  C   UNL     1     -41.047 -51.721  12.547  1.00  0.00     0.051 A 
HETATM    8  C   UNL     1     -41.762 -52.905  12.467  1.00  0.00     0.035 A 
HETATM    9  C   UNL     1     -41.409 -53.975  13.294  1.00  0.00     0.051 A 
HETATM   10  C   UNL     1     -40.369 -53.851  14.220  1.00  0.00     0.103 A 
HETATM   11  N   UNL     1     -39.703 -52.683  14.327  1.00  0.00    -0.350 N 
HETATM   12  C   UNL     1     -40.030 -51.663  13.483  1.00  0.00     0.119 A 
ATOM     13  HN  UNL     1     -38.969 -52.565  15.025  1.00  0.00     0.166 HD
BRANCH  10  14
HETATM   14  N   UNL     1     -40.041 -54.905  15.062  1.00  0.00    -0.367 N 
HETATM   15  C   UNL     1     -38.641 -55.135  15.418  1.00  0.00     0.124 C 
HETATM   16  C   UNL     1     -38.674 -55.706  16.833  1.00  0.00     0.021 C 
HETATM   17  C   UNL     1     -40.006 -55.243  17.395  1.00  0.00     0.021 C 
HETATM   18  C   UNL     1     -40.926 -55.230  16.179  1.00  0.00     0.124 C 
ENDBRANCH  10  14
ENDBRANCH   4   7
BRANCH   1  19
HETATM   19  C   UNL     1     -43.415 -47.659  11.215  1.00  0.00     0.086 C 
HETATM   20  C   UNL     1     -44.502 -47.569  10.137  1.00  0.00     0.028 C 
HETATM   21  C   UNL     1     -43.953 -47.103   8.788  1.00  0.00     0.034 C 
HETATM   22  C   UNL     1     -43.185 -45.787   8.908  1.00  0.00     0.118 C 
HETATM   23  C   UNL     1     -42.087 -45.869   9.967  1.00  0.00     0.034 C 
HETATM   24  C   UNL     1     -42.619 -46.353  11.318  1.00  0.00     0.028 C 
BRANCH  22  25
HETATM   25  O   UNL     1     -44.081 -44.739   9.268  1.00  0.00    -0.396 OA
HETATM   26  H   UNL     1     -43.948 -44.007   8.641  1.00  0.00     0.210 HD
ENDBRANCH  22  25
ENDBRANCH   1  19
TORSDOF 4
ENDMDL
MODEL 2
REMARK VINA RESULT:      -5.9      3.657      8.549
REMARK  4 active torsions:
REMARK  status: ('A' for Active; 'I' for Inactive)
REMARK    1  A    between atoms: O_1  and  C_2 
REMARK    2  A    between atoms: C_5  and  N_8 
REMARK       I    between atoms: N_8  and  C_9 
REMARK       I    between atoms: C_9  and  N_11 
REMARK    3  A    between atoms: N_11  and  C_12 
REMARK    4  A    between atoms: C_15  and  N_19 
ROOT
HETATM    1  N   UNL     1     -43.409 -51.565  12.822  1.00  0.00    -0.338 N 
HETATM    2  C   UNL     1     -42.639 -50.423  12.874  1.00  0.00     0.321 C 
HETATM    3  O   UNL     1     -41.821 -50.203  13.761  1.00  0.00    -0.247 OA
HETATM    4  N   UNL     1     -42.975 -49.547  11.866  1.00  0.00    -0.308 N 
HETATM    5  H   UNL     1     -43.611 -51.897  11.889  1.00  0.00     0.164 HD
HETATM    6  H   UNL     1     -43.943 -49.612  11.581  1.00  0.00     0.170 HD
ENDROOT
BRANCH   4   7
HETATM    7  C   UNL     1     -42.349 -48.290  11.723  1.00  0.00     0.051 A 
HETATM    8  C   UNL     1     -42.786 -47.227  12.497  1.00  0.00     0.035 A 
HETATM    9  C   UNL     1     -42.149 -45.987  12.378  1.00  0.00     0.051 A 
HETATM   10  C   UNL     1     -41.107 -45.803  11.465  1.00  0.00     0.103 A 
HETATM   11  N   UNL     1     -40.714 -46.827  10.681  1.00  0.00    -0.350 N 
HETATM   12  C   UNL     1     -41.314 -48.041  10.840  1.00  0.00     0.119 A 
ATOM     13  HN  UNL     1     -39.982 -46.696   9.983  1.00  0.00     0.166 HD
BRANCH  10  14
HETATM   14  N   UNL     1     -40.499 -44.562  11.327  1.00  0.00    -0.367 N 
HETATM   15  C   UNL     1     -41.327 -43.371  11.140  1.00  0.00     0.124 C 
HETATM   16  C   UNL     1     -40.557 -42.237  11.811  1.00  0.00     0.021 C 
HETATM   17  C   UNL     1     -39.647 -42.935  12.806  1.00  0.00     0.021 C 
HETATM   18  C   UNL     1     -39.311 -44.255  12.121  1.00  0.00     0.124 C 
ENDBRANCH  10  14
ENDBRANCH   4   7
BRANCH   1  19
HETATM   19  C   UNL     1     -43.347 -52.549  13.901  1.00  0.00     0.086 C 
HETATM   20  C   UNL     1     -43.584 -53.980  13.404  1.00  0.00     0.028 C 
HETATM   21  C   UNL     1     -45.047 -54.240  13.041  1.00  0.00     0.034 C 
HETATM   22  C   UNL     1     -45.991 -53.892  14.191  1.00  0.00     0.118 C 
HETATM   23  C   UNL     1     -45.777 -52.462  14.684  1.00  0.00     0.034 C 
HETATM   24  C   UNL     1     -44.314 -52.182  15.033  1.00  0.00     0.028 C 
BRANCH  22  25
HETATM   25  O   UNL     1     -45.769 -54.783  15.281  1.00  0.00    -0.396 OA
HETATM   26  H   UNL     1     -46.134 -55.650  15.033  1.00  0.00     0.210 HD
ENDBRANCH  22  25
ENDBRANCH   1  19
TORSDOF 4
ENDMDL
MODEL 3
REMARK VINA RESULT:      -5.9      2.809      3.839
REMARK  4 active torsions:
REMARK  status: ('A' for Active; 'I' for Inactive)
REMARK    1  A    between atoms: O_1  and  C_2 
REMARK    2  A    between atoms: C_5  and  N_8 
REMARK       I    between atoms: N_8  and  C_9 
REMARK       I    between atoms: C_9  and  N_11 
REMARK    3  A    between atoms: N_11  and  C_12 
REMARK    4  A    between atoms: C_15  and  N_19 
ROOT
HETATM    1  N   UNL     1     -40.478 -46.733  11.207  1.00  0.00    -0.338 N 
HETATM    2  C   UNL     1     -41.113 -47.955  11.161  1.00  0.00     0.321 C 
HETATM    3  O   UNL     1     -41.889 -48.278  10.268  1.00  0.00    -0.247 OA
HETATM    4  N   UNL     1     -40.828 -48.708  12.279  1.00  0.00    -0.308 N 
HETATM    5  H   UNL     1     -39.546 -46.755  11.598  1.00  0.00     0.164 HD
HETATM    6  H   UNL     1     -40.643 -48.153  13.103  1.00  0.00     0.170 HD
ENDROOT
BRANCH   4   7
HETATM    7  C   UNL     1     -41.383 -49.990  12.483  1.00  0.00     0.051 A 
HETATM    8  C   UNL     1     -42.527 -50.115  13.256  1.00  0.00     0.035 A 
HETATM    9  C   UNL     1     -43.096 -51.379  13.437  1.00  0.00     0.051 A 
HETATM   10  C   UNL     1     -42.505 -52.516  12.879  1.00  0.00     0.103 A 
HETATM   11  N   UNL     1     -41.367 -52.398  12.165  1.00  0.00    -0.350 N 
HETATM   12  C   UNL     1     -40.849 -51.154  11.960  1.00  0.00     0.119 A 
ATOM     13  HN  UNL     1     -40.903 -53.223  11.786  1.00  0.00     0.166 HD
BRANCH  10  14
HETATM   14  N   UNL     1     -43.054 -53.774  13.088  1.00  0.00    -0.367 N 
HETATM   15  C   UNL     1     -42.810 -54.466  14.353  1.00  0.00     0.124 C 
HETATM   16  C   UNL     1     -44.068 -55.291  14.610  1.00  0.00     0.021 C 
HETATM   17  C   UNL     1     -45.147 -54.596  13.800  1.00  0.00     0.021 C 
HETATM   18  C   UNL     1     -44.396 -54.061  12.584  1.00  0.00     0.124 C 
ENDBRANCH  10  14
ENDBRANCH   4   7
BRANCH   1  19
HETATM   19  C   UNL     1     -40.781 -45.705  10.212  1.00  0.00     0.086 C 
HETATM   20  C   UNL     1     -39.720 -44.599  10.171  1.00  0.00     0.028 C 
HETATM   21  C   UNL     1     -39.793 -43.670  11.383  1.00  0.00     0.034 C 
HETATM   22  C   UNL     1     -41.192 -43.085  11.570  1.00  0.00     0.118 C 
HETATM   23  C   UNL     1     -42.257 -44.178  11.632  1.00  0.00     0.034 C 
HETATM   24  C   UNL     1     -42.184 -45.128  10.434  1.00  0.00     0.028 C 
BRANCH  22  25
HETATM   25  O   UNL     1     -41.499 -42.216  10.483  1.00  0.00    -0.396 OA
HETATM   26  H   UNL     1     -40.658 -41.910  10.103  1.00  0.00     0.210 HD
ENDBRANCH  22  25
ENDBRANCH   1  19
TORSDOF 4
ENDMDL
MODEL 4
REMARK VINA RESULT:      -5.4      2.872      4.265
REMARK  4 active torsions:
REMARK  status: ('A' for Active; 'I' for Inactive)
REMARK    1  A    between atoms: O_1  and  C_2 
REMARK    2  A    between atoms: C_5  and  N_8 
REMARK       I    between atoms: N_8  and  C_9 
REMARK       I    between atoms: C_9  and  N_11 
REMARK    3  A    between atoms: N_11  and  C_12 
REMARK    4  A    between atoms: C_15  and  N_19 
ROOT
HETATM    1  N   UNL     1     -42.863 -44.881  12.694  1.00  0.00    -0.338 N 
HETATM    2  C   UNL     1     -42.379 -46.146  12.946  1.00  0.00     0.321 C 
HETATM    3  O   UNL     1     -41.392 -46.363  13.642  1.00  0.00    -0.247 OA
HETATM    4  N   UNL     1     -43.088 -47.101  12.252  1.00  0.00    -0.308 N 
HETATM    5  H   UNL     1     -43.868 -44.823  12.606  1.00  0.00     0.164 HD
HETATM    6  H   UNL     1     -43.473 -46.763  11.380  1.00  0.00     0.170 HD
ENDROOT
BRANCH   4   7
HETATM    7  C   UNL     1     -42.766 -48.474  12.319  1.00  0.00     0.051 A 
HETATM    8  C   UNL     1     -43.347 -49.256  13.305  1.00  0.00     0.035 A 
HETATM    9  C   UNL     1     -43.052 -50.622  13.357  1.00  0.00     0.051 A 
HETATM   10  C   UNL     1     -42.156 -51.195  12.451  1.00  0.00     0.103 A 
HETATM   11  N   UNL     1     -41.558 -50.424  11.521  1.00  0.00    -0.350 N 
HETATM   12  C   UNL     1     -41.889 -49.103  11.454  1.00  0.00     0.119 A 
ATOM     13  HN  UNL     1     -40.872 -50.821  10.879  1.00  0.00     0.166 HD
BRANCH  10  14
HETATM   14  N   UNL     1     -41.841 -52.545  12.526  1.00  0.00    -0.367 N 
HETATM   15  C   UNL     1     -40.511 -52.951  12.978  1.00  0.00     0.124 C 
HETATM   16  C   UNL     1     -40.719 -54.280  13.700  1.00  0.00     0.021 C 
HETATM   17  C   UNL     1     -42.182 -54.265  14.103  1.00  0.00     0.021 C 
HETATM   18  C   UNL     1     -42.859 -53.493  12.975  1.00  0.00     0.124 C 
ENDBRANCH  10  14
ENDBRANCH   4   7
BRANCH   1  19
HETATM   19  C   UNL     1     -42.148 -43.704  13.184  1.00  0.00     0.086 C 
HETATM   20  C   UNL     1     -42.977 -42.420  13.061  1.00  0.00     0.028 C 
HETATM   21  C   UNL     1     -43.099 -41.938  11.614  1.00  0.00     0.034 C 
HETATM   22  C   UNL     1     -41.733 -41.778  10.948  1.00  0.00     0.118 C 
HETATM   23  C   UNL     1     -40.904 -43.056  11.048  1.00  0.00     0.034 C 
HETATM   24  C   UNL     1     -40.789 -43.562  12.488  1.00  0.00     0.028 C 
BRANCH  22  25
HETATM   25  O   UNL     1     -41.013 -40.722  11.578  1.00  0.00    -0.396 OA
HETATM   26  H   UNL     1     -40.204 -41.104  11.962  1.00  0.00     0.210 HD
ENDBRANCH  22  25
ENDBRANCH   1  19
TORSDOF 4
ENDMDL
MODEL 5
REMARK VINA RESULT:      -5.4      5.013      6.744
REMARK  4 active torsions:
REMARK  status: ('A' for Active; 'I' for Inactive)
REMARK    1  A    between atoms: O_1  and  C_2 
REMARK    2  A    between atoms: C_5  and  N_8 
REMARK       I    between atoms: N_8  and  C_9 
REMARK       I    between atoms: C_9  and  N_11 
REMARK    3  A    between atoms: N_11  and  C_12 
REMARK    4  A    between atoms: C_15  and  N_19 
ROOT
HETATM    1  N   UNL     1     -43.757 -54.171  15.327  1.00  0.00    -0.338 N 
HETATM    2  C   UNL     1     -42.947 -55.184  15.794  1.00  0.00     0.321 C 
HETATM    3  O   UNL     1     -43.116 -56.365  15.510  1.00  0.00    -0.247 OA
HETATM    4  N   UNL     1     -42.002 -54.704  16.673  1.00  0.00    -0.308 N 
HETATM    5  H   UNL     1     -43.282 -53.296  15.155  1.00  0.00     0.164 HD
HETATM    6  H   UNL     1     -42.305 -53.887  17.186  1.00  0.00     0.170 HD
ENDROOT
BRANCH   4   7
HETATM    7  C   UNL     1     -41.071 -55.550  17.313  1.00  0.00     0.051 A 
HETATM    8  C   UNL     1     -39.880 -55.851  16.672  1.00  0.00     0.035 A 
HETATM    9  C   UNL     1     -38.943 -56.666  17.315  1.00  0.00     0.051 A 
HETATM   10  C   UNL     1     -39.211 -57.206  18.576  1.00  0.00     0.103 A 
HETATM   11  N   UNL     1     -40.390 -56.949  19.179  1.00  0.00    -0.350 N 
HETATM   12  C   UNL     1     -41.274 -56.117  18.559  1.00  0.00     0.119 A 
ATOM     13  HN  UNL     1     -40.615 -57.368  20.081  1.00  0.00     0.166 HD
BRANCH  10  14
HETATM   14  N   UNL     1     -38.293 -58.041  19.198  1.00  0.00    -0.367 N 
HETATM   15  C   UNL     1     -38.193 -59.440  18.781  1.00  0.00     0.124 C 
HETATM   16  C   UNL     1     -36.727 -59.815  18.978  1.00  0.00     0.021 C 
HETATM   17  C   UNL     1     -35.991 -58.488  18.948  1.00  0.00     0.021 C 
HETATM   18  C   UNL     1     -36.983 -57.512  19.572  1.00  0.00     0.124 C 
ENDBRANCH  10  14
ENDBRANCH   4   7
BRANCH   1  19
HETATM   19  C   UNL     1     -44.938 -54.481  14.524  1.00  0.00     0.086 C 
HETATM   20  C   UNL     1     -44.634 -54.515  13.022  1.00  0.00     0.028 C 
HETATM   21  C   UNL     1     -44.408 -53.120  12.437  1.00  0.00     0.034 C 
HETATM   22  C   UNL     1     -45.572 -52.178  12.742  1.00  0.00     0.118 C 
HETATM   23  C   UNL     1     -45.875 -52.120  14.238  1.00  0.00     0.034 C 
HETATM   24  C   UNL     1     -46.084 -53.511  14.842  1.00  0.00     0.028 C 
BRANCH  22  25
HETATM   25  O   UNL     1     -46.742 -52.624  12.062  1.00  0.00    -0.396 OA
HETATM   26  H   UNL     1     -46.805 -53.587  12.183  1.00  0.00     0.210 HD
ENDBRANCH  22  25
ENDBRANCH   1  19
TORSDOF 4
ENDMDL
MODEL 6
REMARK VINA RESULT:      -5.3      6.636      8.662
REMARK  4 active torsions:
REMARK  status: ('A' for Active; 'I' for Inactive)
REMARK    1  A    between atoms: O_1  and  C_2 
REMARK    2  A    between atoms: C_5  and  N_8 
REMARK       I    between atoms: N_8  and  C_9 
REMARK       I    between atoms: C_9  and  N_11 
REMARK    3  A    between atoms: N_11  and  C_12 
REMARK    4  A    between atoms: C_15  and  N_19 
ROOT
HETATM    1  N   UNL     1     -43.073 -53.311  15.197  1.00  0.00    -0.338 N 
HETATM    2  C   UNL     1     -44.196 -53.640  15.926  1.00  0.00     0.321 C 
HETATM    3  O   UNL     1     -44.910 -54.602  15.664  1.00  0.00    -0.247 OA
HETATM    4  N   UNL     1     -44.445 -52.707  16.908  1.00  0.00    -0.308 N 
HETATM    5  H   UNL     1     -42.320 -52.910  15.739  1.00  0.00     0.164 HD
HETATM    6  H   UNL     1     -44.129 -51.777  16.671  1.00  0.00     0.170 HD
ENDROOT
BRANCH   4   7
HETATM    7  C   UNL     1     -45.558 -52.803  17.771  1.00  0.00     0.051 A 
HETATM    8  C   UNL     1     -46.568 -51.859  17.678  1.00  0.00     0.035 A 
HETATM    9  C   UNL     1     -47.685 -51.967  18.512  1.00  0.00     0.051 A 
HETATM   10  C   UNL     1     -47.776 -52.993  19.458  1.00  0.00     0.103 A 
HETATM   11  N   UNL     1     -46.771 -53.884  19.577  1.00  0.00    -0.350 N 
HETATM   12  C   UNL     1     -45.709 -53.792  18.727  1.00  0.00     0.119 A 
ATOM     13  HN  UNL     1     -46.805 -54.614  20.289  1.00  0.00     0.166 HD
BRANCH  10  14
HETATM   14  N   UNL     1     -48.871 -53.078  20.306  1.00  0.00    -0.367 N 
HETATM   15  C   UNL     1     -49.998 -52.164  20.121  1.00  0.00     0.124 C 
HETATM   16  C   UNL     1     -51.231 -52.955  20.550  1.00  0.00     0.021 C 
HETATM   17  C   UNL     1     -50.816 -54.408  20.409  1.00  0.00     0.021 C 
HETATM   18  C   UNL     1     -49.330 -54.392  20.752  1.00  0.00     0.124 C 
ENDBRANCH  10  14
ENDBRANCH   4   7
BRANCH   1  19
HETATM   19  C   UNL     1     -42.727 -54.064  13.992  1.00  0.00     0.086 C 
HETATM   20  C   UNL     1     -41.233 -54.398  13.919  1.00  0.00     0.028 C 
HETATM   21  C   UNL     1     -40.374 -53.175  13.591  1.00  0.00     0.034 C 
HETATM   22  C   UNL     1     -40.845 -52.471  12.319  1.00  0.00     0.118 C 
HETATM   23  C   UNL     1     -42.329 -52.117  12.387  1.00  0.00     0.034 C 
HETATM   24  C   UNL     1     -43.200 -53.327  12.733  1.00  0.00     0.028 C 
BRANCH  22  25
HETATM   25  O   UNL     1     -40.635 -53.320  11.194  1.00  0.00    -0.396 OA
HETATM   26  H   UNL     1     -41.493 -53.713  10.956  1.00  0.00     0.210 HD
ENDBRANCH  22  25
ENDBRANCH   1  19
TORSDOF 4
ENDMDL
MODEL 7
REMARK VINA RESULT:      -5.3      4.364      7.533
REMARK  4 active torsions:
REMARK  status: ('A' for Active; 'I' for Inactive)
REMARK    1  A    between atoms: O_1  and  C_2 
REMARK    2  A    between atoms: C_5  and  N_8 
REMARK       I    between atoms: N_8  and  C_9 
REMARK       I    between atoms: C_9  and  N_11 
REMARK    3  A    between atoms: N_11  and  C_12 
REMARK    4  A    between atoms: C_15  and  N_19 
ROOT
HETATM    1  N   UNL     1     -40.123 -54.132  15.251  1.00  0.00    -0.338 N 
HETATM    2  C   UNL     1     -39.369 -55.209  15.665  1.00  0.00     0.321 C 
HETATM    3  O   UNL     1     -38.515 -55.742  14.965  1.00  0.00    -0.247 OA
HETATM    4  N   UNL     1     -39.762 -55.644  16.911  1.00  0.00    -0.308 N 
HETATM    5  H   UNL     1     -40.361 -53.476  15.981  1.00  0.00     0.164 HD
HETATM    6  H   UNL     1     -40.740 -55.480  17.106  1.00  0.00     0.170 HD
ENDROOT
BRANCH   4   7
HETATM    7  C   UNL     1     -39.162 -56.755  17.544  1.00  0.00     0.051 A 
HETATM    8  C   UNL     1     -37.975 -56.577  18.235  1.00  0.00     0.035 A 
HETATM    9  C   UNL     1     -37.392 -57.669  18.887  1.00  0.00     0.051 A 
HETATM   10  C   UNL     1     -37.975 -58.938  18.817  1.00  0.00     0.103 A 
HETATM   11  N   UNL     1     -39.106 -59.117  18.106  1.00  0.00    -0.350 N 
HETATM   12  C   UNL     1     -39.686 -58.035  17.513  1.00  0.00     0.119 A 
ATOM     13  HN  UNL     1     -39.521 -60.044  18.013  1.00  0.00     0.166 HD
BRANCH  10  14
HETATM   14  N   UNL     1     -37.377 -60.026  19.438  1.00  0.00    -0.367 N 
HETATM   15  C   UNL     1     -35.937 -60.238  19.290  1.00  0.00     0.124 C 
HETATM   16  C   UNL     1     -35.489 -60.883  20.599  1.00  0.00     0.021 C 
HETATM   17  C   UNL     1     -36.557 -60.484  21.601  1.00  0.00     0.021 C 
HETATM   18  C   UNL     1     -37.832 -60.431  20.767  1.00  0.00     0.124 C 
ENDBRANCH  10  14
ENDBRANCH   4   7
BRANCH   1  19
HETATM   19  C   UNL     1     -39.997 -53.623  13.886  1.00  0.00     0.086 C 
HETATM   20  C   UNL     1     -40.065 -52.093  13.822  1.00  0.00     0.028 C 
HETATM   21  C   UNL     1     -41.479 -51.558  14.059  1.00  0.00     0.034 C 
HETATM   22  C   UNL     1     -42.496 -52.195  13.113  1.00  0.00     0.118 C 
HETATM   23  C   UNL     1     -42.451 -53.720  13.180  1.00  0.00     0.034 C 
HETATM   24  C   UNL     1     -41.039 -54.269  12.964  1.00  0.00     0.028 C 
BRANCH  22  25
HETATM   25  O   UNL     1     -42.222 -51.794  11.773  1.00  0.00    -0.396 OA
HETATM   26  H   UNL     1     -42.982 -51.273  11.459  1.00  0.00     0.210 HD
ENDBRANCH  22  25
ENDBRANCH   1  19
TORSDOF 4
ENDMDL
MODEL 8
REMARK VINA RESULT:      -5.2      4.179      5.947
REMARK  4 active torsions:
REMARK  status: ('A' for Active; 'I' for Inactive)
REMARK    1  A    between atoms: O_1  and  C_2 
REMARK    2  A    between atoms: C_5  and  N_8 
REMARK       I    between atoms: N_8  and  C_9 
REMARK       I    between atoms: C_9  and  N_11 
REMARK    3  A    between atoms: N_11  and  C_12 
REMARK    4  A    between atoms: C_15  and  N_19 
ROOT
HETATM    1  N   UNL     1     -42.652 -52.985  14.512  1.00  0.00    -0.338 N 
HETATM    2  C   UNL     1     -41.460 -53.649  14.708  1.00  0.00     0.321 C 
HETATM    3  O   UNL     1     -40.722 -53.992  13.791  1.00  0.00    -0.247 OA
HETATM    4  N   UNL     1     -41.266 -53.943  16.040  1.00  0.00    -0.308 N 
HETATM    5  H   UNL     1     -42.889 -52.318  15.233  1.00  0.00     0.164 HD
HETATM    6  H   UNL     1     -42.125 -54.079  16.553  1.00  0.00     0.170 HD
ENDROOT
BRANCH   4   7
HETATM    7  C   UNL     1     -40.130 -54.647  16.496  1.00  0.00     0.051 A 
HETATM    8  C   UNL     1     -38.983 -53.941  16.820  1.00  0.00     0.035 A 
HETATM    9  C   UNL     1     -37.866 -54.632  17.300  1.00  0.00     0.051 A 
HETATM   10  C   UNL     1     -37.885 -56.025  17.420  1.00  0.00     0.103 A 
HETATM   11  N   UNL     1     -38.987 -56.714  17.062  1.00  0.00    -0.350 N 
HETATM   12  C   UNL     1     -40.083 -56.023  16.638  1.00  0.00     0.119 A 
ATOM     13  HN  UNL     1     -39.000 -57.733  17.107  1.00  0.00     0.166 HD
BRANCH  10  14
HETATM   14  N   UNL     1     -36.763 -56.711  17.866  1.00  0.00    -0.367 N 
HETATM   15  C   UNL     1     -35.446 -56.083  17.763  1.00  0.00     0.124 C 
HETATM   16  C   UNL     1     -34.654 -56.611  18.956  1.00  0.00     0.021 C 
HETATM   17  C   UNL     1     -35.715 -57.042  19.952  1.00  0.00     0.021 C 
HETATM   18  C   UNL     1     -36.859 -57.533  19.071  1.00  0.00     0.124 C 
ENDBRANCH  10  14
ENDBRANCH   4   7
BRANCH   1  19
HETATM   19  C   UNL     1     -43.145 -52.736  13.158  1.00  0.00     0.086 C 
HETATM   20  C   UNL     1     -43.961 -51.442  13.060  1.00  0.00     0.028 C 
HETATM   21  C   UNL     1     -45.341 -51.569  13.708  1.00  0.00     0.034 C 
HETATM   22  C   UNL     1     -46.125 -52.758  13.153  1.00  0.00     0.118 C 
HETATM   23  C   UNL     1     -45.329 -54.057  13.261  1.00  0.00     0.034 C 
HETATM   24  C   UNL     1     -43.938 -53.939  12.635  1.00  0.00     0.028 C 
BRANCH  22  25
HETATM   25  O   UNL     1     -46.435 -52.531  11.781  1.00  0.00    -0.396 OA
HETATM   26  H   UNL     1     -45.710 -52.008  11.397  1.00  0.00     0.210 HD
ENDBRANCH  22  25
ENDBRANCH   1  19
TORSDOF 4
ENDMDL
MODEL 9
REMARK VINA RESULT:      -5.2     14.814     17.158
REMARK  4 active torsions:
REMARK  status: ('A' for Active; 'I' for Inactive)
REMARK    1  A    between atoms: O_1  and  C_2 
REMARK    2  A    between atoms: C_5  and  N_8 
REMARK       I    between atoms: N_8  and  C_9 
REMARK       I    between atoms: C_9  and  N_11 
REMARK    3  A    between atoms: N_11  and  C_12 
REMARK    4  A    between atoms: C_15  and  N_19 
ROOT
HETATM    1  N   UNL     1     -50.380 -50.098  -0.159  1.00  0.00    -0.338 N 
HETATM    2  C   UNL     1     -50.191 -51.446  -0.376  1.00  0.00     0.321 C 
HETATM    3  O   UNL     1     -49.892 -52.235   0.513  1.00  0.00    -0.247 OA
HETATM    4  N   UNL     1     -50.296 -51.755  -1.714  1.00  0.00    -0.308 N 
HETATM    5  H   UNL     1     -51.089 -49.671  -0.739  1.00  0.00     0.164 HD
HETATM    6  H   UNL     1     -50.021 -51.000  -2.326  1.00  0.00     0.170 HD
ENDROOT
BRANCH   4   7
HETATM    7  C   UNL     1     -50.113 -53.069  -2.198  1.00  0.00     0.051 A 
HETATM    8  C   UNL     1     -51.214 -53.900  -2.328  1.00  0.00     0.035 A 
HETATM    9  C   UNL     1     -51.041 -55.192  -2.834  1.00  0.00     0.051 A 
HETATM   10  C   UNL     1     -49.769 -55.662  -3.175  1.00  0.00     0.103 A 
HETATM   11  N   UNL     1     -48.694 -54.866  -3.006  1.00  0.00    -0.350 N 
HETATM   12  C   UNL     1     -48.884 -53.595  -2.553  1.00  0.00     0.119 A 
ATOM     13  HN  UNL     1     -47.756 -55.210  -3.212  1.00  0.00     0.166 HD
BRANCH  10  14
HETATM   14  N   UNL     1     -49.597 -56.956  -3.647  1.00  0.00    -0.367 N 
HETATM   15  C   UNL     1     -50.315 -57.388  -4.846  1.00  0.00     0.124 C 
HETATM   16  C   UNL     1     -49.391 -58.393  -5.528  1.00  0.00     0.021 C 
HETATM   17  C   UNL     1     -48.008 -58.052  -5.002  1.00  0.00     0.021 C 
HETATM   18  C   UNL     1     -48.273 -57.572  -3.578  1.00  0.00     0.124 C 
ENDBRANCH  10  14
ENDBRANCH   4   7
BRANCH   1  19
HETATM   19  C   UNL     1     -50.135 -49.521   1.162  1.00  0.00     0.086 C 
HETATM   20  C   UNL     1     -51.348 -48.750   1.699  1.00  0.00     0.028 C 
HETATM   21  C   UNL     1     -51.558 -47.415   0.982  1.00  0.00     0.034 C 
HETATM   22  C   UNL     1     -50.300 -46.549   1.006  1.00  0.00     0.118 C 
HETATM   23  C   UNL     1     -49.088 -47.300   0.457  1.00  0.00     0.034 C 
HETATM   24  C   UNL     1     -48.876 -48.647   1.152  1.00  0.00     0.028 C 
BRANCH  22  25
HETATM   25  O   UNL     1     -50.016 -46.152   2.345  1.00  0.00    -0.396 OA
HETATM   26  H   UNL     1     -49.399 -46.803   2.722  1.00  0.00     0.210 HD
ENDBRANCH  22  25
ENDBRANCH   1  19
TORSDOF 4
ENDMDL
