MODEL 1
REMARK VINA RESULT:      -6.3      0.000      0.000
REMARK  3 active torsions:
REMARK  status: ('A' for Active; 'I' for Inactive)
REMARK    1  A    between atoms: C_2  and  C_4 
REMARK    2  A    between atoms: C_9  and  N_10 
REMARK       I    between atoms: N_10  and  C_11 
REMARK       I    between atoms: C_11  and  N_13 
REMARK    3  A    between atoms: N_13  and  C_14 
ROOT
HETATM    1  N   UNL     1     -41.388 -53.718  13.197  1.00  0.00    -0.288 N 
HETATM    2  C   UNL     1     -42.613 -53.859  13.794  1.00  0.00     0.322 C 
HETATM    3  O   UNL     1     -42.899 -54.902  14.374  1.00  0.00    -0.247 OA
HETATM    4  N   UNL     1     -43.493 -52.831  13.615  1.00  0.00    -0.338 N 
HETATM    5  H   UNL     1     -40.795 -54.533  13.182  1.00  0.00     0.172 HD
HETATM    6  H   UNL     1     -43.095 -51.938  13.337  1.00  0.00     0.164 HD
ENDROOT
BRANCH   1   7
HETATM    7  C   UNL     1     -40.979 -52.575  12.569  1.00  0.00     0.169 A 
HETATM    8  N   UNL     1     -41.275 -52.190  11.349  1.00  0.00    -0.279 N 
HETATM    9  N   UNL     1     -40.633 -51.034  11.001  1.00  0.00    -0.296 N 
ATOM     10  HN  UNL     1     -41.911 -52.694  10.731  1.00  0.00     0.189 HD
HETATM   11  C   UNL     1     -39.857 -50.591  11.969  1.00  0.00     0.073 A 
ATOM     12  HN  UNL     1     -40.742 -50.569  10.100  1.00  0.00     0.187 HD
HETATM   13  S   UNL     1     -39.940 -51.530  13.417  1.00  0.00    -0.037 SA
BRANCH  11  14
HETATM   14  C   UNL     1     -38.969 -49.390  11.830  1.00  0.00     0.036 C 
HETATM   15  C   UNL     1     -38.875 -48.657  13.173  1.00  0.00     0.016 C 
HETATM   16  C   UNL     1     -37.576 -49.820  11.367  1.00  0.00     0.016 C 
ENDBRANCH  11  14
ENDBRANCH   1   7
BRANCH   4  17
HETATM   17  C   UNL     1     -44.861 -52.806  14.075  1.00  0.00     0.086 C 
HETATM   18  C   UNL     1     -45.822 -52.531  12.911  1.00  0.00     0.025 C 
HETATM   19  C   UNL     1     -46.870 -51.552  13.434  1.00  0.00     0.002 C 
HETATM   20  C   UNL     1     -46.598 -51.401  14.922  1.00  0.00     0.002 C 
HETATM   21  C   UNL     1     -45.110 -51.671  15.062  1.00  0.00     0.025 C 
ENDBRANCH   4  17
TORSDOF 3
ENDMDL
MODEL 2
REMARK VINA RESULT:      -6.1      2.641      3.595
REMARK  3 active torsions:
REMARK  status: ('A' for Active; 'I' for Inactive)
REMARK    1  A    between atoms: C_2  and  C_4 
REMARK    2  A    between atoms: C_9  and  N_10 
REMARK       I    between atoms: N_10  and  C_11 
REMARK       I    between atoms: C_11  and  N_13 
REMARK    3  A    between atoms: N_13  and  C_14 
ROOT
HETATM    1  N   UNL     1     -39.724 -51.387  12.302  1.00  0.00    -0.288 N 
HETATM    2  C   UNL     1     -40.268 -52.529  12.827  1.00  0.00     0.322 C 
HETATM    3  O   UNL     1     -39.549 -53.356  13.380  1.00  0.00    -0.247 OA
HETATM    4  N   UNL     1     -41.601 -52.719  12.607  1.00  0.00    -0.338 N 
HETATM    5  H   UNL     1     -38.718 -51.318  12.313  1.00  0.00     0.172 HD
HETATM    6  H   UNL     1     -42.141 -51.893  12.360  1.00  0.00     0.164 HD
ENDROOT
BRANCH   1   7
HETATM    7  C   UNL     1     -40.461 -50.400  11.709  1.00  0.00     0.169 A 
HETATM    8  N   UNL     1     -40.491 -50.089  10.434  1.00  0.00    -0.279 N 
HETATM    9  N   UNL     1     -41.273 -48.995  10.187  1.00  0.00    -0.296 N 
ATOM     10  HN  UNL     1     -39.988 -50.603   9.710  1.00  0.00     0.189 HD
HETATM   11  C   UNL     1     -41.798 -48.505  11.292  1.00  0.00     0.073 A 
ATOM     12  HN  UNL     1     -41.432 -48.604   9.258  1.00  0.00     0.187 HD
HETATM   13  S   UNL     1     -41.432 -49.424  12.708  1.00  0.00    -0.037 SA
BRANCH  11  14
HETATM   14  C   UNL     1     -42.628 -47.255  11.327  1.00  0.00     0.036 C 
HETATM   15  C   UNL     1     -43.905 -47.459  10.504  1.00  0.00     0.016 C 
HETATM   16  C   UNL     1     -42.983 -46.903  12.772  1.00  0.00     0.016 C 
ENDBRANCH  11  14
ENDBRANCH   1   7
BRANCH   4  17
HETATM   17  C   UNL     1     -42.359 -53.887  12.988  1.00  0.00     0.086 C 
HETATM   18  C   UNL     1     -43.793 -53.805  12.451  1.00  0.00     0.025 C 
HETATM   19  C   UNL     1     -44.706 -54.303  13.569  1.00  0.00     0.002 C 
HETATM   20  C   UNL     1     -43.785 -54.813  14.665  1.00  0.00     0.002 C 
HETATM   21  C   UNL     1     -42.514 -53.998  14.500  1.00  0.00     0.025 C 
ENDBRANCH   4  17
TORSDOF 3
ENDMDL
MODEL 3
REMARK VINA RESULT:      -6.0      3.182      6.058
REMARK  3 active torsions:
REMARK  status: ('A' for Active; 'I' for Inactive)
REMARK    1  A    between atoms: C_2  and  C_4 
REMARK    2  A    between atoms: C_9  and  N_10 
REMARK       I    between atoms: N_10  and  C_11 
REMARK       I    between atoms: C_11  and  N_13 
REMARK    3  A    between atoms: N_13  and  C_14 
ROOT
HETATM    1  N   UNL     1     -40.623 -51.308  12.037  1.00  0.00    -0.288 N 
HETATM    2  C   UNL     1     -40.447 -50.117  11.381  1.00  0.00     0.322 C 
HETATM    3  O   UNL     1     -39.315 -49.689  11.175  1.00  0.00    -0.247 OA
HETATM    4  N   UNL     1     -41.581 -49.423  11.076  1.00  0.00    -0.338 N 
HETATM    5  H   UNL     1     -39.796 -51.745  12.411  1.00  0.00     0.172 HD
HETATM    6  H   UNL     1     -42.448 -49.954  11.068  1.00  0.00     0.164 HD
ENDROOT
BRANCH   1   7
HETATM    7  C   UNL     1     -41.847 -51.871  12.266  1.00  0.00     0.169 A 
HETATM    8  N   UNL     1     -42.479 -52.734  11.505  1.00  0.00    -0.279 N 
HETATM    9  N   UNL     1     -43.724 -53.034  11.986  1.00  0.00    -0.296 N 
ATOM     10  HN  UNL     1     -42.087 -53.136  10.653  1.00  0.00     0.189 HD
HETATM   11  C   UNL     1     -43.998 -52.370  13.091  1.00  0.00     0.073 A 
ATOM     12  HN  UNL     1     -44.364 -53.692  11.542  1.00  0.00     0.187 HD
HETATM   13  S   UNL     1     -42.692 -51.396  13.664  1.00  0.00    -0.037 SA
BRANCH  11  14
HETATM   14  C   UNL     1     -45.325 -52.439  13.787  1.00  0.00     0.036 C 
HETATM   15  C   UNL     1     -46.352 -51.591  13.028  1.00  0.00     0.016 C 
HETATM   16  C   UNL     1     -45.798 -53.891  13.868  1.00  0.00     0.016 C 
ENDBRANCH  11  14
ENDBRANCH   1   7
BRANCH   4  17
HETATM   17  C   UNL     1     -41.629 -48.113  10.472  1.00  0.00     0.086 C 
HETATM   18  C   UNL     1     -41.389 -47.020  11.520  1.00  0.00     0.025 C 
HETATM   19  C   UNL     1     -42.379 -45.899  11.215  1.00  0.00     0.002 C 
HETATM   20  C   UNL     1     -43.060 -46.284   9.912  1.00  0.00     0.002 C 
HETATM   21  C   UNL     1     -43.004 -47.802   9.892  1.00  0.00     0.025 C 
ENDBRANCH   4  17
TORSDOF 3
ENDMDL
MODEL 4
REMARK VINA RESULT:      -6.0      2.601      3.210
REMARK  3 active torsions:
REMARK  status: ('A' for Active; 'I' for Inactive)
REMARK    1  A    between atoms: C_2  and  C_4 
REMARK    2  A    between atoms: C_9  and  N_10 
REMARK       I    between atoms: N_10  and  C_11 
REMARK       I    between atoms: C_11  and  N_13 
REMARK    3  A    between atoms: N_13  and  C_14 
ROOT
HETATM    1  N   UNL     1     -40.135 -50.844  11.401  1.00  0.00    -0.288 N 
HETATM    2  C   UNL     1     -40.900 -51.710  12.138  1.00  0.00     0.322 C 
HETATM    3  O   UNL     1     -40.524 -52.864  12.319  1.00  0.00    -0.247 OA
HETATM    4  N   UNL     1     -42.112 -51.239  12.553  1.00  0.00    -0.338 N 
HETATM    5  H   UNL     1     -39.319 -51.232  10.952  1.00  0.00     0.172 HD
HETATM    6  H   UNL     1     -42.226 -50.229  12.563  1.00  0.00     0.164 HD
ENDROOT
BRANCH   1   7
HETATM    7  C   UNL     1     -40.464 -49.535  11.190  1.00  0.00     0.169 A 
HETATM    8  N   UNL     1     -41.214 -49.050  10.228  1.00  0.00    -0.279 N 
HETATM    9  N   UNL     1     -41.275 -47.684  10.258  1.00  0.00    -0.296 N 
ATOM     10  HN  UNL     1     -41.697 -49.625   9.537  1.00  0.00     0.189 HD
HETATM   11  C   UNL     1     -40.551 -47.180  11.237  1.00  0.00     0.073 A 
ATOM     12  HN  UNL     1     -41.816 -47.122   9.601  1.00  0.00     0.187 HD
HETATM   13  S   UNL     1     -39.817 -48.372  12.249  1.00  0.00    -0.037 SA
BRANCH  11  14
HETATM   14  C   UNL     1     -40.366 -45.707  11.452  1.00  0.00     0.036 C 
HETATM   15  C   UNL     1     -39.566 -45.468  12.738  1.00  0.00     0.016 C 
HETATM   16  C   UNL     1     -39.638 -45.091  10.257  1.00  0.00     0.016 C 
ENDBRANCH  11  14
ENDBRANCH   1   7
BRANCH   4  17
HETATM   17  C   UNL     1     -43.113 -52.002  13.259  1.00  0.00     0.086 C 
HETATM   18  C   UNL     1     -43.837 -52.964  12.309  1.00  0.00     0.025 C 
HETATM   19  C   UNL     1     -45.318 -52.908  12.675  1.00  0.00     0.002 C 
HETATM   20  C   UNL     1     -45.407 -52.047  13.925  1.00  0.00     0.002 C 
HETATM   21  C   UNL     1     -44.215 -51.112  13.825  1.00  0.00     0.025 C 
ENDBRANCH   4  17
TORSDOF 3
ENDMDL
MODEL 5
REMARK VINA RESULT:      -5.8      1.756      6.004
REMARK  3 active torsions:
REMARK  status: ('A' for Active; 'I' for Inactive)
REMARK    1  A    between atoms: C_2  and  C_4 
REMARK    2  A    between atoms: C_9  and  N_10 
REMARK       I    between atoms: N_10  and  C_11 
REMARK       I    between atoms: C_11  and  N_13 
REMARK    3  A    between atoms: N_13  and  C_14 
ROOT
HETATM    1  N   UNL     1     -41.429 -53.947  13.616  1.00  0.00    -0.288 N 
HETATM    2  C   UNL     1     -40.265 -53.272  13.361  1.00  0.00     0.322 C 
HETATM    3  O   UNL     1     -39.184 -53.774  13.655  1.00  0.00    -0.247 OA
HETATM    4  N   UNL     1     -40.398 -52.006  12.869  1.00  0.00    -0.338 N 
HETATM    5  H   UNL     1     -41.348 -54.811  14.131  1.00  0.00     0.172 HD
HETATM    6  H   UNL     1     -41.293 -51.777  12.445  1.00  0.00     0.164 HD
ENDROOT
BRANCH   1   7
HETATM    7  C   UNL     1     -42.667 -53.475  13.281  1.00  0.00     0.169 A 
HETATM    8  N   UNL     1     -43.301 -53.647  12.144  1.00  0.00    -0.279 N 
HETATM    9  N   UNL     1     -44.489 -52.971  12.108  1.00  0.00    -0.296 N 
ATOM     10  HN  UNL     1     -42.950 -54.219  11.377  1.00  0.00     0.189 HD
HETATM   11  C   UNL     1     -44.705 -52.294  13.218  1.00  0.00     0.073 A 
ATOM     12  HN  UNL     1     -45.132 -52.988  11.316  1.00  0.00     0.187 HD
HETATM   13  S   UNL     1     -43.491 -52.524  14.425  1.00  0.00    -0.037 SA
BRANCH  11  14
HETATM   14  C   UNL     1     -45.888 -51.393  13.417  1.00  0.00     0.036 C 
HETATM   15  C   UNL     1     -46.866 -51.555  12.248  1.00  0.00     0.016 C 
HETATM   16  C   UNL     1     -46.585 -51.729  14.736  1.00  0.00     0.016 C 
ENDBRANCH  11  14
ENDBRANCH   1   7
BRANCH   4  17
HETATM   17  C   UNL     1     -39.316 -51.085  12.614  1.00  0.00     0.086 C 
HETATM   18  C   UNL     1     -38.961 -50.297  13.881  1.00  0.00     0.025 C 
HETATM   19  C   UNL     1     -38.722 -48.854  13.444  1.00  0.00     0.002 C 
HETATM   20  C   UNL     1     -38.783 -48.860  11.925  1.00  0.00     0.002 C 
HETATM   21  C   UNL     1     -39.701 -50.023  11.589  1.00  0.00     0.025 C 
ENDBRANCH   4  17
TORSDOF 3
ENDMDL
MODEL 6
REMARK VINA RESULT:      -5.8      3.876      5.794
REMARK  3 active torsions:
REMARK  status: ('A' for Active; 'I' for Inactive)
REMARK    1  A    between atoms: C_2  and  C_4 
REMARK    2  A    between atoms: C_9  and  N_10 
REMARK       I    between atoms: N_10  and  C_11 
REMARK       I    between atoms: C_11  and  N_13 
REMARK    3  A    between atoms: N_13  and  C_14 
ROOT
HETATM    1  N   UNL     1     -40.169 -49.641  11.933  1.00  0.00    -0.288 N 
HETATM    2  C   UNL     1     -40.678 -48.560  11.263  1.00  0.00     0.322 C 
HETATM    3  O   UNL     1     -40.000 -47.547  11.123  1.00  0.00    -0.247 OA
HETATM    4  N   UNL     1     -41.980 -48.656  10.866  1.00  0.00    -0.338 N 
HETATM    5  H   UNL     1     -39.270 -49.518  12.373  1.00  0.00     0.172 HD
HETATM    6  H   UNL     1     -42.369 -49.593  10.813  1.00  0.00     0.164 HD
ENDROOT
BRANCH   1   7
HETATM    7  C   UNL     1     -40.843 -50.818  12.094  1.00  0.00     0.169 A 
HETATM    8  N   UNL     1     -41.008 -51.767  11.201  1.00  0.00    -0.279 N 
HETATM    9  N   UNL     1     -41.807 -52.777  11.661  1.00  0.00    -0.296 N 
ATOM     10  HN  UNL     1     -40.589 -51.753  10.271  1.00  0.00     0.189 HD
HETATM   11  C   UNL     1     -42.234 -52.549  12.887  1.00  0.00     0.073 A 
ATOM     12  HN  UNL     1     -42.044 -53.609  11.121  1.00  0.00     0.187 HD
HETATM   13  S   UNL     1     -41.598 -51.105  13.591  1.00  0.00    -0.037 SA
BRANCH  11  14
HETATM   14  C   UNL     1     -43.195 -53.448  13.607  1.00  0.00     0.036 C 
HETATM   15  C   UNL     1     -44.173 -54.069  12.604  1.00  0.00     0.016 C 
HETATM   16  C   UNL     1     -42.430 -54.546  14.347  1.00  0.00     0.016 C 
ENDBRANCH  11  14
ENDBRANCH   1   7
BRANCH   4  17
HETATM   17  C   UNL     1     -42.744 -47.610  10.229  1.00  0.00     0.086 C 
HETATM   18  C   UNL     1     -44.182 -47.582  10.763  1.00  0.00     0.025 C 
HETATM   19  C   UNL     1     -45.091 -47.356   9.557  1.00  0.00     0.002 C 
HETATM   20  C   UNL     1     -44.166 -47.097   8.378  1.00  0.00     0.002 C 
HETATM   21  C   UNL     1     -42.890 -47.843   8.729  1.00  0.00     0.025 C 
ENDBRANCH   4  17
TORSDOF 3
ENDMDL
MODEL 7
REMARK VINA RESULT:      -5.7      4.037      6.108
REMARK  3 active torsions:
REMARK  status: ('A' for Active; 'I' for Inactive)
REMARK    1  A    between atoms: C_2  and  C_4 
REMARK    2  A    between atoms: C_9  and  N_10 
REMARK       I    between atoms: N_10  and  C_11 
REMARK       I    between atoms: C_11  and  N_13 
REMARK    3  A    between atoms: N_13  and  C_14 
ROOT
HETATM    1  N   UNL     1     -40.149 -51.420  12.071  1.00  0.00    -0.288 N 
HETATM    2  C   UNL     1     -39.093 -51.276  12.933  1.00  0.00     0.322 C 
HETATM    3  O   UNL     1     -38.539 -52.267  13.399  1.00  0.00    -0.247 OA
HETATM    4  N   UNL     1     -38.783 -49.999  13.298  1.00  0.00    -0.338 N 
HETATM    5  H   UNL     1     -40.490 -52.357  11.926  1.00  0.00     0.172 HD
HETATM    6  H   UNL     1     -39.127 -49.259  12.693  1.00  0.00     0.164 HD
ENDROOT
BRANCH   1   7
HETATM    7  C   UNL     1     -40.790 -50.369  11.478  1.00  0.00     0.169 A 
HETATM    8  N   UNL     1     -40.503 -49.813  10.323  1.00  0.00    -0.279 N 
HETATM    9  N   UNL     1     -41.291 -48.726  10.062  1.00  0.00    -0.296 N 
ATOM     10  HN  UNL     1     -39.777 -50.153   9.692  1.00  0.00     0.189 HD
HETATM   11  C   UNL     1     -42.140 -48.486  11.042  1.00  0.00     0.073 A 
ATOM     12  HN  UNL     1     -41.230 -48.168   9.211  1.00  0.00     0.187 HD
HETATM   13  S   UNL     1     -42.083 -49.650  12.317  1.00  0.00    -0.037 SA
BRANCH  11  14
HETATM   14  C   UNL     1     -43.064 -47.305  11.062  1.00  0.00     0.036 C 
HETATM   15  C   UNL     1     -42.293 -46.037  10.677  1.00  0.00     0.016 C 
HETATM   16  C   UNL     1     -44.223 -47.531  10.091  1.00  0.00     0.016 C 
ENDBRANCH  11  14
ENDBRANCH   1   7
BRANCH   4  17
HETATM   17  C   UNL     1     -37.774 -49.620  14.259  1.00  0.00     0.086 C 
HETATM   18  C   UNL     1     -38.285 -49.814  15.691  1.00  0.00     0.025 C 
HETATM   19  C   UNL     1     -37.816 -48.601  16.490  1.00  0.00     0.002 C 
HETATM   20  C   UNL     1     -36.913 -47.810  15.558  1.00  0.00     0.002 C 
HETATM   21  C   UNL     1     -37.425 -48.139  14.167  1.00  0.00     0.025 C 
ENDBRANCH   4  17
TORSDOF 3
ENDMDL
MODEL 8
REMARK VINA RESULT:      -5.6      4.505      6.475
REMARK  3 active torsions:
REMARK  status: ('A' for Active; 'I' for Inactive)
REMARK    1  A    between atoms: C_2  and  C_4 
REMARK    2  A    between atoms: C_9  and  N_10 
REMARK       I    between atoms: N_10  and  C_11 
REMARK       I    between atoms: C_11  and  N_13 
REMARK    3  A    between atoms: N_13  and  C_14 
ROOT
HETATM    1  N   UNL     1     -42.515 -48.933  10.920  1.00  0.00    -0.288 N 
HETATM    2  C   UNL     1     -42.739 -47.593  10.747  1.00  0.00     0.322 C 
HETATM    3  O   UNL     1     -43.861 -47.188  10.457  1.00  0.00    -0.247 OA
HETATM    4  N   UNL     1     -41.643 -46.784  10.818  1.00  0.00    -0.338 N 
HETATM    5  H   UNL     1     -43.282 -49.552  10.706  1.00  0.00     0.172 HD
HETATM    6  H   UNL     1     -40.827 -47.168  11.286  1.00  0.00     0.164 HD
ENDROOT
BRANCH   1   7
HETATM    7  C   UNL     1     -41.306 -49.457  11.283  1.00  0.00     0.169 A 
HETATM    8  N   UNL     1     -40.370 -49.919  10.486  1.00  0.00    -0.279 N 
HETATM    9  N   UNL     1     -39.317 -50.449  11.179  1.00  0.00    -0.296 N 
ATOM     10  HN  UNL     1     -40.421 -49.886   9.468  1.00  0.00     0.189 HD
HETATM   11  C   UNL     1     -39.502 -50.385  12.483  1.00  0.00     0.073 A 
ATOM     12  HN  UNL     1     -38.487 -50.847  10.740  1.00  0.00     0.187 HD
HETATM   13  S   UNL     1     -40.957 -49.576  12.943  1.00  0.00    -0.037 SA
BRANCH  11  14
HETATM   14  C   UNL     1     -38.548 -50.970  13.481  1.00  0.00     0.036 C 
HETATM   15  C   UNL     1     -39.053 -52.343  13.937  1.00  0.00     0.016 C 
HETATM   16  C   UNL     1     -37.156 -51.100  12.862  1.00  0.00     0.016 C 
ENDBRANCH  11  14
ENDBRANCH   1   7
BRANCH   4  17
HETATM   17  C   UNL     1     -41.631 -45.360  10.579  1.00  0.00     0.086 C 
HETATM   18  C   UNL     1     -40.193 -44.836  10.480  1.00  0.00     0.025 C 
HETATM   19  C   UNL     1     -40.156 -43.515  11.243  1.00  0.00     0.002 C 
HETATM   20  C   UNL     1     -41.596 -43.216  11.631  1.00  0.00     0.002 C 
HETATM   21  C   UNL     1     -42.250 -44.582  11.734  1.00  0.00     0.025 C 
ENDBRANCH   4  17
TORSDOF 3
ENDMDL
MODEL 9
REMARK VINA RESULT:      -5.6      2.907      6.033
REMARK  3 active torsions:
REMARK  status: ('A' for Active; 'I' for Inactive)
REMARK    1  A    between atoms: C_2  and  C_4 
REMARK    2  A    between atoms: C_9  and  N_10 
REMARK       I    between atoms: N_10  and  C_11 
REMARK       I    between atoms: C_11  and  N_13 
REMARK    3  A    between atoms: N_13  and  C_14 
ROOT
HETATM    1  N   UNL     1     -41.159 -51.109  12.283  1.00  0.00    -0.288 N 
HETATM    2  C   UNL     1     -40.091 -51.446  13.074  1.00  0.00     0.322 C 
HETATM    3  O   UNL     1     -39.036 -50.826  12.980  1.00  0.00    -0.247 OA
HETATM    4  N   UNL     1     -40.251 -52.544  13.867  1.00  0.00    -0.338 N 
HETATM    5  H   UNL     1     -40.996 -50.407  11.578  1.00  0.00     0.172 HD
HETATM    6  H   UNL     1     -41.208 -52.834  14.050  1.00  0.00     0.164 HD
ENDROOT
BRANCH   1   7
HETATM    7  C   UNL     1     -42.378 -51.722  12.357  1.00  0.00     0.169 A 
HETATM    8  N   UNL     1     -42.757 -52.813  11.732  1.00  0.00    -0.279 N 
HETATM    9  N   UNL     1     -44.071 -53.111  11.962  1.00  0.00    -0.296 N 
ATOM     10  HN  UNL     1     -42.142 -53.375  11.143  1.00  0.00     0.189 HD
HETATM   11  C   UNL     1     -44.649 -52.221  12.744  1.00  0.00     0.073 A 
ATOM     12  HN  UNL     1     -44.548 -53.925  11.576  1.00  0.00     0.187 HD
HETATM   13  S   UNL     1     -43.574 -50.999  13.325  1.00  0.00    -0.037 SA
BRANCH  11  14
HETATM   14  C   UNL     1     -46.107 -52.251  13.092  1.00  0.00     0.036 C 
HETATM   15  C   UNL     1     -46.361 -51.393  14.336  1.00  0.00     0.016 C 
HETATM   16  C   UNL     1     -46.936 -51.732  11.916  1.00  0.00     0.016 C 
ENDBRANCH  11  14
ENDBRANCH   1   7
BRANCH   4  17
HETATM   17  C   UNL     1     -39.235 -53.130  14.708  1.00  0.00     0.086 C 
HETATM   18  C   UNL     1     -38.955 -54.580  14.295  1.00  0.00     0.025 C 
HETATM   19  C   UNL     1     -38.813 -55.381  15.587  1.00  0.00     0.002 C 
HETATM   20  C   UNL     1     -38.851 -54.365  16.717  1.00  0.00     0.002 C 
HETATM   21  C   UNL     1     -39.679 -53.217  16.164  1.00  0.00     0.025 C 
ENDBRANCH   4  17
TORSDOF 3
ENDMDL
