MODEL 1
REMARK VINA RESULT:      -6.7      0.000      0.000
REMARK  6 active torsions:
REMARK  status: ('A' for Active; 'I' for Inactive)
REMARK    1  A    between atoms: O_1  and  C_2 
REMARK    2  A    between atoms: C_5  and  C_6 
REMARK    3  A    between atoms: C_6  and  N_7 
REMARK       I    between atoms: N_7  and  C_8 
REMARK    4  A    between atoms: C_8  and  C_10 
REMARK    5  A    between atoms: C_10  and  N_11 
REMARK    6  A    between atoms: C_13  and  C_18 
ROOT
HETATM    1  N   UNL     1     -42.457 -50.100  12.231  1.00  0.00    -0.359 N 
HETATM    2  C   UNL     1     -41.946 -49.013  11.570  1.00  0.00     0.235 C 
HETATM    3  O   UNL     1     -41.094 -49.190  10.702  1.00  0.00    -0.272 OA
HETATM    4  H   UNL     1     -42.030 -50.980  11.965  1.00  0.00     0.162 HD
ENDROOT
BRANCH   2   5
HETATM    5  C   UNL     1     -42.528 -47.639  11.937  1.00  0.00     0.234 C 
BRANCH   5   6
HETATM    6  N   UNL     1     -43.363 -47.098  10.879  1.00  0.00    -0.315 N 
HETATM    7  C   UNL     1     -44.495 -47.789  10.486  1.00  0.00     0.110 A 
HETATM    8  C   UNL     1     -45.243 -47.386   9.444  1.00  0.00     0.063 A 
HETATM    9  C   UNL     1     -44.842 -46.186   8.729  1.00  0.00     0.023 A 
HETATM   10  C   UNL     1     -43.742 -45.504   9.081  1.00  0.00     0.075 A 
HETATM   11  C   UNL     1     -42.909 -45.957  10.224  1.00  0.00     0.247 A 
HETATM   12  O   UNL     1     -41.907 -45.321  10.537  1.00  0.00    -0.268 OA
BRANCH   8  13
HETATM   13  C   UNL     1     -46.443 -48.167   9.000  1.00  0.00     0.418 C 
HETATM   14  F   UNL     1     -46.697 -49.247   9.781  1.00  0.00    -0.166 F 
HETATM   15  F   UNL     1     -47.567 -47.404   9.005  1.00  0.00    -0.166 F 
HETATM   16  F   UNL     1     -46.294 -48.627   7.731  1.00  0.00    -0.166 F 
ENDBRANCH   8  13
ENDBRANCH   5   6
ENDBRANCH   2   5
BRANCH   1  17
HETATM   17  C   UNL     1     -43.493 -50.094  13.242  1.00  0.00     0.127 C 
BRANCH  17  18
HETATM   18  C   UNL     1     -43.618 -51.437  13.973  1.00  0.00     0.006 C 
HETATM   19  C   UNL     1     -42.894 -52.614  13.298  1.00  0.00     0.009 C 
HETATM   20  C   UNL     1     -43.930 -53.348  12.446  1.00  0.00     0.032 C 
HETATM   21  C   UNL     1     -45.248 -52.613  12.657  1.00  0.00     0.118 C 
HETATM   22  C   UNL     1     -45.076 -51.899  13.993  1.00  0.00     0.038 C 
BRANCH  21  23
HETATM   23  O   UNL     1     -46.345 -53.502  12.704  1.00  0.00    -0.396 OA
HETATM   24  H   UNL     1     -47.156 -52.978  12.583  1.00  0.00     0.210 HD
ENDBRANCH  21  23
ENDBRANCH  17  18
ENDBRANCH   1  17
TORSDOF 6
ENDMDL
MODEL 2
REMARK VINA RESULT:      -6.5      1.622      2.355
REMARK  6 active torsions:
REMARK  status: ('A' for Active; 'I' for Inactive)
REMARK    1  A    between atoms: O_1  and  C_2 
REMARK    2  A    between atoms: C_5  and  C_6 
REMARK    3  A    between atoms: C_6  and  N_7 
REMARK       I    between atoms: N_7  and  C_8 
REMARK    4  A    between atoms: C_8  and  C_10 
REMARK    5  A    between atoms: C_10  and  N_11 
REMARK    6  A    between atoms: C_13  and  C_18 
ROOT
HETATM    1  N   UNL     1     -43.109 -51.110  12.854  1.00  0.00    -0.359 N 
HETATM    2  C   UNL     1     -42.130 -50.228  12.480  1.00  0.00     0.235 C 
HETATM    3  O   UNL     1     -41.242 -50.609  11.719  1.00  0.00    -0.272 OA
HETATM    4  H   UNL     1     -42.976 -52.047  12.493  1.00  0.00     0.162 HD
ENDROOT
BRANCH   2   5
HETATM    5  C   UNL     1     -42.249 -48.790  13.010  1.00  0.00     0.234 C 
BRANCH   5   6
HETATM    6  N   UNL     1     -42.375 -47.820  11.936  1.00  0.00    -0.315 N 
HETATM    7  C   UNL     1     -43.492 -47.851  11.119  1.00  0.00     0.110 A 
HETATM    8  C   UNL     1     -43.608 -47.045  10.050  1.00  0.00     0.063 A 
HETATM    9  C   UNL     1     -42.526 -46.117   9.764  1.00  0.00     0.023 A 
HETATM   10  C   UNL     1     -41.427 -46.074  10.532  1.00  0.00     0.075 A 
HETATM   11  C   UNL     1     -41.294 -46.974  11.706  1.00  0.00     0.247 A 
HETATM   12  O   UNL     1     -40.284 -46.922  12.402  1.00  0.00    -0.268 OA
BRANCH   8  13
HETATM   13  C   UNL     1     -44.802 -47.117   9.147  1.00  0.00     0.418 C 
HETATM   14  F   UNL     1     -45.243 -45.898   8.746  1.00  0.00    -0.166 F 
HETATM   15  F   UNL     1     -44.536 -47.829   8.021  1.00  0.00    -0.166 F 
HETATM   16  F   UNL     1     -45.848 -47.732   9.756  1.00  0.00    -0.166 F 
ENDBRANCH   8  13
ENDBRANCH   5   6
ENDBRANCH   2   5
BRANCH   1  17
HETATM   17  C   UNL     1     -44.252 -50.833  13.697  1.00  0.00     0.127 C 
BRANCH  17  18
HETATM   18  C   UNL     1     -45.564 -51.380  13.119  1.00  0.00     0.006 C 
HETATM   19  C   UNL     1     -46.694 -51.573  14.143  1.00  0.00     0.009 C 
HETATM   20  C   UNL     1     -46.654 -53.037  14.585  1.00  0.00     0.032 C 
HETATM   21  C   UNL     1     -45.526 -53.686  13.794  1.00  0.00     0.118 C 
HETATM   22  C   UNL     1     -45.355 -52.793  12.570  1.00  0.00     0.038 C 
BRANCH  21  23
HETATM   23  O   UNL     1     -45.845 -55.007  13.407  1.00  0.00    -0.396 OA
HETATM   24  H   UNL     1     -46.499 -54.955  12.687  1.00  0.00     0.210 HD
ENDBRANCH  21  23
ENDBRANCH  17  18
ENDBRANCH   1  17
TORSDOF 6
ENDMDL
MODEL 3
REMARK VINA RESULT:      -6.5      1.917      2.473
REMARK  6 active torsions:
REMARK  status: ('A' for Active; 'I' for Inactive)
REMARK    1  A    between atoms: O_1  and  C_2 
REMARK    2  A    between atoms: C_5  and  C_6 
REMARK    3  A    between atoms: C_6  and  N_7 
REMARK       I    between atoms: N_7  and  C_8 
REMARK    4  A    between atoms: C_8  and  C_10 
REMARK    5  A    between atoms: C_10  and  N_11 
REMARK    6  A    between atoms: C_13  and  C_18 
ROOT
HETATM    1  N   UNL     1     -43.181 -48.861  13.677  1.00  0.00    -0.359 N 
HETATM    2  C   UNL     1     -42.794 -47.712  13.038  1.00  0.00     0.235 C 
HETATM    3  O   UNL     1     -42.782 -46.655  13.666  1.00  0.00    -0.272 OA
HETATM    4  H   UNL     1     -43.481 -48.716  14.634  1.00  0.00     0.162 HD
ENDROOT
BRANCH   2   5
HETATM    5  C   UNL     1     -42.347 -47.847  11.573  1.00  0.00     0.234 C 
BRANCH   5   6
HETATM    6  N   UNL     1     -43.296 -47.243  10.655  1.00  0.00    -0.315 N 
HETATM    7  C   UNL     1     -44.450 -47.930  10.320  1.00  0.00     0.110 A 
HETATM    8  C   UNL     1     -45.308 -47.462   9.397  1.00  0.00     0.063 A 
HETATM    9  C   UNL     1     -45.003 -46.197   8.749  1.00  0.00     0.023 A 
HETATM   10  C   UNL     1     -43.886 -45.517   9.046  1.00  0.00     0.075 A 
HETATM   11  C   UNL     1     -42.932 -46.041  10.056  1.00  0.00     0.247 A 
HETATM   12  O   UNL     1     -41.915 -45.406  10.320  1.00  0.00    -0.268 OA
BRANCH   8  13
HETATM   13  C   UNL     1     -46.533 -48.234   9.011  1.00  0.00     0.418 C 
HETATM   14  F   UNL     1     -46.469 -48.745   7.755  1.00  0.00    -0.166 F 
HETATM   15  F   UNL     1     -46.752 -49.280   9.850  1.00  0.00    -0.166 F 
HETATM   16  F   UNL     1     -47.646 -47.459   9.062  1.00  0.00    -0.166 F 
ENDBRANCH   8  13
ENDBRANCH   5   6
ENDBRANCH   2   5
BRANCH   1  17
HETATM   17  C   UNL     1     -43.214 -50.196  13.120  1.00  0.00     0.127 C 
BRANCH  17  18
HETATM   18  C   UNL     1     -42.175 -51.130  13.756  1.00  0.00     0.006 C 
HETATM   19  C   UNL     1     -40.724 -50.626  13.694  1.00  0.00     0.009 C 
HETATM   20  C   UNL     1     -40.077 -51.269  12.466  1.00  0.00     0.032 C 
HETATM   21  C   UNL     1     -41.145 -52.162  11.846  1.00  0.00     0.118 C 
HETATM   22  C   UNL     1     -42.110 -52.453  12.990  1.00  0.00     0.038 C 
BRANCH  21  23
HETATM   23  O   UNL     1     -40.598 -53.362  11.337  1.00  0.00    -0.396 OA
HETATM   24  H   UNL     1     -39.635 -53.240  11.263  1.00  0.00     0.210 HD
ENDBRANCH  21  23
ENDBRANCH  17  18
ENDBRANCH   1  17
TORSDOF 6
ENDMDL
MODEL 4
REMARK VINA RESULT:      -6.3      4.949      7.024
REMARK  6 active torsions:
REMARK  status: ('A' for Active; 'I' for Inactive)
REMARK    1  A    between atoms: O_1  and  C_2 
REMARK    2  A    between atoms: C_5  and  C_6 
REMARK    3  A    between atoms: C_6  and  N_7 
REMARK       I    between atoms: N_7  and  C_8 
REMARK    4  A    between atoms: C_8  and  C_10 
REMARK    5  A    between atoms: C_10  and  N_11 
REMARK    6  A    between atoms: C_13  and  C_18 
ROOT
HETATM    1  N   UNL     1     -42.114 -54.305  15.190  1.00  0.00    -0.359 N 
HETATM    2  C   UNL     1     -43.333 -54.854  15.495  1.00  0.00     0.235 C 
HETATM    3  O   UNL     1     -43.526 -55.284  16.630  1.00  0.00    -0.272 OA
HETATM    4  H   UNL     1     -41.442 -54.353  15.947  1.00  0.00     0.162 HD
ENDROOT
BRANCH   2   5
HETATM    5  C   UNL     1     -44.399 -54.841  14.387  1.00  0.00     0.234 C 
BRANCH   5   6
HETATM    6  N   UNL     1     -45.123 -53.583  14.340  1.00  0.00    -0.315 N 
HETATM    7  C   UNL     1     -45.694 -53.083  15.497  1.00  0.00     0.110 A 
HETATM    8  C   UNL     1     -46.461 -51.979  15.487  1.00  0.00     0.063 A 
HETATM    9  C   UNL     1     -46.678 -51.301  14.219  1.00  0.00     0.023 A 
HETATM   10  C   UNL     1     -46.147 -51.771  13.081  1.00  0.00     0.075 A 
HETATM   11  C   UNL     1     -45.310 -52.998  13.091  1.00  0.00     0.247 A 
HETATM   12  O   UNL     1     -44.828 -53.415  12.042  1.00  0.00    -0.268 OA
BRANCH   8  13
HETATM   13  C   UNL     1     -47.110 -51.471  16.738  1.00  0.00     0.418 C 
HETATM   14  F   UNL     1     -46.487 -50.384  17.259  1.00  0.00    -0.166 F 
HETATM   15  F   UNL     1     -48.404 -51.118  16.524  1.00  0.00    -0.166 F 
HETATM   16  F   UNL     1     -47.124 -52.418  17.711  1.00  0.00    -0.166 F 
ENDBRANCH   8  13
ENDBRANCH   5   6
ENDBRANCH   2   5
BRANCH   1  17
HETATM   17  C   UNL     1     -41.721 -53.709  13.931  1.00  0.00     0.127 C 
BRANCH  17  18
HETATM   18  C   UNL     1     -41.187 -52.279  14.092  1.00  0.00     0.006 C 
HETATM   19  C   UNL     1     -42.261 -51.179  14.077  1.00  0.00     0.009 C 
HETATM   20  C   UNL     1     -42.337 -50.646  12.646  1.00  0.00     0.032 C 
HETATM   21  C   UNL     1     -41.288 -51.415  11.853  1.00  0.00     0.118 C 
HETATM   22  C   UNL     1     -40.299 -51.906  12.904  1.00  0.00     0.038 C 
BRANCH  21  23
HETATM   23  O   UNL     1     -40.640 -50.595  10.901  1.00  0.00    -0.396 OA
HETATM   24  H   UNL     1     -39.748 -50.956  10.757  1.00  0.00     0.210 HD
ENDBRANCH  21  23
ENDBRANCH  17  18
ENDBRANCH   1  17
TORSDOF 6
ENDMDL
MODEL 5
REMARK VINA RESULT:      -6.3      5.135      7.140
REMARK  6 active torsions:
REMARK  status: ('A' for Active; 'I' for Inactive)
REMARK    1  A    between atoms: O_1  and  C_2 
REMARK    2  A    between atoms: C_5  and  C_6 
REMARK    3  A    between atoms: C_6  and  N_7 
REMARK       I    between atoms: N_7  and  C_8 
REMARK    4  A    between atoms: C_8  and  C_10 
REMARK    5  A    between atoms: C_10  and  N_11 
REMARK    6  A    between atoms: C_13  and  C_18 
ROOT
HETATM    1  N   UNL     1     -43.284 -50.594  12.455  1.00  0.00    -0.359 N 
HETATM    2  C   UNL     1     -41.916 -50.638  12.533  1.00  0.00     0.235 C 
HETATM    3  O   UNL     1     -41.254 -50.454  11.513  1.00  0.00    -0.272 OA
HETATM    4  H   UNL     1     -43.637 -50.458  11.515  1.00  0.00     0.162 HD
ENDROOT
BRANCH   2   5
HETATM    5  C   UNL     1     -41.305 -50.866  13.925  1.00  0.00     0.234 C 
BRANCH   5   6
HETATM    6  N   UNL     1     -40.930 -52.252  14.137  1.00  0.00    -0.315 N 
HETATM    7  C   UNL     1     -41.824 -53.114  14.748  1.00  0.00     0.110 A 
HETATM    8  C   UNL     1     -41.488 -54.377  15.060  1.00  0.00     0.063 A 
HETATM    9  C   UNL     1     -40.148 -54.836  14.733  1.00  0.00     0.023 A 
HETATM   10  C   UNL     1     -39.257 -54.018  14.152  1.00  0.00     0.075 A 
HETATM   11  C   UNL     1     -39.625 -52.619  13.819  1.00  0.00     0.247 A 
HETATM   12  O   UNL     1     -38.801 -51.883  13.284  1.00  0.00    -0.268 OA
BRANCH   8  13
HETATM   13  C   UNL     1     -42.450 -55.288  15.760  1.00  0.00     0.418 C 
HETATM   14  F   UNL     1     -43.299 -55.922  14.913  1.00  0.00    -0.166 F 
HETATM   15  F   UNL     1     -41.804 -56.253  16.465  1.00  0.00    -0.166 F 
HETATM   16  F   UNL     1     -43.218 -54.609  16.650  1.00  0.00    -0.166 F 
ENDBRANCH   8  13
ENDBRANCH   5   6
ENDBRANCH   2   5
BRANCH   1  17
HETATM   17  C   UNL     1     -44.221 -50.737  13.548  1.00  0.00     0.127 C 
BRANCH  17  18
HETATM   18  C   UNL     1     -45.580 -51.288  13.097  1.00  0.00     0.006 C 
HETATM   19  C   UNL     1     -46.608 -51.485  14.225  1.00  0.00     0.009 C 
HETATM   20  C   UNL     1     -46.521 -52.948  14.661  1.00  0.00     0.032 C 
HETATM   21  C   UNL     1     -45.471 -53.593  13.765  1.00  0.00     0.118 C 
HETATM   22  C   UNL     1     -45.421 -52.700  12.531  1.00  0.00     0.038 C 
BRANCH  21  23
HETATM   23  O   UNL     1     -45.822 -54.916  13.411  1.00  0.00    -0.396 OA
HETATM   24  H   UNL     1     -46.563 -54.867  12.782  1.00  0.00     0.210 HD
ENDBRANCH  21  23
ENDBRANCH  17  18
ENDBRANCH   1  17
TORSDOF 6
ENDMDL
MODEL 6
REMARK VINA RESULT:      -6.3      2.470      3.628
REMARK  6 active torsions:
REMARK  status: ('A' for Active; 'I' for Inactive)
REMARK    1  A    between atoms: O_1  and  C_2 
REMARK    2  A    between atoms: C_5  and  C_6 
REMARK    3  A    between atoms: C_6  and  N_7 
REMARK       I    between atoms: N_7  and  C_8 
REMARK    4  A    between atoms: C_8  and  C_10 
REMARK    5  A    between atoms: C_10  and  N_11 
REMARK    6  A    between atoms: C_13  and  C_18 
ROOT
HETATM    1  N   UNL     1     -42.474 -48.933  13.497  1.00  0.00    -0.359 N 
HETATM    2  C   UNL     1     -42.684 -47.750  12.837  1.00  0.00     0.235 C 
HETATM    3  O   UNL     1     -43.147 -46.795  13.457  1.00  0.00    -0.272 OA
HETATM    4  H   UNL     1     -42.779 -48.923  14.463  1.00  0.00     0.162 HD
ENDROOT
BRANCH   2   5
HETATM    5  C   UNL     1     -42.269 -47.695  11.358  1.00  0.00     0.234 C 
BRANCH   5   6
HETATM    6  N   UNL     1     -43.302 -47.111  10.521  1.00  0.00    -0.315 N 
HETATM    7  C   UNL     1     -44.422 -47.858  10.201  1.00  0.00     0.110 A 
HETATM    8  C   UNL     1     -45.355 -47.402   9.348  1.00  0.00     0.063 A 
HETATM    9  C   UNL     1     -45.171 -46.085   8.762  1.00  0.00     0.023 A 
HETATM   10  C   UNL     1     -44.089 -45.344   9.045  1.00  0.00     0.075 A 
HETATM   11  C   UNL     1     -43.052 -45.854   9.978  1.00  0.00     0.247 A 
HETATM   12  O   UNL     1     -42.068 -45.164  10.230  1.00  0.00    -0.268 OA
BRANCH   8  13
HETATM   13  C   UNL     1     -46.542 -48.237   8.975  1.00  0.00     0.418 C 
HETATM   14  F   UNL     1     -46.459 -48.756   7.724  1.00  0.00    -0.166 F 
HETATM   15  F   UNL     1     -46.705 -49.284   9.825  1.00  0.00    -0.166 F 
HETATM   16  F   UNL     1     -47.692 -47.517   9.025  1.00  0.00    -0.166 F 
ENDBRANCH   8  13
ENDBRANCH   5   6
ENDBRANCH   2   5
BRANCH   1  17
HETATM   17  C   UNL     1     -41.897 -50.142  12.950  1.00  0.00     0.127 C 
BRANCH  17  18
HETATM   18  C   UNL     1     -40.462 -50.389  13.435  1.00  0.00     0.006 C 
HETATM   19  C   UNL     1     -39.681 -49.122  13.825  1.00  0.00     0.009 C 
HETATM   20  C   UNL     1     -38.856 -48.711  12.605  1.00  0.00     0.032 C 
HETATM   21  C   UNL     1     -39.138 -49.756  11.533  1.00  0.00     0.118 C 
HETATM   22  C   UNL     1     -39.613 -50.979  12.308  1.00  0.00     0.038 C 
BRANCH  21  23
HETATM   23  O   UNL     1     -37.984 -50.061  10.777  1.00  0.00    -0.396 OA
HETATM   24  H   UNL     1     -37.942 -51.028  10.676  1.00  0.00     0.210 HD
ENDBRANCH  21  23
ENDBRANCH  17  18
ENDBRANCH   1  17
TORSDOF 6
ENDMDL
MODEL 7
REMARK VINA RESULT:      -6.2      3.066      6.508
REMARK  6 active torsions:
REMARK  status: ('A' for Active; 'I' for Inactive)
REMARK    1  A    between atoms: O_1  and  C_2 
REMARK    2  A    between atoms: C_5  and  C_6 
REMARK    3  A    between atoms: C_6  and  N_7 
REMARK       I    between atoms: N_7  and  C_8 
REMARK    4  A    between atoms: C_8  and  C_10 
REMARK    5  A    between atoms: C_10  and  N_11 
REMARK    6  A    between atoms: C_13  and  C_18 
ROOT
HETATM    1  N   UNL     1     -41.839 -48.882  10.762  1.00  0.00    -0.359 N 
HETATM    2  C   UNL     1     -40.882 -49.609  11.420  1.00  0.00     0.235 C 
HETATM    3  O   UNL     1     -39.806 -49.822  10.865  1.00  0.00    -0.272 OA
HETATM    4  H   UNL     1     -41.576 -48.618   9.819  1.00  0.00     0.162 HD
ENDROOT
BRANCH   2   5
HETATM    5  C   UNL     1     -41.217 -50.067  12.849  1.00  0.00     0.234 C 
BRANCH   5   6
HETATM    6  N   UNL     1     -41.572 -51.474  12.903  1.00  0.00    -0.315 N 
HETATM    7  C   UNL     1     -42.906 -51.840  12.879  1.00  0.00     0.110 A 
HETATM    8  C   UNL     1     -43.291 -53.119  13.031  1.00  0.00     0.063 A 
HETATM    9  C   UNL     1     -42.264 -54.132  13.217  1.00  0.00     0.023 A 
HETATM   10  C   UNL     1     -40.964 -53.803  13.256  1.00  0.00     0.075 A 
HETATM   11  C   UNL     1     -40.542 -52.388  13.101  1.00  0.00     0.247 A 
HETATM   12  O   UNL     1     -39.348 -52.102  13.137  1.00  0.00    -0.268 OA
BRANCH   8  13
HETATM   13  C   UNL     1     -44.740 -53.499  13.046  1.00  0.00     0.418 C 
HETATM   14  F   UNL     1     -45.459 -52.904  12.061  1.00  0.00    -0.166 F 
HETATM   15  F   UNL     1     -44.909 -54.840  12.901  1.00  0.00    -0.166 F 
HETATM   16  F   UNL     1     -45.330 -53.161  14.221  1.00  0.00    -0.166 F 
ENDBRANCH   8  13
ENDBRANCH   5   6
ENDBRANCH   2   5
BRANCH   1  17
HETATM   17  C   UNL     1     -43.137 -48.493  11.269  1.00  0.00     0.127 C 
BRANCH  17  18
HETATM   18  C   UNL     1     -43.706 -47.256  10.561  1.00  0.00     0.006 C 
HETATM   19  C   UNL     1     -45.096 -47.450   9.931  1.00  0.00     0.009 C 
HETATM   20  C   UNL     1     -44.876 -47.795   8.457  1.00  0.00     0.032 C 
HETATM   21  C   UNL     1     -43.369 -47.767   8.237  1.00  0.00     0.118 C 
HETATM   22  C   UNL     1     -42.836 -46.883   9.359  1.00  0.00     0.038 C 
BRANCH  21  23
HETATM   23  O   UNL     1     -43.030 -47.230   6.975  1.00  0.00    -0.396 OA
HETATM   24  H   UNL     1     -42.693 -47.958   6.424  1.00  0.00     0.210 HD
ENDBRANCH  21  23
ENDBRANCH  17  18
ENDBRANCH   1  17
TORSDOF 6
ENDMDL
MODEL 8
REMARK VINA RESULT:      -6.0      5.065      6.922
REMARK  6 active torsions:
REMARK  status: ('A' for Active; 'I' for Inactive)
REMARK    1  A    between atoms: O_1  and  C_2 
REMARK    2  A    between atoms: C_5  and  C_6 
REMARK    3  A    between atoms: C_6  and  N_7 
REMARK       I    between atoms: N_7  and  C_8 
REMARK    4  A    between atoms: C_8  and  C_10 
REMARK    5  A    between atoms: C_10  and  N_11 
REMARK    6  A    between atoms: C_13  and  C_18 
ROOT
HETATM    1  N   UNL     1     -42.803 -54.758  16.653  1.00  0.00    -0.359 N 
HETATM    2  C   UNL     1     -43.797 -54.321  17.489  1.00  0.00     0.235 C 
HETATM    3  O   UNL     1     -44.420 -55.145  18.157  1.00  0.00    -0.272 OA
HETATM    4  H   UNL     1     -42.703 -55.766  16.627  1.00  0.00     0.162 HD
ENDROOT
BRANCH   2   5
HETATM    5  C   UNL     1     -44.026 -52.803  17.565  1.00  0.00     0.234 C 
BRANCH   5   6
HETATM    6  N   UNL     1     -45.180 -52.384  16.790  1.00  0.00    -0.315 N 
HETATM    7  C   UNL     1     -45.072 -52.272  15.415  1.00  0.00     0.110 A 
HETATM    8  C   UNL     1     -46.077 -51.790  14.664  1.00  0.00     0.063 A 
HETATM    9  C   UNL     1     -47.305 -51.389  15.329  1.00  0.00     0.023 A 
HETATM   10  C   UNL     1     -47.433 -51.476  16.661  1.00  0.00     0.075 A 
HETATM   11  C   UNL     1     -46.318 -51.996  17.492  1.00  0.00     0.247 A 
HETATM   12  O   UNL     1     -46.450 -52.073  18.710  1.00  0.00    -0.268 OA
BRANCH   8  13
HETATM   13  C   UNL     1     -45.932 -51.632  13.180  1.00  0.00     0.418 C 
HETATM   14  F   UNL     1     -45.613 -52.789  12.548  1.00  0.00    -0.166 F 
HETATM   15  F   UNL     1     -47.078 -51.176  12.611  1.00  0.00    -0.166 F 
HETATM   16  F   UNL     1     -44.963 -50.734  12.868  1.00  0.00    -0.166 F 
ENDBRANCH   8  13
ENDBRANCH   5   6
ENDBRANCH   2   5
BRANCH   1  17
HETATM   17  C   UNL     1     -41.938 -53.940  15.832  1.00  0.00     0.127 C 
BRANCH  17  18
HETATM   18  C   UNL     1     -41.621 -54.585  14.476  1.00  0.00     0.006 C 
HETATM   19  C   UNL     1     -40.280 -54.162  13.853  1.00  0.00     0.009 C 
HETATM   20  C   UNL     1     -40.578 -53.022  12.878  1.00  0.00     0.032 C 
HETATM   21  C   UNL     1     -42.087 -52.814  12.920  1.00  0.00     0.118 C 
HETATM   22  C   UNL     1     -42.641 -54.142  13.425  1.00  0.00     0.038 C 
BRANCH  21  23
HETATM   23  O   UNL     1     -42.612 -52.507  11.644  1.00  0.00    -0.396 OA
HETATM   24  H   UNL     1     -43.044 -51.637  11.703  1.00  0.00     0.210 HD
ENDBRANCH  21  23
ENDBRANCH  17  18
ENDBRANCH   1  17
TORSDOF 6
ENDMDL
MODEL 9
REMARK VINA RESULT:      -6.0      3.256      6.829
REMARK  6 active torsions:
REMARK  status: ('A' for Active; 'I' for Inactive)
REMARK    1  A    between atoms: O_1  and  C_2 
REMARK    2  A    between atoms: C_5  and  C_6 
REMARK    3  A    between atoms: C_6  and  N_7 
REMARK       I    between atoms: N_7  and  C_8 
REMARK    4  A    between atoms: C_8  and  C_10 
REMARK    5  A    between atoms: C_10  and  N_11 
REMARK    6  A    between atoms: C_13  and  C_18 
ROOT
HETATM    1  N   UNL     1     -41.049 -51.079  11.458  1.00  0.00    -0.359 N 
HETATM    2  C   UNL     1     -40.988 -52.179  12.274  1.00  0.00     0.235 C 
HETATM    3  O   UNL     1     -40.452 -53.203  11.855  1.00  0.00    -0.272 OA
HETATM    4  H   UNL     1     -40.676 -51.236  10.529  1.00  0.00     0.162 HD
ENDROOT
BRANCH   2   5
HETATM    5  C   UNL     1     -41.557 -52.026  13.693  1.00  0.00     0.234 C 
BRANCH   5   6
HETATM    6  N   UNL     1     -42.734 -52.851  13.902  1.00  0.00    -0.315 N 
HETATM    7  C   UNL     1     -43.989 -52.318  13.668  1.00  0.00     0.110 A 
HETATM    8  C   UNL     1     -45.111 -53.004  13.944  1.00  0.00     0.063 A 
HETATM    9  C   UNL     1     -44.984 -54.343  14.496  1.00  0.00     0.023 A 
HETATM   10  C   UNL     1     -43.780 -54.880  14.744  1.00  0.00     0.075 A 
HETATM   11  C   UNL     1     -42.541 -54.115  14.450  1.00  0.00     0.247 A 
HETATM   12  O   UNL     1     -41.446 -54.620  14.680  1.00  0.00    -0.268 OA
BRANCH   8  13
HETATM   13  C   UNL     1     -46.466 -52.401  13.727  1.00  0.00     0.418 C 
HETATM   14  F   UNL     1     -46.560 -51.124  14.174  1.00  0.00    -0.166 F 
HETATM   15  F   UNL     1     -46.801 -52.382  12.410  1.00  0.00    -0.166 F 
HETATM   16  F   UNL     1     -47.434 -53.111  14.362  1.00  0.00    -0.166 F 
ENDBRANCH   8  13
ENDBRANCH   5   6
ENDBRANCH   2   5
BRANCH   1  17
HETATM   17  C   UNL     1     -41.594 -49.781  11.791  1.00  0.00     0.127 C 
BRANCH  17  18
HETATM   18  C   UNL     1     -41.115 -48.674  10.842  1.00  0.00     0.006 C 
HETATM   19  C   UNL     1     -40.318 -47.543  11.513  1.00  0.00     0.009 C 
HETATM   20  C   UNL     1     -41.307 -46.414  11.811  1.00  0.00     0.032 C 
HETATM   21  C   UNL     1     -42.656 -46.885  11.284  1.00  0.00     0.118 C 
HETATM   22  C   UNL     1     -42.311 -47.937  10.236  1.00  0.00     0.038 C 
BRANCH  21  23
HETATM   23  O   UNL     1     -43.394 -45.828  10.706  1.00  0.00    -0.396 OA
HETATM   24  H   UNL     1     -43.191 -45.017  11.204  1.00  0.00     0.210 HD
ENDBRANCH  21  23
ENDBRANCH  17  18
ENDBRANCH   1  17
TORSDOF 6
ENDMDL
