MODEL 1
REMARK VINA RESULT:      -5.8      0.000      0.000
REMARK  1 active torsions:
REMARK  status: ('A' for Active; 'I' for Inactive)
REMARK    1  A    between atoms: C_6  and  N_7 
ROOT
HETATM    1  O   UNL     1     -46.809 -47.825   8.388  1.00  0.00    -0.245 OA
HETATM    2  C   UNL     1     -45.820 -47.404   8.980  1.00  0.00     0.341 A 
HETATM    3  N   UNL     1     -45.095 -48.185   9.832  1.00  0.00    -0.250 N 
HETATM    4  N   UNL     1     -43.984 -47.809  10.516  1.00  0.00    -0.277 N 
ATOM      5  HN  UNL     1     -43.529 -48.462  11.155  1.00  0.00     0.189 HD
HETATM    6  C   UNL     1     -43.498 -46.601  10.351  1.00  0.00     0.188 A 
HETATM    7  C   UNL     1     -44.223 -45.653   9.348  1.00  0.00     0.294 A 
HETATM    8  O   UNL     1     -43.785 -44.557   9.029  1.00  0.00    -0.264 OA
HETATM    9  N   UNL     1     -45.380 -46.135   8.811  1.00  0.00    -0.271 N 
HETATM   10  H   UNL     1     -45.422 -49.134   9.982  1.00  0.00     0.192 HD
HETATM   11  H   UNL     1     -45.865 -45.561   8.143  1.00  0.00     0.174 HD
ENDROOT
BRANCH   6  12
HETATM   12  N   UNL     1     -42.364 -46.218  11.071  1.00  0.00    -0.358 N 
HETATM   13  C   UNL     1     -42.302 -45.256  12.179  1.00  0.00     0.151 C 
HETATM   14  C   UNL     1     -41.350 -44.108  11.808  1.00  0.00     0.187 C 
HETATM   15  O   UNL     1     -40.039 -44.601  11.485  1.00  0.00    -0.388 OA
HETATM   16  C   UNL     1     -40.104 -45.525  10.387  1.00  0.00     0.187 C 
HETATM   17  C   UNL     1     -41.023 -46.713  10.707  1.00  0.00     0.151 C 
ENDBRANCH   6  12
TORSDOF 1
ENDMDL
MODEL 2
REMARK VINA RESULT:      -5.4      1.431      2.271
REMARK  1 active torsions:
REMARK  status: ('A' for Active; 'I' for Inactive)
REMARK    1  A    between atoms: C_6  and  N_7 
ROOT
HETATM    1  O   UNL     1     -46.847 -47.634   8.608  1.00  0.00    -0.245 OA
HETATM    2  C   UNL     1     -45.798 -47.181   9.056  1.00  0.00     0.341 A 
HETATM    3  N   UNL     1     -45.405 -45.895   8.826  1.00  0.00    -0.250 N 
HETATM    4  N   UNL     1     -44.272 -45.307   9.290  1.00  0.00    -0.277 N 
ATOM      5  HN  UNL     1     -44.053 -44.344   9.035  1.00  0.00     0.189 HD
HETATM    6  C   UNL     1     -43.462 -45.985  10.069  1.00  0.00     0.188 A 
HETATM    7  C   UNL     1     -43.858 -47.446  10.441  1.00  0.00     0.294 A 
HETATM    8  O   UNL     1     -43.241 -48.120  11.253  1.00  0.00    -0.264 OA
HETATM    9  N   UNL     1     -44.971 -47.932   9.820  1.00  0.00    -0.271 N 
HETATM   10  H   UNL     1     -46.007 -45.324   8.241  1.00  0.00     0.192 HD
HETATM   11  H   UNL     1     -45.271 -48.864  10.051  1.00  0.00     0.174 HD
ENDROOT
BRANCH   6  12
HETATM   12  N   UNL     1     -42.292 -45.377  10.529  1.00  0.00    -0.358 N 
HETATM   13  C   UNL     1     -40.911 -45.808  10.275  1.00  0.00     0.151 C 
HETATM   14  C   UNL     1     -40.212 -46.105  11.611  1.00  0.00     0.187 C 
HETATM   15  O   UNL     1     -40.238 -44.959  12.479  1.00  0.00    -0.388 OA
HETATM   16  C   UNL     1     -41.592 -44.557  12.741  1.00  0.00     0.187 C 
HETATM   17  C   UNL     1     -42.338 -44.219  11.443  1.00  0.00     0.151 C 
ENDBRANCH   6  12
TORSDOF 1
ENDMDL
MODEL 3
REMARK VINA RESULT:      -5.4      7.026      8.735
REMARK  1 active torsions:
REMARK  status: ('A' for Active; 'I' for Inactive)
REMARK    1  A    between atoms: C_6  and  N_7 
ROOT
HETATM    1  O   UNL     1     -39.375 -51.700  12.258  1.00  0.00    -0.245 OA
HETATM    2  C   UNL     1     -40.545 -52.005  12.465  1.00  0.00     0.341 A 
HETATM    3  N   UNL     1     -41.370 -52.443  11.470  1.00  0.00    -0.250 N 
HETATM    4  N   UNL     1     -42.668 -52.814  11.609  1.00  0.00    -0.277 N 
ATOM      5  HN  UNL     1     -43.211 -53.099  10.793  1.00  0.00     0.189 HD
HETATM    6  C   UNL     1     -43.222 -52.804  12.799  1.00  0.00     0.188 A 
HETATM    7  C   UNL     1     -42.340 -52.378  14.011  1.00  0.00     0.294 A 
HETATM    8  O   UNL     1     -42.718 -52.452  15.172  1.00  0.00    -0.264 OA
HETATM    9  N   UNL     1     -41.086 -51.939  13.704  1.00  0.00    -0.271 N 
HETATM   10  H   UNL     1     -40.983 -52.483  10.532  1.00  0.00     0.192 HD
HETATM   11  H   UNL     1     -40.480 -51.676  14.462  1.00  0.00     0.174 HD
ENDROOT
BRANCH   6  12
HETATM   12  N   UNL     1     -44.562 -53.173  12.929  1.00  0.00    -0.358 N 
HETATM   13  C   UNL     1     -45.740 -52.323  12.709  1.00  0.00     0.151 C 
HETATM   14  C   UNL     1     -46.569 -52.249  14.001  1.00  0.00     0.187 C 
HETATM   15  O   UNL     1     -46.960 -53.559  14.446  1.00  0.00    -0.388 OA
HETATM   16  C   UNL     1     -45.803 -54.378  14.681  1.00  0.00     0.187 C 
HETATM   17  C   UNL     1     -44.945 -54.513  13.415  1.00  0.00     0.151 C 
ENDBRANCH   6  12
TORSDOF 1
ENDMDL
MODEL 4
REMARK VINA RESULT:      -5.3      3.570      4.932
REMARK  1 active torsions:
REMARK  status: ('A' for Active; 'I' for Inactive)
REMARK    1  A    between atoms: C_6  and  N_7 
ROOT
HETATM    1  O   UNL     1     -39.827 -51.828  11.988  1.00  0.00    -0.245 OA
HETATM    2  C   UNL     1     -40.539 -50.850  11.783  1.00  0.00     0.341 A 
HETATM    3  N   UNL     1     -40.421 -50.088  10.658  1.00  0.00    -0.250 N 
HETATM    4  N   UNL     1     -41.171 -49.001  10.342  1.00  0.00    -0.277 N 
ATOM      5  HN  UNL     1     -40.983 -48.478   9.487  1.00  0.00     0.189 HD
HETATM    6  C   UNL     1     -42.141 -48.628  11.144  1.00  0.00     0.188 A 
HETATM    7  C   UNL     1     -42.396 -49.476  12.427  1.00  0.00     0.294 A 
HETATM    8  O   UNL     1     -43.346 -49.289  13.173  1.00  0.00    -0.264 OA
HETATM    9  N   UNL     1     -41.500 -50.477  12.660  1.00  0.00    -0.271 N 
HETATM   10  H   UNL     1     -39.694 -50.346   9.998  1.00  0.00     0.192 HD
HETATM   11  H   UNL     1     -41.644 -51.060  13.467  1.00  0.00     0.174 HD
ENDROOT
BRANCH   6  12
HETATM   12  N   UNL     1     -42.898 -47.500  10.819  1.00  0.00    -0.358 N 
HETATM   13  C   UNL     1     -43.905 -47.387   9.755  1.00  0.00     0.151 C 
HETATM   14  C   UNL     1     -43.490 -46.282   8.771  1.00  0.00     0.187 C 
HETATM   15  O   UNL     1     -43.313 -45.024   9.443  1.00  0.00    -0.388 OA
HETATM   16  C   UNL     1     -42.311 -45.136  10.467  1.00  0.00     0.187 C 
HETATM   17  C   UNL     1     -42.683 -46.209  11.500  1.00  0.00     0.151 C 
ENDBRANCH   6  12
TORSDOF 1
ENDMDL
MODEL 5
REMARK VINA RESULT:      -5.1      3.554      4.319
REMARK  1 active torsions:
REMARK  status: ('A' for Active; 'I' for Inactive)
REMARK    1  A    between atoms: C_6  and  N_7 
ROOT
HETATM    1  O   UNL     1     -44.248 -46.325   8.638  1.00  0.00    -0.245 OA
HETATM    2  C   UNL     1     -43.592 -46.990   9.434  1.00  0.00     0.341 A 
HETATM    3  N   UNL     1     -42.622 -47.859   9.030  1.00  0.00    -0.250 N 
HETATM    4  N   UNL     1     -41.841 -48.622   9.837  1.00  0.00    -0.277 N 
ATOM      5  HN  UNL     1     -41.161 -49.266   9.434  1.00  0.00     0.189 HD
HETATM    6  C   UNL     1     -41.966 -48.526  11.141  1.00  0.00     0.188 A 
HETATM    7  C   UNL     1     -43.008 -47.511  11.701  1.00  0.00     0.294 A 
HETATM    8  O   UNL     1     -43.117 -47.255  12.892  1.00  0.00    -0.264 OA
HETATM    9  N   UNL     1     -43.786 -46.889  10.770  1.00  0.00    -0.271 N 
HETATM   10  H   UNL     1     -42.476 -47.958   8.030  1.00  0.00     0.192 HD
HETATM   11  H   UNL     1     -44.455 -46.211  11.092  1.00  0.00     0.174 HD
ENDROOT
BRANCH   6  12
HETATM   12  N   UNL     1     -41.170 -49.326  11.962  1.00  0.00    -0.358 N 
HETATM   13  C   UNL     1     -39.762 -49.103  12.318  1.00  0.00     0.151 C 
HETATM   14  C   UNL     1     -38.920 -50.304  11.857  1.00  0.00     0.187 C 
HETATM   15  O   UNL     1     -39.404 -51.531  12.428  1.00  0.00    -0.388 OA
HETATM   16  C   UNL     1     -40.774 -51.753  12.059  1.00  0.00     0.187 C 
HETATM   17  C   UNL     1     -41.674 -50.596  12.517  1.00  0.00     0.151 C 
ENDBRANCH   6  12
TORSDOF 1
ENDMDL
MODEL 6
REMARK VINA RESULT:      -5.0      5.577      6.431
REMARK  1 active torsions:
REMARK  status: ('A' for Active; 'I' for Inactive)
REMARK    1  A    between atoms: C_6  and  N_7 
ROOT
HETATM    1  O   UNL     1     -44.667 -54.229  12.479  1.00  0.00    -0.245 OA
HETATM    2  C   UNL     1     -43.798 -53.362  12.452  1.00  0.00     0.341 A 
HETATM    3  N   UNL     1     -44.092 -52.034  12.564  1.00  0.00    -0.250 N 
HETATM    4  N   UNL     1     -43.199 -51.012  12.557  1.00  0.00    -0.277 N 
ATOM      5  HN  UNL     1     -43.524 -50.046  12.616  1.00  0.00     0.189 HD
HETATM    6  C   UNL     1     -41.915 -51.273  12.475  1.00  0.00     0.188 A 
HETATM    7  C   UNL     1     -41.476 -52.766  12.407  1.00  0.00     0.294 A 
HETATM    8  O   UNL     1     -40.307 -53.122  12.453  1.00  0.00    -0.264 OA
HETATM    9  N   UNL     1     -42.488 -53.676  12.323  1.00  0.00    -0.271 N 
HETATM   10  H   UNL     1     -45.072 -51.782  12.645  1.00  0.00     0.192 HD
HETATM   11  H   UNL     1     -42.245 -54.652  12.299  1.00  0.00     0.174 HD
ENDROOT
BRANCH   6  12
HETATM   12  N   UNL     1     -41.005 -50.213  12.455  1.00  0.00    -0.358 N 
HETATM   13  C   UNL     1     -40.249 -49.718  11.297  1.00  0.00     0.151 C 
HETATM   14  C   UNL     1     -38.743 -49.824  11.584  1.00  0.00     0.187 C 
HETATM   15  O   UNL     1     -38.386 -49.101  12.773  1.00  0.00    -0.388 OA
HETATM   16  C   UNL     1     -39.113 -49.605  13.906  1.00  0.00     0.187 C 
HETATM   17  C   UNL     1     -40.629 -49.501  13.691  1.00  0.00     0.151 C 
ENDBRANCH   6  12
TORSDOF 1
ENDMDL
MODEL 7
REMARK VINA RESULT:      -4.9      4.114      6.275
REMARK  1 active torsions:
REMARK  status: ('A' for Active; 'I' for Inactive)
REMARK    1  A    between atoms: C_6  and  N_7 
ROOT
HETATM    1  O   UNL     1     -36.926 -51.552  12.309  1.00  0.00    -0.245 OA
HETATM    2  C   UNL     1     -37.665 -50.574  12.247  1.00  0.00     0.341 A 
HETATM    3  N   UNL     1     -38.421 -50.301  11.145  1.00  0.00    -0.250 N 
HETATM    4  N   UNL     1     -39.272 -49.255  10.994  1.00  0.00    -0.277 N 
ATOM      5  HN  UNL     1     -39.771 -49.122  10.114  1.00  0.00     0.189 HD
HETATM    6  C   UNL     1     -39.451 -48.416  11.987  1.00  0.00     0.188 A 
HETATM    7  C   UNL     1     -38.677 -48.679  13.314  1.00  0.00     0.294 A 
HETATM    8  O   UNL     1     -38.864 -48.034  14.336  1.00  0.00    -0.264 OA
HETATM    9  N   UNL     1     -37.785 -49.710  13.283  1.00  0.00    -0.271 N 
HETATM   10  H   UNL     1     -38.329 -50.931  10.354  1.00  0.00     0.192 HD
HETATM   11  H   UNL     1     -37.282 -49.924  14.127  1.00  0.00     0.174 HD
ENDROOT
BRANCH   6  12
HETATM   12  N   UNL     1     -40.318 -47.334  11.817  1.00  0.00    -0.358 N 
HETATM   13  C   UNL     1     -41.769 -47.389  11.601  1.00  0.00     0.151 C 
HETATM   14  C   UNL     1     -42.114 -46.718  10.262  1.00  0.00     0.187 C 
HETATM   15  O   UNL     1     -41.643 -45.361  10.221  1.00  0.00    -0.388 OA
HETATM   16  C   UNL     1     -40.219 -45.316  10.411  1.00  0.00     0.187 C 
HETATM   17  C   UNL     1     -39.812 -45.949  11.749  1.00  0.00     0.151 C 
ENDBRANCH   6  12
TORSDOF 1
ENDMDL
MODEL 8
REMARK VINA RESULT:      -4.9      5.164      6.107
REMARK  1 active torsions:
REMARK  status: ('A' for Active; 'I' for Inactive)
REMARK    1  A    between atoms: C_6  and  N_7 
ROOT
HETATM    1  O   UNL     1     -42.956 -47.202   9.909  1.00  0.00    -0.245 OA
HETATM    2  C   UNL     1     -42.409 -48.150  10.465  1.00  0.00     0.341 A 
HETATM    3  N   UNL     1     -41.285 -48.738   9.963  1.00  0.00    -0.250 N 
HETATM    4  N   UNL     1     -40.608 -49.777  10.514  1.00  0.00    -0.277 N 
ATOM      5  HN  UNL     1     -39.791 -50.167  10.042  1.00  0.00     0.189 HD
HETATM    6  C   UNL     1     -41.010 -50.279  11.659  1.00  0.00     0.188 A 
HETATM    7  C   UNL     1     -42.251 -49.632  12.345  1.00  0.00     0.294 A 
HETATM    8  O   UNL     1     -42.632 -49.939  13.465  1.00  0.00    -0.264 OA
HETATM    9  N   UNL     1     -42.884 -48.662  11.624  1.00  0.00    -0.271 N 
HETATM   10  H   UNL     1     -40.926 -48.375   9.085  1.00  0.00     0.192 HD
HETATM   11  H   UNL     1     -43.677 -48.206  12.043  1.00  0.00     0.174 HD
ENDROOT
BRANCH   6  12
HETATM   12  N   UNL     1     -40.316 -51.357  12.211  1.00  0.00    -0.358 N 
HETATM   13  C   UNL     1     -40.772 -52.751  12.301  1.00  0.00     0.151 C 
HETATM   14  C   UNL     1     -40.813 -53.183  13.775  1.00  0.00     0.187 C 
HETATM   15  O   UNL     1     -39.529 -53.025  14.402  1.00  0.00    -0.388 OA
HETATM   16  C   UNL     1     -39.099 -51.655  14.330  1.00  0.00     0.187 C 
HETATM   17  C   UNL     1     -39.011 -51.171  12.875  1.00  0.00     0.151 C 
ENDBRANCH   6  12
TORSDOF 1
ENDMDL
MODEL 9
REMARK VINA RESULT:      -4.7      3.248      4.697
REMARK  1 active torsions:
REMARK  status: ('A' for Active; 'I' for Inactive)
REMARK    1  A    between atoms: C_6  and  N_7 
ROOT
HETATM    1  O   UNL     1     -39.970 -51.242  11.956  1.00  0.00    -0.245 OA
HETATM    2  C   UNL     1     -40.152 -50.063  11.666  1.00  0.00     0.341 A 
HETATM    3  N   UNL     1     -40.861 -49.686  10.563  1.00  0.00    -0.250 N 
HETATM    4  N   UNL     1     -41.123 -48.412  10.175  1.00  0.00    -0.277 N 
ATOM      5  HN  UNL     1     -41.639 -48.234   9.313  1.00  0.00     0.189 HD
HETATM    6  C   UNL     1     -40.708 -47.410  10.915  1.00  0.00     0.188 A 
HETATM    7  C   UNL     1     -39.942 -47.741  12.231  1.00  0.00     0.294 A 
HETATM    8  O   UNL     1     -39.622 -46.892  13.050  1.00  0.00    -0.264 OA
HETATM    9  N   UNL     1     -39.668 -49.061  12.438  1.00  0.00    -0.271 N 
HETATM   10  H   UNL     1     -41.216 -50.426   9.966  1.00  0.00     0.192 HD
HETATM   11  H   UNL     1     -39.194 -49.317  13.287  1.00  0.00     0.174 HD
ENDROOT
BRANCH   6  12
HETATM   12  N   UNL     1     -40.969 -46.103  10.499  1.00  0.00    -0.358 N 
HETATM   13  C   UNL     1     -39.984 -45.073  10.145  1.00  0.00     0.151 C 
HETATM   14  C   UNL     1     -40.158 -43.856  11.067  1.00  0.00     0.187 C 
HETATM   15  O   UNL     1     -41.495 -43.332  10.992  1.00  0.00    -0.388 OA
HETATM   16  C   UNL     1     -42.452 -44.338  11.361  1.00  0.00     0.187 C 
HETATM   17  C   UNL     1     -42.346 -45.572  10.455  1.00  0.00     0.151 C 
ENDBRANCH   6  12
TORSDOF 1
ENDMDL
