MODEL 1
REMARK VINA RESULT:      -5.9      0.000      0.000
REMARK  3 active torsions:
REMARK  status: ('A' for Active; 'I' for Inactive)
REMARK    1  A    between atoms: C_5  and  N_8 
REMARK    2  A    between atoms: C_11  and  N_14 
REMARK       I    between atoms: N_14  and  C_15 
REMARK       I    between atoms: C_15  and  N_17 
REMARK    3  A    between atoms: N_17  and  C_18 
ROOT
HETATM    1  N   UNL     1     -40.614 -52.056  13.798  1.00  0.00    -0.338 N 
HETATM    2  C   UNL     1     -41.231 -51.456  12.722  1.00  0.00     0.321 C 
HETATM    3  O   UNL     1     -41.681 -52.079  11.769  1.00  0.00    -0.247 OA
HETATM    4  N   UNL     1     -41.196 -50.088  12.844  1.00  0.00    -0.308 N 
HETATM    5  H   UNL     1     -40.806 -51.604  14.684  1.00  0.00     0.164 HD
HETATM    6  H   UNL     1     -40.384 -49.745  13.337  1.00  0.00     0.170 HD
ENDROOT
BRANCH   1   7
HETATM    7  C   UNL     1     -40.391 -53.498  13.812  1.00  0.00     0.089 C 
HETATM    8  C   UNL     1     -41.519 -54.249  14.528  1.00  0.00     0.055 C 
HETATM    9  C   UNL     1     -41.401 -54.123  16.048  1.00  0.00     0.275 C 
HETATM   10  N   UNL     1     -40.092 -54.553  16.573  1.00  0.00     0.093 N 
HETATM   11  C   UNL     1     -39.047 -53.725  15.949  1.00  0.00     0.275 C 
HETATM   12  C   UNL     1     -39.025 -53.819  14.421  1.00  0.00     0.055 C 
BRANCH  10  13
HETATM   13  C   UNL     1     -39.851 -56.021  16.474  1.00  0.00     0.226 C 
HETATM   14  C   UNL     1     -40.965 -56.863  17.141  1.00  0.00     0.066 C 
HETATM   15  C   UNL     1     -40.959 -56.721  18.665  1.00  0.00     0.274 C 
HETATM   16  N   UNL     1     -39.671 -57.068  19.288  1.00  0.00     0.084 N 
HETATM   17  C   UNL     1     -39.429 -58.509  19.297  1.00  0.00     0.309 C 
HETATM   18  C   UNL     1     -38.571 -56.323  18.655  1.00  0.00     0.274 C 
HETATM   19  C   UNL     1     -38.527 -56.475  17.132  1.00  0.00     0.066 C 
ENDBRANCH  10  13
ENDBRANCH   1   7
BRANCH   4  20
HETATM   20  C   UNL     1     -41.776 -49.230  11.891  1.00  0.00     0.051 A 
HETATM   21  C   UNL     1     -43.018 -48.666  12.164  1.00  0.00     0.033 A 
HETATM   22  C   UNL     1     -43.615 -47.837  11.218  1.00  0.00     0.027 A 
HETATM   23  C   UNL     1     -42.977 -47.634   9.998  1.00  0.00     0.005 A 
HETATM   24  C   UNL     1     -43.644 -46.857   8.906  1.00  0.00     0.068 C 
HETATM   25  N   UNL     1     -41.768 -48.174   9.711  1.00  0.00    -0.367 N 
HETATM   26  C   UNL     1     -41.185 -48.937  10.667  1.00  0.00     0.117 A 
ATOM     27  HN  UNL     1     -41.316 -48.013   8.811  1.00  0.00     0.165 HD
ENDBRANCH   4  20
TORSDOF 3
ENDMDL
MODEL 2
REMARK VINA RESULT:      -5.7      4.733      7.210
REMARK  3 active torsions:
REMARK  status: ('A' for Active; 'I' for Inactive)
REMARK    1  A    between atoms: C_5  and  N_8 
REMARK    2  A    between atoms: C_11  and  N_14 
REMARK       I    between atoms: N_14  and  C_15 
REMARK       I    between atoms: C_15  and  N_17 
REMARK    3  A    between atoms: N_17  and  C_18 
ROOT
HETATM    1  N   UNL     1     -41.521 -45.948  11.546  1.00  0.00    -0.338 N 
HETATM    2  C   UNL     1     -41.055 -44.703  11.178  1.00  0.00     0.321 C 
HETATM    3  O   UNL     1     -40.189 -44.531  10.330  1.00  0.00    -0.247 OA
HETATM    4  N   UNL     1     -41.639 -43.722  11.942  1.00  0.00    -0.308 N 
HETATM    5  H   UNL     1     -42.511 -45.967  11.757  1.00  0.00     0.164 HD
HETATM    6  H   UNL     1     -41.874 -44.021  12.877  1.00  0.00     0.170 HD
ENDROOT
BRANCH   1   7
HETATM    7  C   UNL     1     -40.927 -47.154  10.981  1.00  0.00     0.089 C 
HETATM    8  C   UNL     1     -41.972 -48.246  10.724  1.00  0.00     0.055 C 
HETATM    9  C   UNL     1     -42.385 -48.944  12.020  1.00  0.00     0.275 C 
HETATM   10  N   UNL     1     -41.248 -49.500  12.776  1.00  0.00     0.093 N 
HETATM   11  C   UNL     1     -40.328 -48.398  13.107  1.00  0.00     0.275 C 
HETATM   12  C   UNL     1     -39.794 -47.659  11.878  1.00  0.00     0.055 C 
BRANCH  10  13
HETATM   13  C   UNL     1     -40.594 -50.667  12.119  1.00  0.00     0.226 C 
HETATM   14  C   UNL     1     -41.558 -51.860  11.907  1.00  0.00     0.066 C 
HETATM   15  C   UNL     1     -41.954 -52.520  13.230  1.00  0.00     0.274 C 
HETATM   16  N   UNL     1     -40.808 -52.979  14.031  1.00  0.00     0.084 N 
HETATM   17  C   UNL     1     -40.186 -54.178  13.475  1.00  0.00     0.309 C 
HETATM   18  C   UNL     1     -39.839 -51.888  14.222  1.00  0.00     0.274 C 
HETATM   19  C   UNL     1     -39.393 -51.230  12.914  1.00  0.00     0.066 C 
ENDBRANCH  10  13
ENDBRANCH   1   7
BRANCH   4  20
HETATM   20  C   UNL     1     -41.358 -42.355  11.758  1.00  0.00     0.051 A 
HETATM   21  C   UNL     1     -40.403 -41.751  12.570  1.00  0.00     0.033 A 
HETATM   22  C   UNL     1     -40.135 -40.394  12.417  1.00  0.00     0.027 A 
HETATM   23  C   UNL     1     -40.867 -39.661  11.487  1.00  0.00     0.005 A 
HETATM   24  C   UNL     1     -40.701 -38.177  11.382  1.00  0.00     0.068 C 
HETATM   25  N   UNL     1     -41.801 -40.227  10.687  1.00  0.00    -0.367 N 
HETATM   26  C   UNL     1     -42.009 -41.560  10.821  1.00  0.00     0.117 A 
ATOM     27  HN  UNL     1     -42.328 -39.674  10.011  1.00  0.00     0.165 HD
ENDBRANCH   4  20
TORSDOF 3
ENDMDL
MODEL 3
REMARK VINA RESULT:      -5.6      1.951      9.626
REMARK  3 active torsions:
REMARK  status: ('A' for Active; 'I' for Inactive)
REMARK    1  A    between atoms: C_5  and  N_8 
REMARK    2  A    between atoms: C_11  and  N_14 
REMARK       I    between atoms: N_14  and  C_15 
REMARK       I    between atoms: C_15  and  N_17 
REMARK    3  A    between atoms: N_17  and  C_18 
ROOT
HETATM    1  N   UNL     1     -39.015 -51.852  14.412  1.00  0.00    -0.338 N 
HETATM    2  C   UNL     1     -39.020 -53.218  14.598  1.00  0.00     0.321 C 
HETATM    3  O   UNL     1     -38.957 -54.023  13.678  1.00  0.00    -0.247 OA
HETATM    4  N   UNL     1     -39.182 -53.526  15.927  1.00  0.00    -0.308 N 
HETATM    5  H   UNL     1     -38.515 -51.344  15.133  1.00  0.00     0.164 HD
HETATM    6  H   UNL     1     -39.732 -52.850  16.436  1.00  0.00     0.170 HD
ENDROOT
BRANCH   1   7
HETATM    7  C   UNL     1     -39.012 -51.290  13.066  1.00  0.00     0.089 C 
HETATM    8  C   UNL     1     -38.359 -49.904  13.020  1.00  0.00     0.055 C 
HETATM    9  C   UNL     1     -39.291 -48.824  13.570  1.00  0.00     0.275 C 
HETATM   10  N   UNL     1     -40.605 -48.787  12.901  1.00  0.00     0.093 N 
HETATM   11  C   UNL     1     -41.250 -50.100  13.074  1.00  0.00     0.275 C 
HETATM   12  C   UNL     1     -40.434 -51.261  12.501  1.00  0.00     0.055 C 
BRANCH  10  13
HETATM   13  C   UNL     1     -40.555 -48.309  11.491  1.00  0.00     0.226 C 
HETATM   14  C   UNL     1     -40.231 -46.800  11.374  1.00  0.00     0.066 C 
HETATM   15  C   UNL     1     -41.378 -45.925  11.883  1.00  0.00     0.274 C 
HETATM   16  N   UNL     1     -42.663 -46.182  11.213  1.00  0.00     0.084 N 
HETATM   17  C   UNL     1     -42.696 -45.651   9.852  1.00  0.00     0.309 C 
HETATM   18  C   UNL     1     -42.994 -47.615  11.258  1.00  0.00     0.274 C 
HETATM   19  C   UNL     1     -41.880 -48.517  10.721  1.00  0.00     0.066 C 
ENDBRANCH  10  13
ENDBRANCH   1   7
BRANCH   4  20
HETATM   20  C   UNL     1     -39.201 -54.852  16.397  1.00  0.00     0.051 A 
HETATM   21  C   UNL     1     -40.424 -55.503  16.522  1.00  0.00     0.033 A 
HETATM   22  C   UNL     1     -40.459 -56.806  17.012  1.00  0.00     0.027 A 
HETATM   23  C   UNL     1     -39.269 -57.409  17.413  1.00  0.00     0.005 A 
HETATM   24  C   UNL     1     -39.278 -58.757  18.064  1.00  0.00     0.068 C 
HETATM   25  N   UNL     1     -38.068 -56.794  17.301  1.00  0.00    -0.367 N 
HETATM   26  C   UNL     1     -38.055 -55.545  16.775  1.00  0.00     0.117 A 
ATOM     27  HN  UNL     1     -37.208 -57.253  17.600  1.00  0.00     0.165 HD
ENDBRANCH   4  20
TORSDOF 3
ENDMDL
MODEL 4
REMARK VINA RESULT:      -5.5     16.994     19.086
REMARK  3 active torsions:
REMARK  status: ('A' for Active; 'I' for Inactive)
REMARK    1  A    between atoms: C_5  and  N_8 
REMARK    2  A    between atoms: C_11  and  N_14 
REMARK       I    between atoms: N_14  and  C_15 
REMARK       I    between atoms: C_15  and  N_17 
REMARK    3  A    between atoms: N_17  and  C_18 
ROOT
HETATM    1  N   UNL     1     -50.522 -49.759  -0.186  1.00  0.00    -0.338 N 
HETATM    2  C   UNL     1     -50.193 -51.090  -0.329  1.00  0.00     0.321 C 
HETATM    3  O   UNL     1     -49.911 -51.819   0.614  1.00  0.00    -0.247 OA
HETATM    4  N   UNL     1     -50.155 -51.441  -1.656  1.00  0.00    -0.308 N 
HETATM    5  H   UNL     1     -51.236 -49.443  -0.832  1.00  0.00     0.164 HD
HETATM    6  H   UNL     1     -49.879 -50.687  -2.268  1.00  0.00     0.170 HD
ENDROOT
BRANCH   1   7
HETATM    7  C   UNL     1     -50.470 -49.122   1.125  1.00  0.00     0.089 C 
HETATM    8  C   UNL     1     -51.709 -48.261   1.398  1.00  0.00     0.055 C 
HETATM    9  C   UNL     1     -51.646 -46.931   0.646  1.00  0.00     0.275 C 
HETATM   10  N   UNL     1     -50.421 -46.158   0.922  1.00  0.00     0.093 N 
HETATM   11  C   UNL     1     -49.259 -46.975   0.533  1.00  0.00     0.275 C 
HETATM   12  C   UNL     1     -49.179 -48.313   1.271  1.00  0.00     0.055 C 
BRANCH  10  13
HETATM   13  C   UNL     1     -50.348 -45.610   2.306  1.00  0.00     0.226 C 
HETATM   14  C   UNL     1     -51.519 -44.654   2.641  1.00  0.00     0.066 C 
HETATM   15  C   UNL     1     -51.431 -43.342   1.858  1.00  0.00     0.274 C 
HETATM   16  N   UNL     1     -50.165 -42.618   2.053  1.00  0.00     0.084 N 
HETATM   17  C   UNL     1     -50.083 -41.985   3.367  1.00  0.00     0.309 C 
HETATM   18  C   UNL     1     -49.017 -43.501   1.789  1.00  0.00     0.274 C 
HETATM   19  C   UNL     1     -49.056 -44.808   2.586  1.00  0.00     0.066 C 
ENDBRANCH  10  13
ENDBRANCH   1   7
BRANCH   4  20
HETATM   20  C   UNL     1     -49.865 -52.750  -2.083  1.00  0.00     0.051 A 
HETATM   21  C   UNL     1     -50.907 -53.666  -2.193  1.00  0.00     0.033 A 
HETATM   22  C   UNL     1     -50.630 -54.972  -2.588  1.00  0.00     0.027 A 
HETATM   23  C   UNL     1     -49.307 -55.344  -2.814  1.00  0.00     0.005 A 
HETATM   24  C   UNL     1     -48.954 -56.768  -3.112  1.00  0.00     0.068 C 
HETATM   25  N   UNL     1     -48.278 -54.470  -2.711  1.00  0.00    -0.367 N 
HETATM   26  C   UNL     1     -48.579 -53.192  -2.374  1.00  0.00     0.117 A 
ATOM     27  HN  UNL     1     -47.316 -54.761  -2.881  1.00  0.00     0.165 HD
ENDBRANCH   4  20
TORSDOF 3
ENDMDL
MODEL 5
REMARK VINA RESULT:      -5.5      3.675      4.982
REMARK  3 active torsions:
REMARK  status: ('A' for Active; 'I' for Inactive)
REMARK    1  A    between atoms: C_5  and  N_8 
REMARK    2  A    between atoms: C_11  and  N_14 
REMARK       I    between atoms: N_14  and  C_15 
REMARK       I    between atoms: C_15  and  N_17 
REMARK    3  A    between atoms: N_17  and  C_18 
ROOT
HETATM    1  N   UNL     1     -41.435 -55.469  16.227  1.00  0.00    -0.338 N 
HETATM    2  C   UNL     1     -42.296 -54.492  15.774  1.00  0.00     0.321 C 
HETATM    3  O   UNL     1     -42.435 -53.408  16.325  1.00  0.00    -0.247 OA
HETATM    4  N   UNL     1     -43.009 -54.940  14.688  1.00  0.00    -0.308 N 
HETATM    5  H   UNL     1     -40.986 -55.994  15.486  1.00  0.00     0.164 HD
HETATM    6  H   UNL     1     -43.183 -55.934  14.699  1.00  0.00     0.170 HD
ENDROOT
BRANCH   1   7
HETATM    7  C   UNL     1     -40.688 -55.278  17.465  1.00  0.00     0.089 C 
HETATM    8  C   UNL     1     -39.298 -54.681  17.215  1.00  0.00     0.055 C 
HETATM    9  C   UNL     1     -38.324 -55.732  16.680  1.00  0.00     0.275 C 
HETATM   10  N   UNL     1     -38.216 -56.925  17.540  1.00  0.00     0.093 N 
HETATM   11  C   UNL     1     -39.551 -57.535  17.656  1.00  0.00     0.275 C 
HETATM   12  C   UNL     1     -40.605 -56.593  18.243  1.00  0.00     0.055 C 
BRANCH  10  13
HETATM   13  C   UNL     1     -37.542 -56.672  18.846  1.00  0.00     0.226 C 
HETATM   14  C   UNL     1     -36.131 -56.055  18.689  1.00  0.00     0.066 C 
HETATM   15  C   UNL     1     -35.133 -57.049  18.091  1.00  0.00     0.274 C 
HETATM   16  N   UNL     1     -35.015 -58.303  18.854  1.00  0.00     0.084 N 
HETATM   17  C   UNL     1     -34.281 -58.126  20.105  1.00  0.00     0.309 C 
HETATM   18  C   UNL     1     -36.340 -58.906  19.068  1.00  0.00     0.274 C 
HETATM   19  C   UNL     1     -37.353 -57.948  19.700  1.00  0.00     0.066 C 
ENDBRANCH  10  13
ENDBRANCH   1   7
BRANCH   4  20
HETATM   20  C   UNL     1     -43.944 -54.133  14.015  1.00  0.00     0.051 A 
HETATM   21  C   UNL     1     -45.252 -54.085  14.486  1.00  0.00     0.033 A 
HETATM   22  C   UNL     1     -46.194 -53.312  13.813  1.00  0.00     0.027 A 
HETATM   23  C   UNL     1     -45.815 -52.643  12.652  1.00  0.00     0.005 A 
HETATM   24  C   UNL     1     -46.826 -51.908  11.829  1.00  0.00     0.068 C 
HETATM   25  N   UNL     1     -44.548 -52.676  12.175  1.00  0.00    -0.367 N 
HETATM   26  C   UNL     1     -43.637 -53.396  12.876  1.00  0.00     0.117 A 
ATOM     27  HN  UNL     1     -44.289 -52.179  11.323  1.00  0.00     0.165 HD
ENDBRANCH   4  20
TORSDOF 3
ENDMDL
MODEL 6
REMARK VINA RESULT:      -5.4      1.765      2.001
REMARK  3 active torsions:
REMARK  status: ('A' for Active; 'I' for Inactive)
REMARK    1  A    between atoms: C_5  and  N_8 
REMARK    2  A    between atoms: C_11  and  N_14 
REMARK       I    between atoms: N_14  and  C_15 
REMARK       I    between atoms: C_15  and  N_17 
REMARK    3  A    between atoms: N_17  and  C_18 
ROOT
HETATM    1  N   UNL     1     -42.260 -51.818  12.955  1.00  0.00    -0.338 N 
HETATM    2  C   UNL     1     -41.465 -50.884  12.325  1.00  0.00     0.321 C 
HETATM    3  O   UNL     1     -40.396 -51.157  11.795  1.00  0.00    -0.247 OA
HETATM    4  N   UNL     1     -42.005 -49.627  12.447  1.00  0.00    -0.308 N 
HETATM    5  H   UNL     1     -43.253 -51.659  12.831  1.00  0.00     0.164 HD
HETATM    6  H   UNL     1     -42.528 -49.491  13.300  1.00  0.00     0.170 HD
ENDROOT
BRANCH   1   7
HETATM    7  C   UNL     1     -41.809 -53.199  13.091  1.00  0.00     0.089 C 
HETATM    8  C   UNL     1     -42.853 -54.081  13.786  1.00  0.00     0.055 C 
HETATM    9  C   UNL     1     -42.876 -53.840  15.296  1.00  0.00     0.275 C 
HETATM   10  N   UNL     1     -41.559 -54.013  15.938  1.00  0.00     0.093 N 
HETATM   11  C   UNL     1     -40.617 -53.062  15.324  1.00  0.00     0.275 C 
HETATM   12  C   UNL     1     -40.461 -53.248  13.813  1.00  0.00     0.055 C 
BRANCH  10  13
HETATM   13  C   UNL     1     -41.078 -55.423  15.966  1.00  0.00     0.226 C 
HETATM   14  C   UNL     1     -42.024 -56.371  16.741  1.00  0.00     0.066 C 
HETATM   15  C   UNL     1     -42.020 -56.085  18.244  1.00  0.00     0.274 C 
HETATM   16  N   UNL     1     -40.683 -56.154  18.856  1.00  0.00     0.084 N 
HETATM   17  C   UNL     1     -40.202 -57.527  18.989  1.00  0.00     0.309 C 
HETATM   18  C   UNL     1     -39.733 -55.301  18.125  1.00  0.00     0.274 C 
HETATM   19  C   UNL     1     -39.687 -55.587  16.622  1.00  0.00     0.066 C 
ENDBRANCH  10  13
ENDBRANCH   1   7
BRANCH   4  20
HETATM   20  C   UNL     1     -41.405 -48.489  11.875  1.00  0.00     0.051 A 
HETATM   21  C   UNL     1     -40.476 -47.773  12.622  1.00  0.00     0.033 A 
HETATM   22  C   UNL     1     -39.895 -46.630  12.079  1.00  0.00     0.027 A 
HETATM   23  C   UNL     1     -40.298 -46.203  10.816  1.00  0.00     0.005 A 
HETATM   24  C   UNL     1     -39.796 -44.912  10.250  1.00  0.00     0.068 C 
HETATM   25  N   UNL     1     -41.201 -46.884  10.071  1.00  0.00    -0.367 N 
HETATM   26  C   UNL     1     -41.715 -48.021  10.603  1.00  0.00     0.117 A 
ATOM     27  HN  UNL     1     -41.483 -46.556   9.148  1.00  0.00     0.165 HD
ENDBRANCH   4  20
TORSDOF 3
ENDMDL
MODEL 7
REMARK VINA RESULT:      -5.3      3.527      9.700
REMARK  3 active torsions:
REMARK  status: ('A' for Active; 'I' for Inactive)
REMARK    1  A    between atoms: C_5  and  N_8 
REMARK    2  A    between atoms: C_11  and  N_14 
REMARK       I    between atoms: N_14  and  C_15 
REMARK       I    between atoms: C_15  and  N_17 
REMARK    3  A    between atoms: N_17  and  C_18 
ROOT
HETATM    1  N   UNL     1     -40.223 -54.698  16.609  1.00  0.00    -0.338 N 
HETATM    2  C   UNL     1     -39.289 -55.711  16.678  1.00  0.00     0.321 C 
HETATM    3  O   UNL     1     -38.609 -56.066  15.724  1.00  0.00    -0.247 OA
HETATM    4  N   UNL     1     -39.296 -56.294  17.922  1.00  0.00    -0.308 N 
HETATM    5  H   UNL     1     -40.279 -54.137  17.451  1.00  0.00     0.164 HD
HETATM    6  H   UNL     1     -40.200 -56.281  18.371  1.00  0.00     0.170 HD
ENDROOT
BRANCH   1   7
HETATM    7  C   UNL     1     -40.505 -54.039  15.339  1.00  0.00     0.089 C 
HETATM    8  C   UNL     1     -40.935 -52.580  15.529  1.00  0.00     0.055 C 
HETATM    9  C   UNL     1     -42.382 -52.479  16.009  1.00  0.00     0.275 C 
HETATM   10  N   UNL     1     -43.342 -53.180  15.136  1.00  0.00     0.093 N 
HETATM   11  C   UNL     1     -42.962 -54.602  15.078  1.00  0.00     0.275 C 
HETATM   12  C   UNL     1     -41.546 -54.835  14.548  1.00  0.00     0.055 C 
BRANCH  10  13
HETATM   13  C   UNL     1     -43.528 -52.541  13.802  1.00  0.00     0.226 C 
HETATM   14  C   UNL     1     -44.250 -51.174  13.881  1.00  0.00     0.066 C 
HETATM   15  C   UNL     1     -45.719 -51.324  14.284  1.00  0.00     0.274 C 
HETATM   16  N   UNL     1     -46.489 -52.211  13.397  1.00  0.00     0.084 N 
HETATM   17  C   UNL     1     -46.776 -51.593  12.105  1.00  0.00     0.309 C 
HETATM   18  C   UNL     1     -45.817 -53.512  13.254  1.00  0.00     0.274 C 
HETATM   19  C   UNL     1     -44.354 -53.399  12.816  1.00  0.00     0.066 C 
ENDBRANCH  10  13
ENDBRANCH   1   7
BRANCH   4  20
HETATM   20  C   UNL     1     -38.423 -57.341  18.269  1.00  0.00     0.051 A 
HETATM   21  C   UNL     1     -38.921 -58.638  18.331  1.00  0.00     0.033 A 
HETATM   22  C   UNL     1     -38.075 -59.680  18.700  1.00  0.00     0.027 A 
HETATM   23  C   UNL     1     -36.758 -59.389  19.048  1.00  0.00     0.005 A 
HETATM   24  C   UNL     1     -35.853 -60.459  19.574  1.00  0.00     0.068 C 
HETATM   25  N   UNL     1     -36.252 -58.134  18.996  1.00  0.00    -0.367 N 
HETATM   26  C   UNL     1     -37.083 -57.145  18.586  1.00  0.00     0.117 A 
ATOM     27  HN  UNL     1     -35.285 -57.941  19.255  1.00  0.00     0.165 HD
ENDBRANCH   4  20
TORSDOF 3
ENDMDL
MODEL 8
REMARK VINA RESULT:      -5.2      1.878      3.470
REMARK  3 active torsions:
REMARK  status: ('A' for Active; 'I' for Inactive)
REMARK    1  A    between atoms: C_5  and  N_8 
REMARK    2  A    between atoms: C_11  and  N_14 
REMARK       I    between atoms: N_14  and  C_15 
REMARK       I    between atoms: C_15  and  N_17 
REMARK    3  A    between atoms: N_17  and  C_18 
ROOT
HETATM    1  N   UNL     1     -38.930 -53.610  15.466  1.00  0.00    -0.338 N 
HETATM    2  C   UNL     1     -39.569 -52.509  14.937  1.00  0.00     0.321 C 
HETATM    3  O   UNL     1     -40.248 -51.738  15.603  1.00  0.00    -0.247 OA
HETATM    4  N   UNL     1     -39.396 -52.456  13.575  1.00  0.00    -0.308 N 
HETATM    5  H   UNL     1     -38.029 -53.801  15.045  1.00  0.00     0.164 HD
HETATM    6  H   UNL     1     -39.308 -53.364  13.141  1.00  0.00     0.170 HD
ENDROOT
BRANCH   1   7
HETATM    7  C   UNL     1     -39.104 -53.959  16.872  1.00  0.00     0.089 C 
HETATM    8  C   UNL     1     -37.789 -54.399  17.525  1.00  0.00     0.055 C 
HETATM    9  C   UNL     1     -37.410 -55.824  17.121  1.00  0.00     0.275 C 
HETATM   10  N   UNL     1     -38.468 -56.814  17.397  1.00  0.00     0.093 N 
HETATM   11  C   UNL     1     -39.677 -56.419  16.654  1.00  0.00     0.275 C 
HETATM   12  C   UNL     1     -40.192 -55.025  17.022  1.00  0.00     0.055 C 
BRANCH  10  13
HETATM   13  C   UNL     1     -38.697 -57.069  18.848  1.00  0.00     0.226 C 
HETATM   14  C   UNL     1     -37.408 -57.480  19.600  1.00  0.00     0.066 C 
HETATM   15  C   UNL     1     -36.917 -58.868  19.185  1.00  0.00     0.274 C 
HETATM   16  N   UNL     1     -37.922 -59.930  19.362  1.00  0.00     0.084 N 
HETATM   17  C   UNL     1     -38.117 -60.281  20.767  1.00  0.00     0.309 C 
HETATM   18  C   UNL     1     -39.185 -59.565  18.701  1.00  0.00     0.274 C 
HETATM   19  C   UNL     1     -39.722 -58.194  19.122  1.00  0.00     0.066 C 
ENDBRANCH  10  13
ENDBRANCH   1   7
BRANCH   4  20
HETATM   20  C   UNL     1     -39.928 -51.419  12.786  1.00  0.00     0.051 A 
HETATM   21  C   UNL     1     -39.132 -50.313  12.507  1.00  0.00     0.033 A 
HETATM   22  C   UNL     1     -39.654 -49.267  11.751  1.00  0.00     0.027 A 
HETATM   23  C   UNL     1     -40.982 -49.332  11.334  1.00  0.00     0.005 A 
HETATM   24  C   UNL     1     -41.619 -48.174  10.632  1.00  0.00     0.068 C 
HETATM   25  N   UNL     1     -41.774 -50.399  11.595  1.00  0.00    -0.367 N 
HETATM   26  C   UNL     1     -41.227 -51.426  12.290  1.00  0.00     0.117 A 
ATOM     27  HN  UNL     1     -42.744 -50.428  11.280  1.00  0.00     0.165 HD
ENDBRANCH   4  20
TORSDOF 3
ENDMDL
MODEL 9
REMARK VINA RESULT:      -5.2      2.262      9.903
REMARK  3 active torsions:
REMARK  status: ('A' for Active; 'I' for Inactive)
REMARK    1  A    between atoms: C_5  and  N_8 
REMARK    2  A    between atoms: C_11  and  N_14 
REMARK       I    between atoms: N_14  and  C_15 
REMARK       I    between atoms: C_15  and  N_17 
REMARK    3  A    between atoms: N_17  and  C_18 
ROOT
HETATM    1  N   UNL     1     -39.878 -54.987  15.514  1.00  0.00    -0.338 N 
HETATM    2  C   UNL     1     -39.078 -55.885  16.187  1.00  0.00     0.321 C 
HETATM    3  O   UNL     1     -37.905 -56.090  15.899  1.00  0.00    -0.247 OA
HETATM    4  N   UNL     1     -39.798 -56.551  17.149  1.00  0.00    -0.308 N 
HETATM    5  H   UNL     1     -40.533 -54.497  16.111  1.00  0.00     0.164 HD
HETATM    6  H   UNL     1     -40.772 -56.676  16.914  1.00  0.00     0.170 HD
ENDROOT
BRANCH   1   7
HETATM    7  C   UNL     1     -39.371 -54.279  14.344  1.00  0.00     0.089 C 
HETATM    8  C   UNL     1     -38.683 -52.962  14.721  1.00  0.00     0.055 C 
HETATM    9  C   UNL     1     -39.701 -51.872  15.055  1.00  0.00     0.275 C 
HETATM   10  N   UNL     1     -40.687 -51.639  13.983  1.00  0.00     0.093 N 
HETATM   11  C   UNL     1     -41.409 -52.900  13.736  1.00  0.00     0.275 C 
HETATM   12  C   UNL     1     -40.494 -54.057  13.329  1.00  0.00     0.055 C 
BRANCH  10  13
HETATM   13  C   UNL     1     -40.115 -51.011  12.758  1.00  0.00     0.226 C 
HETATM   14  C   UNL     1     -39.365 -49.689  13.050  1.00  0.00     0.066 C 
HETATM   15  C   UNL     1     -40.319 -48.569  13.472  1.00  0.00     0.274 C 
HETATM   16  N   UNL     1     -41.385 -48.298  12.494  1.00  0.00     0.084 N 
HETATM   17  C   UNL     1     -40.889 -47.600  11.311  1.00  0.00     0.309 C 
HETATM   18  C   UNL     1     -42.100 -49.537  12.149  1.00  0.00     0.274 C 
HETATM   19  C   UNL     1     -41.177 -50.667  11.688  1.00  0.00     0.066 C 
ENDBRANCH  10  13
ENDBRANCH   1   7
BRANCH   4  20
HETATM   20  C   UNL     1     -39.216 -57.510  17.999  1.00  0.00     0.051 A 
HETATM   21  C   UNL     1     -39.451 -58.858  17.750  1.00  0.00     0.033 A 
HETATM   22  C   UNL     1     -38.904 -59.816  18.599  1.00  0.00     0.027 A 
HETATM   23  C   UNL     1     -38.175 -59.398  19.709  1.00  0.00     0.005 A 
HETATM   24  C   UNL     1     -37.680 -60.390  20.715  1.00  0.00     0.068 C 
HETATM   25  N   UNL     1     -37.934 -58.092  19.971  1.00  0.00    -0.367 N 
HETATM   26  C   UNL     1     -38.436 -57.180  19.102  1.00  0.00     0.117 A 
ATOM     27  HN  UNL     1     -37.397 -57.805  20.789  1.00  0.00     0.165 HD
ENDBRANCH   4  20
TORSDOF 3
ENDMDL
