MODEL 1
REMARK VINA RESULT:      -7.0      0.000      0.000
REMARK  8 active torsions:
REMARK  status: ('A' for Active; 'I' for Inactive)
REMARK    1  A    between atoms: C_2  and  C_3 
REMARK    2  A    between atoms: C_3  and  C_5 
REMARK    3  A    between atoms: C_8  and  O_9 
REMARK    4  A    between atoms: O_9  and  C_10 
REMARK    5  A    between atoms: C_10  and  C_11 
REMARK    6  A    between atoms: C_11  and  O_12 
REMARK    7  A    between atoms: C_11  and  C_13 
REMARK    8  A    between atoms: C_13  and  N_14 
ROOT
HETATM    1  C   UNL     1     -40.010 -49.453  11.544  1.00  0.00     0.160 C 
ENDROOT
BRANCH   1   2
HETATM    2  C   UNL     1     -39.635 -50.583  12.516  1.00  0.00     0.209 C 
BRANCH   2   3
HETATM    3  O   UNL     1     -40.024 -51.823  11.908  1.00  0.00    -0.349 OA
BRANCH   3   4
HETATM    4  C   UNL     1     -40.910 -52.603  12.593  1.00  0.00     0.068 A 
HETATM    5  C   UNL     1     -42.250 -52.420  12.240  1.00  0.00     0.037 A 
HETATM    6  C   UNL     1     -43.261 -53.187  12.829  1.00  0.00     0.018 A 
HETATM    7  C   UNL     1     -42.933 -54.164  13.772  1.00  0.00     0.010 A 
HETATM    8  C   UNL     1     -41.589 -54.347  14.125  1.00  0.00     0.018 A 
HETATM    9  C   UNL     1     -40.581 -53.570  13.539  1.00  0.00     0.037 A 
BRANCH   7  10
HETATM   10  C   UNL     1     -43.961 -55.045  14.408  1.00  0.00     0.159 C 
HETATM   11  O   UNL     1     -43.645 -55.717  15.389  1.00  0.00    -0.292 OA
BRANCH  10  12
HETATM   12  C   UNL     1     -45.360 -55.082  13.816  1.00  0.00     0.079 C 
HETATM   13  C   UNL     1     -46.354 -54.284  14.646  1.00  0.00     0.013 C 
ENDBRANCH  10  12
ENDBRANCH   7  10
ENDBRANCH   3   4
ENDBRANCH   2   3
ENDBRANCH   1   2
BRANCH   1  14
HETATM   14  O   UNL     1     -40.427 -50.051  10.306  1.00  0.00    -0.392 OA
HETATM   15  H   UNL     1     -40.303 -49.383   9.603  1.00  0.00     0.210 HD
ENDBRANCH   1  14
BRANCH   1  16
HETATM   16  C   UNL     1     -41.135 -48.577  12.108  1.00  0.00     0.164 C 
BRANCH  16  17
HETATM   17  N   UNL     1     -41.498 -47.482  11.228  1.00  0.00    -0.339 N 
HETATM   18  C   UNL     1     -40.649 -46.480  10.843  1.00  0.00     0.184 A 
HETATM   19  N   UNL     1     -41.210 -45.672   9.975  1.00  0.00    -0.350 N 
HETATM   20  C   UNL     1     -42.482 -46.160   9.802  1.00  0.00     0.060 A 
ATOM     21  HN  UNL     1     -40.792 -44.856   9.526  1.00  0.00     0.166 HD
HETATM   22  C   UNL     1     -43.514 -45.675   8.985  1.00  0.00     0.032 A 
HETATM   23  C   UNL     1     -42.695 -47.298  10.580  1.00  0.00     0.062 A 
HETATM   24  C   UNL     1     -44.738 -46.353   8.974  1.00  0.00     0.002 A 
HETATM   25  C   UNL     1     -44.931 -47.490   9.763  1.00  0.00     0.002 A 
HETATM   26  C   UNL     1     -43.912 -47.990  10.583  1.00  0.00     0.032 A 
ENDBRANCH  16  17
ENDBRANCH   1  16
TORSDOF 8
ENDMDL
MODEL 2
REMARK VINA RESULT:      -6.8      2.952      6.879
REMARK  8 active torsions:
REMARK  status: ('A' for Active; 'I' for Inactive)
REMARK    1  A    between atoms: C_2  and  C_3 
REMARK    2  A    between atoms: C_3  and  C_5 
REMARK    3  A    between atoms: C_8  and  O_9 
REMARK    4  A    between atoms: O_9  and  C_10 
REMARK    5  A    between atoms: C_10  and  C_11 
REMARK    6  A    between atoms: C_11  and  O_12 
REMARK    7  A    between atoms: C_11  and  C_13 
REMARK    8  A    between atoms: C_13  and  N_14 
ROOT
HETATM    1  C   UNL     1     -41.317 -52.755  12.386  1.00  0.00     0.160 C 
ENDROOT
BRANCH   1   2
HETATM    2  C   UNL     1     -40.364 -51.750  13.053  1.00  0.00     0.209 C 
BRANCH   2   3
HETATM    3  O   UNL     1     -41.147 -50.617  13.458  1.00  0.00    -0.349 OA
BRANCH   3   4
HETATM    4  C   UNL     1     -41.528 -49.742  12.483  1.00  0.00     0.068 A 
HETATM    5  C   UNL     1     -42.836 -49.264  12.601  1.00  0.00     0.037 A 
HETATM    6  C   UNL     1     -43.343 -48.325  11.696  1.00  0.00     0.018 A 
HETATM    7  C   UNL     1     -42.531 -47.839  10.668  1.00  0.00     0.010 A 
HETATM    8  C   UNL     1     -41.219 -48.319  10.552  1.00  0.00     0.018 A 
HETATM    9  C   UNL     1     -40.719 -49.267  11.455  1.00  0.00     0.037 A 
BRANCH   7  10
HETATM   10  C   UNL     1     -42.998 -46.805   9.694  1.00  0.00     0.159 C 
HETATM   11  O   UNL     1     -42.493 -45.684   9.726  1.00  0.00    -0.292 OA
BRANCH  10  12
HETATM   12  C   UNL     1     -44.085 -47.176   8.700  1.00  0.00     0.079 C 
HETATM   13  C   UNL     1     -43.541 -47.986   7.533  1.00  0.00     0.013 C 
ENDBRANCH  10  12
ENDBRANCH   7  10
ENDBRANCH   3   4
ENDBRANCH   2   3
ENDBRANCH   1   2
BRANCH   1  14
HETATM   14  O   UNL     1     -40.576 -53.478  11.391  1.00  0.00    -0.392 OA
HETATM   15  H   UNL     1     -40.110 -52.821  10.840  1.00  0.00     0.210 HD
ENDBRANCH   1  14
BRANCH   1  16
HETATM   16  C   UNL     1     -41.910 -53.731  13.409  1.00  0.00     0.164 C 
BRANCH  16  17
HETATM   17  N   UNL     1     -42.898 -53.116  14.276  1.00  0.00    -0.339 N 
HETATM   18  C   UNL     1     -42.710 -52.856  15.607  1.00  0.00     0.184 A 
HETATM   19  N   UNL     1     -43.729 -52.215  16.127  1.00  0.00    -0.350 N 
HETATM   20  C   UNL     1     -44.623 -52.067  15.096  1.00  0.00     0.060 A 
ATOM     21  HN  UNL     1     -43.835 -51.895  17.090  1.00  0.00     0.166 HD
HETATM   22  C   UNL     1     -45.885 -51.456  15.098  1.00  0.00     0.032 A 
HETATM   23  C   UNL     1     -44.129 -52.626  13.917  1.00  0.00     0.062 A 
HETATM   24  C   UNL     1     -46.620 -51.425  13.907  1.00  0.00     0.002 A 
HETATM   25  C   UNL     1     -46.108 -51.993  12.738  1.00  0.00     0.002 A 
HETATM   26  C   UNL     1     -44.849 -52.607  12.716  1.00  0.00     0.032 A 
ENDBRANCH  16  17
ENDBRANCH   1  16
TORSDOF 8
ENDMDL
MODEL 3
REMARK VINA RESULT:      -6.6      2.742      3.455
REMARK  8 active torsions:
REMARK  status: ('A' for Active; 'I' for Inactive)
REMARK    1  A    between atoms: C_2  and  C_3 
REMARK    2  A    between atoms: C_3  and  C_5 
REMARK    3  A    between atoms: C_8  and  O_9 
REMARK    4  A    between atoms: O_9  and  C_10 
REMARK    5  A    between atoms: C_10  and  C_11 
REMARK    6  A    between atoms: C_11  and  O_12 
REMARK    7  A    between atoms: C_11  and  C_13 
REMARK    8  A    between atoms: C_13  and  N_14 
ROOT
HETATM    1  C   UNL     1     -37.942 -50.560  12.895  1.00  0.00     0.160 C 
ENDROOT
BRANCH   1   2
HETATM    2  C   UNL     1     -38.241 -51.614  13.974  1.00  0.00     0.209 C 
BRANCH   2   3
HETATM    3  O   UNL     1     -38.794 -52.763  13.314  1.00  0.00    -0.349 OA
BRANCH   3   4
HETATM    4  C   UNL     1     -40.022 -53.189  13.730  1.00  0.00     0.068 A 
HETATM    5  C   UNL     1     -40.958 -53.367  12.708  1.00  0.00     0.037 A 
HETATM    6  C   UNL     1     -42.244 -53.846  12.986  1.00  0.00     0.018 A 
HETATM    7  C   UNL     1     -42.597 -54.171  14.298  1.00  0.00     0.010 A 
HETATM    8  C   UNL     1     -41.656 -53.993  15.321  1.00  0.00     0.018 A 
HETATM    9  C   UNL     1     -40.373 -53.504  15.040  1.00  0.00     0.037 A 
BRANCH   7  10
HETATM   10  C   UNL     1     -43.939 -54.726  14.656  1.00  0.00     0.159 C 
HETATM   11  O   UNL     1     -44.116 -55.175  15.787  1.00  0.00    -0.292 OA
BRANCH  10  12
HETATM   12  C   UNL     1     -45.036 -54.720  13.606  1.00  0.00     0.079 C 
HETATM   13  C   UNL     1     -45.893 -53.465  13.680  1.00  0.00     0.013 C 
ENDBRANCH  10  12
ENDBRANCH   7  10
ENDBRANCH   3   4
ENDBRANCH   2   3
ENDBRANCH   1   2
BRANCH   1  14
HETATM   14  O   UNL     1     -38.204 -51.149  11.612  1.00  0.00    -0.392 OA
HETATM   15  H   UNL     1     -39.167 -51.303  11.552  1.00  0.00     0.210 HD
ENDBRANCH   1  14
BRANCH   1  16
HETATM   16  C   UNL     1     -38.803 -49.305  13.082  1.00  0.00     0.164 C 
BRANCH  16  17
HETATM   17  N   UNL     1     -40.191 -49.507  12.712  1.00  0.00    -0.339 N 
HETATM   18  C   UNL     1     -40.664 -49.487  11.427  1.00  0.00     0.184 A 
HETATM   19  N   UNL     1     -41.940 -49.787  11.372  1.00  0.00    -0.350 N 
HETATM   20  C   UNL     1     -42.315 -49.994  12.677  1.00  0.00     0.060 A 
ATOM     21  HN  UNL     1     -42.527 -49.852  10.540  1.00  0.00     0.166 HD
HETATM   22  C   UNL     1     -43.573 -50.337  13.193  1.00  0.00     0.032 A 
HETATM   23  C   UNL     1     -41.236 -49.823  13.545  1.00  0.00     0.062 A 
HETATM   24  C   UNL     1     -43.711 -50.499  14.577  1.00  0.00     0.002 A 
HETATM   25  C   UNL     1     -42.618 -50.320  15.428  1.00  0.00     0.002 A 
HETATM   26  C   UNL     1     -41.354 -49.979  14.931  1.00  0.00     0.032 A 
ENDBRANCH  16  17
ENDBRANCH   1  16
TORSDOF 8
ENDMDL
MODEL 4
REMARK VINA RESULT:      -6.5      2.061      2.808
REMARK  8 active torsions:
REMARK  status: ('A' for Active; 'I' for Inactive)
REMARK    1  A    between atoms: C_2  and  C_3 
REMARK    2  A    between atoms: C_3  and  C_5 
REMARK    3  A    between atoms: C_8  and  O_9 
REMARK    4  A    between atoms: O_9  and  C_10 
REMARK    5  A    between atoms: C_10  and  C_11 
REMARK    6  A    between atoms: C_11  and  O_12 
REMARK    7  A    between atoms: C_11  and  C_13 
REMARK    8  A    between atoms: C_13  and  N_14 
ROOT
HETATM    1  C   UNL     1     -37.867 -50.725  12.885  1.00  0.00     0.160 C 
ENDROOT
BRANCH   1   2
HETATM    2  C   UNL     1     -38.910 -51.500  13.708  1.00  0.00     0.209 C 
BRANCH   2   3
HETATM    3  O   UNL     1     -39.408 -52.563  12.883  1.00  0.00    -0.349 OA
BRANCH   3   4
HETATM    4  C   UNL     1     -40.763 -52.716  12.815  1.00  0.00     0.068 A 
HETATM    5  C   UNL     1     -41.232 -53.971  13.214  1.00  0.00     0.037 A 
HETATM    6  C   UNL     1     -42.603 -54.251  13.239  1.00  0.00     0.018 A 
HETATM    7  C   UNL     1     -43.523 -53.263  12.882  1.00  0.00     0.010 A 
HETATM    8  C   UNL     1     -43.050 -52.005  12.483  1.00  0.00     0.018 A 
HETATM    9  C   UNL     1     -41.676 -51.732  12.450  1.00  0.00     0.037 A 
BRANCH   7  10
HETATM   10  C   UNL     1     -45.001 -53.484  12.927  1.00  0.00     0.159 C 
HETATM   11  O   UNL     1     -45.428 -54.606  13.195  1.00  0.00    -0.292 OA
BRANCH  10  12
HETATM   12  C   UNL     1     -45.925 -52.314  12.635  1.00  0.00     0.079 C 
HETATM   13  C   UNL     1     -46.439 -51.659  13.908  1.00  0.00     0.013 C 
ENDBRANCH  10  12
ENDBRANCH   7  10
ENDBRANCH   3   4
ENDBRANCH   2   3
ENDBRANCH   1   2
BRANCH   1  14
HETATM   14  O   UNL     1     -36.951 -51.675  12.319  1.00  0.00    -0.392 OA
HETATM   15  H   UNL     1     -36.239 -51.169  11.882  1.00  0.00     0.210 HD
ENDBRANCH   1  14
BRANCH   1  16
HETATM   16  C   UNL     1     -38.528 -49.906  11.770  1.00  0.00     0.164 C 
BRANCH  16  17
HETATM   17  N   UNL     1     -39.252 -48.751  12.265  1.00  0.00    -0.339 N 
HETATM   18  C   UNL     1     -38.813 -47.931  13.270  1.00  0.00     0.184 A 
HETATM   19  N   UNL     1     -39.619 -46.913  13.455  1.00  0.00    -0.350 N 
HETATM   20  C   UNL     1     -40.631 -47.087  12.545  1.00  0.00     0.060 A 
ATOM     21  HN  UNL     1     -39.516 -46.155  14.130  1.00  0.00     0.166 HD
HETATM   22  C   UNL     1     -41.763 -46.291  12.313  1.00  0.00     0.032 A 
HETATM   23  C   UNL     1     -40.430 -48.238  11.781  1.00  0.00     0.062 A 
HETATM   24  C   UNL     1     -42.664 -46.677  11.315  1.00  0.00     0.002 A 
HETATM   25  C   UNL     1     -42.445 -47.834  10.564  1.00  0.00     0.002 A 
HETATM   26  C   UNL     1     -41.321 -48.641  10.780  1.00  0.00     0.032 A 
ENDBRANCH  16  17
ENDBRANCH   1  16
TORSDOF 8
ENDMDL
MODEL 5
REMARK VINA RESULT:      -6.4      3.736      6.254
REMARK  8 active torsions:
REMARK  status: ('A' for Active; 'I' for Inactive)
REMARK    1  A    between atoms: C_2  and  C_3 
REMARK    2  A    between atoms: C_3  and  C_5 
REMARK    3  A    between atoms: C_8  and  O_9 
REMARK    4  A    between atoms: O_9  and  C_10 
REMARK    5  A    between atoms: C_10  and  C_11 
REMARK    6  A    between atoms: C_11  and  O_12 
REMARK    7  A    between atoms: C_11  and  C_13 
REMARK    8  A    between atoms: C_13  and  N_14 
ROOT
HETATM    1  C   UNL     1     -45.864 -54.433  14.593  1.00  0.00     0.160 C 
ENDROOT
BRANCH   1   2
HETATM    2  C   UNL     1     -45.502 -54.042  16.035  1.00  0.00     0.209 C 
BRANCH   2   3
HETATM    3  O   UNL     1     -44.322 -54.774  16.398  1.00  0.00    -0.349 OA
BRANCH   3   4
HETATM    4  C   UNL     1     -43.119 -54.219  16.070  1.00  0.00     0.068 A 
HETATM    5  C   UNL     1     -42.418 -54.889  15.064  1.00  0.00     0.037 A 
HETATM    6  C   UNL     1     -41.192 -54.404  14.596  1.00  0.00     0.018 A 
HETATM    7  C   UNL     1     -40.663 -53.223  15.123  1.00  0.00     0.010 A 
HETATM    8  C   UNL     1     -41.368 -52.552  16.131  1.00  0.00     0.018 A 
HETATM    9  C   UNL     1     -42.591 -53.047  16.604  1.00  0.00     0.037 A 
BRANCH   7  10
HETATM   10  C   UNL     1     -39.379 -52.630  14.638  1.00  0.00     0.159 C 
HETATM   11  O   UNL     1     -38.778 -53.180  13.717  1.00  0.00    -0.292 OA
BRANCH  10  12
HETATM   12  C   UNL     1     -38.859 -51.369  15.307  1.00  0.00     0.079 C 
HETATM   13  C   UNL     1     -38.349 -50.353  14.296  1.00  0.00     0.013 C 
ENDBRANCH  10  12
ENDBRANCH   7  10
ENDBRANCH   3   4
ENDBRANCH   2   3
ENDBRANCH   1   2
BRANCH   1  14
HETATM   14  O   UNL     1     -47.122 -55.125  14.622  1.00  0.00    -0.392 OA
HETATM   15  H   UNL     1     -47.564 -54.963  13.766  1.00  0.00     0.210 HD
ENDBRANCH   1  14
BRANCH   1  16
HETATM   16  C   UNL     1     -45.964 -53.201  13.685  1.00  0.00     0.164 C 
BRANCH  16  17
HETATM   17  N   UNL     1     -44.679 -52.765  13.174  1.00  0.00    -0.339 N 
HETATM   18  C   UNL     1     -43.980 -53.402  12.184  1.00  0.00     0.184 A 
HETATM   19  N   UNL     1     -42.893 -52.745  11.855  1.00  0.00    -0.350 N 
HETATM   20  C   UNL     1     -42.877 -51.645  12.676  1.00  0.00     0.060 A 
ATOM     21  HN  UNL     1     -42.207 -52.997  11.142  1.00  0.00     0.166 HD
HETATM   22  C   UNL     1     -41.935 -50.609  12.751  1.00  0.00     0.032 A 
HETATM   23  C   UNL     1     -43.987 -51.631  13.521  1.00  0.00     0.062 A 
HETATM   24  C   UNL     1     -42.139 -49.581  13.679  1.00  0.00     0.002 A 
HETATM   25  C   UNL     1     -43.256 -49.587  14.517  1.00  0.00     0.002 A 
HETATM   26  C   UNL     1     -44.207 -50.613  14.456  1.00  0.00     0.032 A 
ENDBRANCH  16  17
ENDBRANCH   1  16
TORSDOF 8
ENDMDL
MODEL 6
REMARK VINA RESULT:      -6.4      3.728      5.712
REMARK  8 active torsions:
REMARK  status: ('A' for Active; 'I' for Inactive)
REMARK    1  A    between atoms: C_2  and  C_3 
REMARK    2  A    between atoms: C_3  and  C_5 
REMARK    3  A    between atoms: C_8  and  O_9 
REMARK    4  A    between atoms: O_9  and  C_10 
REMARK    5  A    between atoms: C_10  and  C_11 
REMARK    6  A    between atoms: C_11  and  O_12 
REMARK    7  A    between atoms: C_11  and  C_13 
REMARK    8  A    between atoms: C_13  and  N_14 
ROOT
HETATM    1  C   UNL     1     -39.131 -50.201  14.127  1.00  0.00     0.160 C 
ENDROOT
BRANCH   1   2
HETATM    2  C   UNL     1     -40.056 -49.812  15.291  1.00  0.00     0.209 C 
BRANCH   2   3
HETATM    3  O   UNL     1     -41.105 -48.993  14.754  1.00  0.00    -0.349 OA
BRANCH   3   4
HETATM    4  C   UNL     1     -42.339 -49.564  14.629  1.00  0.00     0.068 A 
HETATM    5  C   UNL     1     -42.860 -49.560  13.333  1.00  0.00     0.037 A 
HETATM    6  C   UNL     1     -44.095 -50.154  13.052  1.00  0.00     0.018 A 
HETATM    7  C   UNL     1     -44.816 -50.779  14.072  1.00  0.00     0.010 A 
HETATM    8  C   UNL     1     -44.291 -50.782  15.373  1.00  0.00     0.018 A 
HETATM    9  C   UNL     1     -43.059 -50.178  15.651  1.00  0.00     0.037 A 
BRANCH   7  10
HETATM   10  C   UNL     1     -46.122 -51.467  13.831  1.00  0.00     0.159 C 
HETATM   11  O   UNL     1     -47.027 -51.333  14.653  1.00  0.00    -0.292 OA
BRANCH  10  12
HETATM   12  C   UNL     1     -46.281 -52.313  12.580  1.00  0.00     0.079 C 
HETATM   13  C   UNL     1     -47.164 -51.638  11.541  1.00  0.00     0.013 C 
ENDBRANCH  10  12
ENDBRANCH   7  10
ENDBRANCH   3   4
ENDBRANCH   2   3
ENDBRANCH   1   2
BRANCH   1  14
HETATM   14  O   UNL     1     -37.806 -49.742  14.438  1.00  0.00    -0.392 OA
HETATM   15  H   UNL     1     -37.736 -49.691  15.410  1.00  0.00     0.210 HD
ENDBRANCH   1  14
BRANCH   1  16
HETATM   16  C   UNL     1     -39.121 -51.717  13.899  1.00  0.00     0.164 C 
BRANCH  16  17
HETATM   17  N   UNL     1     -40.334 -52.207  13.273  1.00  0.00    -0.339 N 
HETATM   18  C   UNL     1     -40.658 -52.023  11.956  1.00  0.00     0.184 A 
HETATM   19  N   UNL     1     -41.767 -52.645  11.635  1.00  0.00    -0.350 N 
HETATM   20  C   UNL     1     -42.190 -53.244  12.795  1.00  0.00     0.060 A 
ATOM     21  HN  UNL     1     -42.219 -52.677  10.720  1.00  0.00     0.166 HD
HETATM   22  C   UNL     1     -43.327 -54.034  13.022  1.00  0.00     0.032 A 
HETATM   23  C   UNL     1     -41.310 -52.985  13.846  1.00  0.00     0.062 A 
HETATM   24  C   UNL     1     -43.547 -54.544  14.307  1.00  0.00     0.002 A 
HETATM   25  C   UNL     1     -42.654 -54.269  15.345  1.00  0.00     0.002 A 
HETATM   26  C   UNL     1     -41.514 -53.484  15.138  1.00  0.00     0.032 A 
ENDBRANCH  16  17
ENDBRANCH   1  16
TORSDOF 8
ENDMDL
MODEL 7
REMARK VINA RESULT:      -6.3      3.010      7.867
REMARK  8 active torsions:
REMARK  status: ('A' for Active; 'I' for Inactive)
REMARK    1  A    between atoms: C_2  and  C_3 
REMARK    2  A    between atoms: C_3  and  C_5 
REMARK    3  A    between atoms: C_8  and  O_9 
REMARK    4  A    between atoms: O_9  and  C_10 
REMARK    5  A    between atoms: C_10  and  C_11 
REMARK    6  A    between atoms: C_11  and  O_12 
REMARK    7  A    between atoms: C_11  and  C_13 
REMARK    8  A    between atoms: C_13  and  N_14 
ROOT
HETATM    1  C   UNL     1     -41.558 -52.424  11.966  1.00  0.00     0.160 C 
ENDROOT
BRANCH   1   2
HETATM    2  C   UNL     1     -40.801 -51.091  12.087  1.00  0.00     0.209 C 
BRANCH   2   3
HETATM    3  O   UNL     1     -41.749 -50.035  11.873  1.00  0.00    -0.349 OA
BRANCH   3   4
HETATM    4  C   UNL     1     -41.250 -48.798  11.586  1.00  0.00     0.068 A 
HETATM    5  C   UNL     1     -41.984 -48.072  10.644  1.00  0.00     0.037 A 
HETATM    6  C   UNL     1     -41.613 -46.771  10.290  1.00  0.00     0.018 A 
HETATM    7  C   UNL     1     -40.505 -46.173  10.896  1.00  0.00     0.010 A 
HETATM    8  C   UNL     1     -39.770 -46.902  11.841  1.00  0.00     0.018 A 
HETATM    9  C   UNL     1     -40.140 -48.209  12.185  1.00  0.00     0.037 A 
BRANCH   7  10
HETATM   10  C   UNL     1     -40.080 -44.772  10.592  1.00  0.00     0.159 C 
HETATM   11  O   UNL     1     -39.678 -44.502   9.462  1.00  0.00    -0.292 OA
BRANCH  10  12
HETATM   12  C   UNL     1     -40.154 -43.730  11.696  1.00  0.00     0.079 C 
HETATM   13  C   UNL     1     -41.563 -43.584  12.250  1.00  0.00     0.013 C 
ENDBRANCH  10  12
ENDBRANCH   7  10
ENDBRANCH   3   4
ENDBRANCH   2   3
ENDBRANCH   1   2
BRANCH   1  14
HETATM   14  O   UNL     1     -40.662 -53.396  11.404  1.00  0.00    -0.392 OA
HETATM   15  H   UNL     1     -40.897 -53.499  10.462  1.00  0.00     0.210 HD
ENDBRANCH   1  14
BRANCH   1  16
HETATM   16  C   UNL     1     -42.067 -52.906  13.329  1.00  0.00     0.164 C 
BRANCH  16  17
HETATM   17  N   UNL     1     -43.512 -53.024  13.387  1.00  0.00    -0.339 N 
HETATM   18  C   UNL     1     -44.247 -53.937  12.679  1.00  0.00     0.184 A 
HETATM   19  N   UNL     1     -45.521 -53.882  12.988  1.00  0.00    -0.350 N 
HETATM   20  C   UNL     1     -45.619 -52.882  13.923  1.00  0.00     0.060 A 
ATOM     21  HN  UNL     1     -46.275 -54.458  12.614  1.00  0.00     0.166 HD
HETATM   22  C   UNL     1     -46.756 -52.400  14.589  1.00  0.00     0.032 A 
HETATM   23  C   UNL     1     -44.372 -52.320  14.194  1.00  0.00     0.062 A 
HETATM   24  C   UNL     1     -46.604 -51.361  15.514  1.00  0.00     0.002 A 
HETATM   25  C   UNL     1     -45.346 -50.811  15.769  1.00  0.00     0.002 A 
HETATM   26  C   UNL     1     -44.199 -51.279  15.115  1.00  0.00     0.032 A 
ENDBRANCH  16  17
ENDBRANCH   1  16
TORSDOF 8
ENDMDL
MODEL 8
REMARK VINA RESULT:      -6.3      2.540      3.610
REMARK  8 active torsions:
REMARK  status: ('A' for Active; 'I' for Inactive)
REMARK    1  A    between atoms: C_2  and  C_3 
REMARK    2  A    between atoms: C_3  and  C_5 
REMARK    3  A    between atoms: C_8  and  O_9 
REMARK    4  A    between atoms: O_9  and  C_10 
REMARK    5  A    between atoms: C_10  and  C_11 
REMARK    6  A    between atoms: C_11  and  O_12 
REMARK    7  A    between atoms: C_11  and  C_13 
REMARK    8  A    between atoms: C_13  and  N_14 
ROOT
HETATM    1  C   UNL     1     -39.230 -51.895  15.002  1.00  0.00     0.160 C 
ENDROOT
BRANCH   1   2
HETATM    2  C   UNL     1     -38.844 -53.281  14.459  1.00  0.00     0.209 C 
BRANCH   2   3
HETATM    3  O   UNL     1     -39.554 -53.475  13.227  1.00  0.00    -0.349 OA
BRANCH   3   4
HETATM    4  C   UNL     1     -40.915 -53.547  13.297  1.00  0.00     0.068 A 
HETATM    5  C   UNL     1     -41.593 -52.806  12.326  1.00  0.00     0.037 A 
HETATM    6  C   UNL     1     -42.990 -52.826  12.251  1.00  0.00     0.018 A 
HETATM    7  C   UNL     1     -43.724 -53.611  13.144  1.00  0.00     0.010 A 
HETATM    8  C   UNL     1     -43.042 -54.355  14.117  1.00  0.00     0.018 A 
HETATM    9  C   UNL     1     -41.643 -54.323  14.194  1.00  0.00     0.037 A 
BRANCH   7  10
HETATM   10  C   UNL     1     -45.216 -53.709  13.091  1.00  0.00     0.159 C 
HETATM   11  O   UNL     1     -45.755 -54.769  13.406  1.00  0.00    -0.292 OA
BRANCH  10  12
HETATM   12  C   UNL     1     -46.013 -52.495  12.645  1.00  0.00     0.079 C 
HETATM   13  C   UNL     1     -46.191 -51.484  13.768  1.00  0.00     0.013 C 
ENDBRANCH  10  12
ENDBRANCH   7  10
ENDBRANCH   3   4
ENDBRANCH   2   3
ENDBRANCH   1   2
BRANCH   1  14
HETATM   14  O   UNL     1     -39.058 -51.911  16.428  1.00  0.00    -0.392 OA
HETATM   15  H   UNL     1     -39.653 -52.598  16.785  1.00  0.00     0.210 HD
ENDBRANCH   1  14
BRANCH   1  16
HETATM   16  C   UNL     1     -38.368 -50.789  14.382  1.00  0.00     0.164 C 
BRANCH  16  17
HETATM   17  N   UNL     1     -38.916 -50.265  13.145  1.00  0.00    -0.339 N 
HETATM   18  C   UNL     1     -38.283 -50.315  11.932  1.00  0.00     0.184 A 
HETATM   19  N   UNL     1     -39.041 -49.851  10.968  1.00  0.00    -0.350 N 
HETATM   20  C   UNL     1     -40.208 -49.468  11.582  1.00  0.00     0.060 A 
ATOM     21  HN  UNL     1     -38.814 -49.787   9.975  1.00  0.00     0.166 HD
HETATM   22  C   UNL     1     -41.361 -48.900  11.020  1.00  0.00     0.032 A 
HETATM   23  C   UNL     1     -40.159 -49.714  12.954  1.00  0.00     0.062 A 
HETATM   24  C   UNL     1     -42.438 -48.594  11.859  1.00  0.00     0.002 A 
HETATM   25  C   UNL     1     -42.367 -48.846  13.232  1.00  0.00     0.002 A 
HETATM   26  C   UNL     1     -41.225 -49.413  13.811  1.00  0.00     0.032 A 
ENDBRANCH  16  17
ENDBRANCH   1  16
TORSDOF 8
ENDMDL
MODEL 9
REMARK VINA RESULT:      -6.2      3.756      6.030
REMARK  8 active torsions:
REMARK  status: ('A' for Active; 'I' for Inactive)
REMARK    1  A    between atoms: C_2  and  C_3 
REMARK    2  A    between atoms: C_3  and  C_5 
REMARK    3  A    between atoms: C_8  and  O_9 
REMARK    4  A    between atoms: O_9  and  C_10 
REMARK    5  A    between atoms: C_10  and  C_11 
REMARK    6  A    between atoms: C_11  and  O_12 
REMARK    7  A    between atoms: C_11  and  C_13 
REMARK    8  A    between atoms: C_13  and  N_14 
ROOT
HETATM    1  C   UNL     1     -40.858 -51.345  12.217  1.00  0.00     0.160 C 
ENDROOT
BRANCH   1   2
HETATM    2  C   UNL     1     -40.084 -50.708  13.382  1.00  0.00     0.209 C 
BRANCH   2   3
HETATM    3  O   UNL     1     -40.955 -49.758  14.012  1.00  0.00    -0.349 OA
BRANCH   3   4
HETATM    4  C   UNL     1     -42.236 -50.158  14.263  1.00  0.00     0.068 A 
HETATM    5  C   UNL     1     -43.149 -49.878  13.244  1.00  0.00     0.037 A 
HETATM    6  C   UNL     1     -44.487 -50.274  13.348  1.00  0.00     0.018 A 
HETATM    7  C   UNL     1     -44.920 -50.976  14.475  1.00  0.00     0.010 A 
HETATM    8  C   UNL     1     -44.001 -51.257  15.497  1.00  0.00     0.018 A 
HETATM    9  C   UNL     1     -42.665 -50.850  15.392  1.00  0.00     0.037 A 
BRANCH   7  10
HETATM   10  C   UNL     1     -46.325 -51.464  14.630  1.00  0.00     0.159 C 
HETATM   11  O   UNL     1     -47.104 -51.348  13.685  1.00  0.00    -0.292 OA
BRANCH  10  12
HETATM   12  C   UNL     1     -46.743 -52.081  15.954  1.00  0.00     0.079 C 
HETATM   13  C   UNL     1     -47.705 -51.188  16.723  1.00  0.00     0.013 C 
ENDBRANCH  10  12
ENDBRANCH   7  10
ENDBRANCH   3   4
ENDBRANCH   2   3
ENDBRANCH   1   2
BRANCH   1  14
HETATM   14  O   UNL     1     -40.445 -50.699  11.002  1.00  0.00    -0.392 OA
HETATM   15  H   UNL     1     -41.129 -50.039  10.776  1.00  0.00     0.210 HD
ENDBRANCH   1  14
BRANCH   1  16
HETATM   16  C   UNL     1     -40.595 -52.852  12.124  1.00  0.00     0.164 C 
BRANCH  16  17
HETATM   17  N   UNL     1     -41.237 -53.608  13.182  1.00  0.00    -0.339 N 
HETATM   18  C   UNL     1     -40.610 -54.040  14.320  1.00  0.00     0.184 A 
HETATM   19  N   UNL     1     -41.446 -54.620  15.147  1.00  0.00    -0.350 N 
HETATM   20  C   UNL     1     -42.663 -54.579  14.513  1.00  0.00     0.060 A 
ATOM     21  HN  UNL     1     -41.238 -55.017  16.064  1.00  0.00     0.166 HD
HETATM   22  C   UNL     1     -43.906 -55.063  14.948  1.00  0.00     0.032 A 
HETATM   23  C   UNL     1     -42.564 -53.950  13.272  1.00  0.00     0.062 A 
HETATM   24  C   UNL     1     -45.020 -54.900  14.117  1.00  0.00     0.002 A 
HETATM   25  C   UNL     1     -44.898 -54.269  12.876  1.00  0.00     0.002 A 
HETATM   26  C   UNL     1     -43.666 -53.778  12.426  1.00  0.00     0.032 A 
ENDBRANCH  16  17
ENDBRANCH   1  16
TORSDOF 8
ENDMDL
