MODEL 1
REMARK VINA RESULT:      -6.6      0.000      0.000
REMARK  7 active torsions:
REMARK  status: ('A' for Active; 'I' for Inactive)
REMARK    1  A    between atoms: N_10  and  C_11 
REMARK    2  A    between atoms: C_11  and  C_12 
REMARK    3  A    between atoms: C_12  and  O_13 
REMARK    4  A    between atoms: C_12  and  C_14 
REMARK    5  A    between atoms: C_14  and  O_15 
REMARK    6  A    between atoms: O_15  and  C_16 
REMARK    7  A    between atoms: C_16  and  C_17 
ROOT
HETATM    1  C   UNL     1     -42.350 -52.036  13.634  1.00  0.00     0.183 C 
ENDROOT
BRANCH   1   2
HETATM    2  N   UNL     1     -42.324 -50.816  12.838  1.00  0.00    -0.284 N 
HETATM    3  N   UNL     1     -43.454 -50.056  12.754  1.00  0.00    -0.308 N 
HETATM    4  C   UNL     1     -43.047 -48.923  12.175  1.00  0.00     0.122 A 
ATOM      5  HN  UNL     1     -44.395 -50.297  13.064  1.00  0.00     0.186 HD
HETATM    6  C   UNL     1     -41.683 -48.957  11.876  1.00  0.00     0.032 A 
HETATM    7  C   UNL     1     -40.767 -48.017  11.314  1.00  0.00     0.122 A 
HETATM    8  C   UNL     1     -41.243 -50.194  12.279  1.00  0.00     0.133 A 
HETATM    9  N   UNL     1     -39.507 -48.316  11.187  1.00  0.00    -0.306 N 
HETATM   10  N   UNL     1     -39.058 -49.586  11.591  1.00  0.00    -0.261 N 
ATOM     11  HN  UNL     1     -38.853 -47.637  10.800  1.00  0.00     0.186 HD
HETATM   12  C   UNL     1     -37.634 -49.823  11.455  1.00  0.00     0.181 C 
HETATM   13  C   UNL     1     -39.874 -50.602  12.142  1.00  0.00     0.290 A 
HETATM   14  O   UNL     1     -39.455 -51.706  12.473  1.00  0.00    -0.264 OA
ENDBRANCH   1   2
BRANCH   1  15
HETATM   15  C   UNL     1     -42.570 -53.336  12.830  1.00  0.00     0.161 C 
BRANCH  15  16
HETATM   16  O   UNL     1     -41.340 -53.916  12.383  1.00  0.00    -0.392 OA
HETATM   17  H   UNL     1     -41.292 -53.727  11.418  1.00  0.00     0.210 HD
ENDBRANCH  15  16
BRANCH  15  18
HETATM   18  C   UNL     1     -43.399 -54.370  13.595  1.00  0.00     0.201 C 
BRANCH  18  19
HETATM   19  O   UNL     1     -44.615 -54.566  12.883  1.00  0.00    -0.384 OA
BRANCH  19  20
HETATM   20  C   UNL     1     -45.717 -54.852  13.740  1.00  0.00     0.208 C 
BRANCH  20  21
HETATM   21  C   UNL     1     -46.094 -53.624  14.538  1.00  0.00    -0.013 A 
HETATM   22  C   UNL     1     -46.092 -53.642  15.946  1.00  0.00     0.011 A 
HETATM   23  C   UNL     1     -46.448 -52.511  16.684  1.00  0.00     0.001 A 
HETATM   24  C   UNL     1     -46.812 -51.340  16.027  1.00  0.00     0.002 A 
HETATM   25  C   UNL     1     -46.816 -51.300  14.634  1.00  0.00     0.024 A 
HETATM   26  C   UNL     1     -46.459 -52.432  13.893  1.00  0.00     0.042 A 
HETATM   27 CL   UNL     1     -46.487 -52.306  12.170  1.00  0.00    -0.084 Cl
ENDBRANCH  20  21
ENDBRANCH  19  20
ENDBRANCH  18  19
ENDBRANCH  15  18
ENDBRANCH   1  15
TORSDOF 7
ENDMDL
MODEL 2
REMARK VINA RESULT:      -6.5      1.798      2.151
REMARK  7 active torsions:
REMARK  status: ('A' for Active; 'I' for Inactive)
REMARK    1  A    between atoms: N_10  and  C_11 
REMARK    2  A    between atoms: C_11  and  C_12 
REMARK    3  A    between atoms: C_12  and  O_13 
REMARK    4  A    between atoms: C_12  and  C_14 
REMARK    5  A    between atoms: C_14  and  O_15 
REMARK    6  A    between atoms: O_15  and  C_16 
REMARK    7  A    between atoms: C_16  and  C_17 
ROOT
HETATM    1  C   UNL     1     -41.035 -52.988  12.820  1.00  0.00     0.183 C 
ENDROOT
BRANCH   1   2
HETATM    2  N   UNL     1     -40.353 -51.777  12.384  1.00  0.00    -0.284 N 
HETATM    3  N   UNL     1     -40.789 -51.140  11.259  1.00  0.00    -0.308 N 
HETATM    4  C   UNL     1     -40.137 -49.974  11.266  1.00  0.00     0.122 A 
ATOM      5  HN  UNL     1     -41.461 -51.476  10.570  1.00  0.00     0.186 HD
HETATM    6  C   UNL     1     -39.284 -49.867  12.366  1.00  0.00     0.032 A 
HETATM    7  C   UNL     1     -38.422 -48.840  12.857  1.00  0.00     0.122 A 
HETATM    8  C   UNL     1     -39.411 -51.049  13.055  1.00  0.00     0.133 A 
HETATM    9  N   UNL     1     -37.758 -49.006  13.963  1.00  0.00    -0.306 N 
HETATM   10  N   UNL     1     -37.880 -50.219  14.663  1.00  0.00    -0.261 N 
ATOM     11  HN  UNL     1     -37.155 -48.264  14.318  1.00  0.00     0.186 HD
HETATM   12  C   UNL     1     -37.141 -50.306  15.907  1.00  0.00     0.181 C 
HETATM   13  C   UNL     1     -38.687 -51.311  14.265  1.00  0.00     0.290 A 
HETATM   14  O   UNL     1     -38.763 -52.363  14.891  1.00  0.00    -0.264 OA
ENDBRANCH   1   2
BRANCH   1  15
HETATM   15  C   UNL     1     -42.577 -52.904  12.821  1.00  0.00     0.161 C 
BRANCH  15  16
HETATM   16  O   UNL     1     -43.115 -52.726  11.506  1.00  0.00    -0.392 OA
HETATM   17  H   UNL     1     -42.364 -52.411  10.953  1.00  0.00     0.210 HD
ENDBRANCH  15  16
BRANCH  15  18
HETATM   18  C   UNL     1     -43.233 -54.105  13.506  1.00  0.00     0.201 C 
BRANCH  18  19
HETATM   19  O   UNL     1     -44.428 -54.412  12.798  1.00  0.00    -0.384 OA
BRANCH  19  20
HETATM   20  C   UNL     1     -45.499 -54.789  13.658  1.00  0.00     0.208 C 
BRANCH  20  21
HETATM   21  C   UNL     1     -45.969 -53.600  14.464  1.00  0.00    -0.013 A 
HETATM   22  C   UNL     1     -45.949 -53.620  15.872  1.00  0.00     0.011 A 
HETATM   23  C   UNL     1     -46.391 -52.525  16.618  1.00  0.00     0.001 A 
HETATM   24  C   UNL     1     -46.860 -51.388  15.968  1.00  0.00     0.002 A 
HETATM   25  C   UNL     1     -46.883 -51.345  14.575  1.00  0.00     0.024 A 
HETATM   26  C   UNL     1     -46.441 -52.441  13.828  1.00  0.00     0.042 A 
HETATM   27 CL   UNL     1     -46.500 -52.314  12.105  1.00  0.00    -0.084 Cl
ENDBRANCH  20  21
ENDBRANCH  19  20
ENDBRANCH  18  19
ENDBRANCH  15  18
ENDBRANCH   1  15
TORSDOF 7
ENDMDL
MODEL 3
REMARK VINA RESULT:      -6.4      2.123      2.619
REMARK  7 active torsions:
REMARK  status: ('A' for Active; 'I' for Inactive)
REMARK    1  A    between atoms: N_10  and  C_11 
REMARK    2  A    between atoms: C_11  and  C_12 
REMARK    3  A    between atoms: C_12  and  O_13 
REMARK    4  A    between atoms: C_12  and  C_14 
REMARK    5  A    between atoms: C_14  and  O_15 
REMARK    6  A    between atoms: O_15  and  C_16 
REMARK    7  A    between atoms: C_16  and  C_17 
ROOT
HETATM    1  C   UNL     1     -39.857 -51.696  12.937  1.00  0.00     0.183 C 
ENDROOT
BRANCH   1   2
HETATM    2  N   UNL     1     -40.030 -50.422  12.254  1.00  0.00    -0.284 N 
HETATM    3  N   UNL     1     -40.709 -50.390  11.071  1.00  0.00    -0.308 N 
HETATM    4  C   UNL     1     -40.899 -49.090  10.834  1.00  0.00     0.122 A 
ATOM      5  HN  UNL     1     -41.004 -51.180  10.498  1.00  0.00     0.186 HD
HETATM    6  C   UNL     1     -40.340 -48.295  11.837  1.00  0.00     0.032 A 
HETATM    7  C   UNL     1     -40.304 -46.889  12.084  1.00  0.00     0.122 A 
HETATM    8  C   UNL     1     -39.757 -49.167  12.724  1.00  0.00     0.133 A 
HETATM    9  N   UNL     1     -39.729 -46.421  13.153  1.00  0.00    -0.306 N 
HETATM   10  N   UNL     1     -39.124 -47.312  14.056  1.00  0.00    -0.261 N 
ATOM     11  HN  UNL     1     -39.718 -45.417  13.334  1.00  0.00     0.186 HD
HETATM   12  C   UNL     1     -38.544 -46.712  15.241  1.00  0.00     0.181 C 
HETATM   13  C   UNL     1     -39.082 -48.718  13.907  1.00  0.00     0.290 A 
HETATM   14  O   UNL     1     -38.534 -49.470  14.706  1.00  0.00    -0.264 OA
ENDBRANCH   1   2
BRANCH   1  15
HETATM   15  C   UNL     1     -40.884 -52.785  12.556  1.00  0.00     0.161 C 
BRANCH  15  16
HETATM   16  O   UNL     1     -40.598 -53.386  11.288  1.00  0.00    -0.392 OA
HETATM   17  H   UNL     1     -40.858 -54.331  11.378  1.00  0.00     0.210 HD
ENDBRANCH  15  16
BRANCH  15  18
HETATM   18  C   UNL     1     -41.031 -53.861  13.634  1.00  0.00     0.201 C 
BRANCH  18  19
HETATM   19  O   UNL     1     -42.362 -54.358  13.576  1.00  0.00    -0.384 OA
BRANCH  19  20
HETATM   20  C   UNL     1     -43.061 -54.211  14.809  1.00  0.00     0.208 C 
BRANCH  20  21
HETATM   21  C   UNL     1     -44.229 -53.266  14.642  1.00  0.00    -0.013 A 
HETATM   22  C   UNL     1     -44.105 -51.895  14.940  1.00  0.00     0.011 A 
HETATM   23  C   UNL     1     -45.185 -51.023  14.794  1.00  0.00     0.001 A 
HETATM   24  C   UNL     1     -46.411 -51.505  14.345  1.00  0.00     0.002 A 
HETATM   25  C   UNL     1     -46.554 -52.857  14.038  1.00  0.00     0.024 A 
HETATM   26  C   UNL     1     -45.472 -53.732  14.185  1.00  0.00     0.042 A 
HETATM   27 CL   UNL     1     -45.725 -55.395  13.786  1.00  0.00    -0.084 Cl
ENDBRANCH  20  21
ENDBRANCH  19  20
ENDBRANCH  18  19
ENDBRANCH  15  18
ENDBRANCH   1  15
TORSDOF 7
ENDMDL
MODEL 4
REMARK VINA RESULT:      -6.4      3.176      4.874
REMARK  7 active torsions:
REMARK  status: ('A' for Active; 'I' for Inactive)
REMARK    1  A    between atoms: N_10  and  C_11 
REMARK    2  A    between atoms: C_11  and  C_12 
REMARK    3  A    between atoms: C_12  and  O_13 
REMARK    4  A    between atoms: C_12  and  C_14 
REMARK    5  A    between atoms: C_14  and  O_15 
REMARK    6  A    between atoms: O_15  and  C_16 
REMARK    7  A    between atoms: C_16  and  C_17 
ROOT
HETATM    1  C   UNL     1     -44.477 -53.175  12.501  1.00  0.00     0.183 C 
ENDROOT
BRANCH   1   2
HETATM    2  N   UNL     1     -43.032 -53.347  12.572  1.00  0.00    -0.284 N 
HETATM    3  N   UNL     1     -42.241 -52.673  11.687  1.00  0.00    -0.308 N 
HETATM    4  C   UNL     1     -41.002 -52.847  12.155  1.00  0.00     0.122 A 
ATOM      5  HN  UNL     1     -42.530 -52.155  10.858  1.00  0.00     0.186 HD
HETATM    6  C   UNL     1     -40.991 -53.630  13.311  1.00  0.00     0.032 A 
HETATM    7  C   UNL     1     -39.966 -54.062  14.206  1.00  0.00     0.122 A 
HETATM    8  C   UNL     1     -42.301 -53.970  13.544  1.00  0.00     0.133 A 
HETATM    9  N   UNL     1     -40.262 -54.771  15.256  1.00  0.00    -0.306 N 
HETATM   10  N   UNL     1     -41.602 -55.128  15.490  1.00  0.00    -0.261 N 
ATOM     11  HN  UNL     1     -39.530 -55.066  15.901  1.00  0.00     0.186 HD
HETATM   12  C   UNL     1     -41.850 -55.882  16.703  1.00  0.00     0.181 C 
HETATM   13  C   UNL     1     -42.695 -54.774  14.665  1.00  0.00     0.290 A 
HETATM   14  O   UNL     1     -43.853 -55.111  14.889  1.00  0.00    -0.264 OA
ENDBRANCH   1   2
BRANCH   1  15
HETATM   15  C   UNL     1     -45.014 -51.886  13.161  1.00  0.00     0.161 C 
BRANCH  15  16
HETATM   16  O   UNL     1     -44.264 -50.727  12.785  1.00  0.00    -0.392 OA
HETATM   17  H   UNL     1     -44.163 -50.197  13.609  1.00  0.00     0.210 HD
ENDBRANCH  15  16
BRANCH  15  18
HETATM   18  C   UNL     1     -46.505 -51.665  12.897  1.00  0.00     0.201 C 
BRANCH  18  19
HETATM   19  O   UNL     1     -47.097 -51.195  14.102  1.00  0.00    -0.384 OA
BRANCH  19  20
HETATM   20  C   UNL     1     -46.650 -51.907  15.252  1.00  0.00     0.208 C 
BRANCH  20  21
HETATM   21  C   UNL     1     -46.828 -51.065  16.494  1.00  0.00    -0.013 A 
HETATM   22  C   UNL     1     -48.073 -50.982  17.147  1.00  0.00     0.011 A 
HETATM   23  C   UNL     1     -48.240 -50.198  18.290  1.00  0.00     0.001 A 
HETATM   24  C   UNL     1     -47.164 -49.482  18.803  1.00  0.00     0.002 A 
HETATM   25  C   UNL     1     -45.921 -49.554  18.176  1.00  0.00     0.024 A 
HETATM   26  C   UNL     1     -45.753 -50.339  17.030  1.00  0.00     0.042 A 
HETATM   27 CL   UNL     1     -44.183 -50.379  16.308  1.00  0.00    -0.084 Cl
ENDBRANCH  20  21
ENDBRANCH  19  20
ENDBRANCH  18  19
ENDBRANCH  15  18
ENDBRANCH   1  15
TORSDOF 7
ENDMDL
MODEL 5
REMARK VINA RESULT:      -6.3      2.883      4.301
REMARK  7 active torsions:
REMARK  status: ('A' for Active; 'I' for Inactive)
REMARK    1  A    between atoms: N_10  and  C_11 
REMARK    2  A    between atoms: C_11  and  C_12 
REMARK    3  A    between atoms: C_12  and  O_13 
REMARK    4  A    between atoms: C_12  and  C_14 
REMARK    5  A    between atoms: C_14  and  O_15 
REMARK    6  A    between atoms: O_15  and  C_16 
REMARK    7  A    between atoms: C_16  and  C_17 
ROOT
HETATM    1  C   UNL     1     -41.783 -49.521  12.067  1.00  0.00     0.183 C 
ENDROOT
BRANCH   1   2
HETATM    2  N   UNL     1     -41.801 -48.310  11.258  1.00  0.00    -0.284 N 
HETATM    3  N   UNL     1     -42.678 -48.221  10.218  1.00  0.00    -0.308 N 
HETATM    4  C   UNL     1     -42.618 -46.941   9.843  1.00  0.00     0.122 A 
ATOM      5  HN  UNL     1     -43.250 -48.964   9.817  1.00  0.00     0.186 HD
HETATM    6  C   UNL     1     -41.708 -46.218  10.617  1.00  0.00     0.032 A 
HETATM    7  C   UNL     1     -41.311 -44.848  10.662  1.00  0.00     0.122 A 
HETATM    8  C   UNL     1     -41.168 -47.123  11.500  1.00  0.00     0.133 A 
HETATM    9  N   UNL     1     -40.445 -44.438  11.541  1.00  0.00    -0.306 N 
HETATM   10  N   UNL     1     -39.885 -45.365  12.438  1.00  0.00    -0.261 N 
ATOM     11  HN  UNL     1     -40.175 -43.456  11.580  1.00  0.00     0.186 HD
HETATM   12  C   UNL     1     -38.961 -44.819  13.413  1.00  0.00     0.181 C 
HETATM   13  C   UNL     1     -40.186 -46.746  12.476  1.00  0.00     0.290 A 
HETATM   14  O   UNL     1     -39.671 -47.533  13.263  1.00  0.00    -0.264 OA
ENDBRANCH   1   2
BRANCH   1  15
HETATM   15  C   UNL     1     -40.838 -50.632  11.559  1.00  0.00     0.161 C 
BRANCH  15  16
HETATM   16  O   UNL     1     -40.153 -50.259  10.358  1.00  0.00    -0.392 OA
HETATM   17  H   UNL     1     -39.789 -49.360  10.528  1.00  0.00     0.210 HD
ENDBRANCH  15  16
BRANCH  15  18
HETATM   18  C   UNL     1     -39.837 -51.087  12.623  1.00  0.00     0.201 C 
BRANCH  18  19
HETATM   19  O   UNL     1     -39.862 -52.509  12.665  1.00  0.00    -0.384 OA
BRANCH  19  20
HETATM   20  C   UNL     1     -41.154 -53.047  12.397  1.00  0.00     0.208 C 
BRANCH  20  21
HETATM   21  C   UNL     1     -41.641 -53.859  13.575  1.00  0.00    -0.013 A 
HETATM   22  C   UNL     1     -40.758 -54.265  14.595  1.00  0.00     0.011 A 
HETATM   23  C   UNL     1     -41.205 -55.022  15.680  1.00  0.00     0.001 A 
HETATM   24  C   UNL     1     -42.545 -55.387  15.766  1.00  0.00     0.002 A 
HETATM   25  C   UNL     1     -43.437 -54.990  14.770  1.00  0.00     0.024 A 
HETATM   26  C   UNL     1     -42.989 -54.232  13.683  1.00  0.00     0.042 A 
HETATM   27 CL   UNL     1     -44.153 -53.778  12.488  1.00  0.00    -0.084 Cl
ENDBRANCH  20  21
ENDBRANCH  19  20
ENDBRANCH  18  19
ENDBRANCH  15  18
ENDBRANCH   1  15
TORSDOF 7
ENDMDL
MODEL 6
REMARK VINA RESULT:      -6.3      2.981      4.807
REMARK  7 active torsions:
REMARK  status: ('A' for Active; 'I' for Inactive)
REMARK    1  A    between atoms: N_10  and  C_11 
REMARK    2  A    between atoms: C_11  and  C_12 
REMARK    3  A    between atoms: C_12  and  O_13 
REMARK    4  A    between atoms: C_12  and  C_14 
REMARK    5  A    between atoms: C_14  and  O_15 
REMARK    6  A    between atoms: O_15  and  C_16 
REMARK    7  A    between atoms: C_16  and  C_17 
ROOT
HETATM    1  C   UNL     1     -39.530 -48.803  11.784  1.00  0.00     0.183 C 
ENDROOT
BRANCH   1   2
HETATM    2  N   UNL     1     -40.209 -47.622  12.299  1.00  0.00    -0.284 N 
HETATM    3  N   UNL     1     -39.728 -47.018  13.423  1.00  0.00    -0.308 N 
HETATM    4  C   UNL     1     -40.399 -45.865  13.492  1.00  0.00     0.122 A 
ATOM      5  HN  UNL     1     -39.017 -47.367  14.065  1.00  0.00     0.186 HD
HETATM    6  C   UNL     1     -41.307 -45.733  12.440  1.00  0.00     0.032 A 
HETATM    7  C   UNL     1     -42.209 -44.705  12.031  1.00  0.00     0.122 A 
HETATM    8  C   UNL     1     -41.195 -46.887  11.702  1.00  0.00     0.133 A 
HETATM    9  N   UNL     1     -42.925 -44.843  10.953  1.00  0.00    -0.306 N 
HETATM   10  N   UNL     1     -42.817 -46.028  10.204  1.00  0.00    -0.261 N 
ATOM     11  HN  UNL     1     -43.557 -44.100  10.656  1.00  0.00     0.186 HD
HETATM   12  C   UNL     1     -43.617 -46.083   8.995  1.00  0.00     0.181 C 
HETATM   13  C   UNL     1     -41.975 -47.119  10.520  1.00  0.00     0.290 A 
HETATM   14  O   UNL     1     -41.912 -48.146   9.853  1.00  0.00    -0.264 OA
ENDBRANCH   1   2
BRANCH   1  15
HETATM   15  C   UNL     1     -40.295 -50.131  11.975  1.00  0.00     0.161 C 
BRANCH  15  16
HETATM   16  O   UNL     1     -40.710 -50.706  10.731  1.00  0.00    -0.392 OA
HETATM   17  H   UNL     1     -40.022 -50.447  10.076  1.00  0.00     0.210 HD
ENDBRANCH  15  16
BRANCH  15  18
HETATM   18  C   UNL     1     -39.505 -51.154  12.796  1.00  0.00     0.201 C 
BRANCH  18  19
HETATM   19  O   UNL     1     -40.029 -52.444  12.506  1.00  0.00    -0.384 OA
BRANCH  19  20
HETATM   20  C   UNL     1     -40.430 -53.154  13.674  1.00  0.00     0.208 C 
BRANCH  20  21
HETATM   21  C   UNL     1     -41.882 -53.561  13.571  1.00  0.00    -0.013 A 
HETATM   22  C   UNL     1     -42.709 -53.057  12.548  1.00  0.00     0.011 A 
HETATM   23  C   UNL     1     -44.052 -53.425  12.456  1.00  0.00     0.001 A 
HETATM   24  C   UNL     1     -44.595 -54.307  13.386  1.00  0.00     0.002 A 
HETATM   25  C   UNL     1     -43.793 -54.822  14.403  1.00  0.00     0.024 A 
HETATM   26  C   UNL     1     -42.446 -54.453  14.495  1.00  0.00     0.042 A 
HETATM   27 CL   UNL     1     -41.515 -55.133  15.783  1.00  0.00    -0.084 Cl
ENDBRANCH  20  21
ENDBRANCH  19  20
ENDBRANCH  18  19
ENDBRANCH  15  18
ENDBRANCH   1  15
TORSDOF 7
ENDMDL
MODEL 7
REMARK VINA RESULT:      -6.3      2.886      4.301
REMARK  7 active torsions:
REMARK  status: ('A' for Active; 'I' for Inactive)
REMARK    1  A    between atoms: N_10  and  C_11 
REMARK    2  A    between atoms: C_11  and  C_12 
REMARK    3  A    between atoms: C_12  and  O_13 
REMARK    4  A    between atoms: C_12  and  C_14 
REMARK    5  A    between atoms: C_14  and  O_15 
REMARK    6  A    between atoms: O_15  and  C_16 
REMARK    7  A    between atoms: C_16  and  C_17 
ROOT
HETATM    1  C   UNL     1     -41.890 -49.535  12.105  1.00  0.00     0.183 C 
ENDROOT
BRANCH   1   2
HETATM    2  N   UNL     1     -41.880 -48.316  11.308  1.00  0.00    -0.284 N 
HETATM    3  N   UNL     1     -42.738 -48.207  10.253  1.00  0.00    -0.308 N 
HETATM    4  C   UNL     1     -42.657 -46.924   9.892  1.00  0.00     0.122 A 
ATOM      5  HN  UNL     1     -43.312 -48.939   9.836  1.00  0.00     0.186 HD
HETATM    6  C   UNL     1     -41.752 -46.220  10.689  1.00  0.00     0.032 A 
HETATM    7  C   UNL     1     -41.340 -44.854  10.753  1.00  0.00     0.122 A 
HETATM    8  C   UNL     1     -41.237 -47.138  11.571  1.00  0.00     0.133 A 
HETATM    9  N   UNL     1     -40.485 -44.463  11.651  1.00  0.00    -0.306 N 
HETATM   10  N   UNL     1     -39.951 -45.405  12.548  1.00  0.00    -0.261 N 
ATOM     11  HN  UNL     1     -40.204 -43.484  11.704  1.00  0.00     0.186 HD
HETATM   12  C   UNL     1     -39.037 -44.879  13.544  1.00  0.00     0.181 C 
HETATM   13  C   UNL     1     -40.269 -46.783  12.568  1.00  0.00     0.290 A 
HETATM   14  O   UNL     1     -39.776 -47.583  13.356  1.00  0.00    -0.264 OA
ENDBRANCH   1   2
BRANCH   1  15
HETATM   15  C   UNL     1     -40.925 -50.639  11.622  1.00  0.00     0.161 C 
BRANCH  15  16
HETATM   16  O   UNL     1     -40.265 -50.292  10.400  1.00  0.00    -0.392 OA
HETATM   17  H   UNL     1     -40.966 -49.918   9.817  1.00  0.00     0.210 HD
ENDBRANCH  15  16
BRANCH  15  18
HETATM   18  C   UNL     1     -39.899 -51.033  12.687  1.00  0.00     0.201 C 
BRANCH  18  19
HETATM   19  O   UNL     1     -40.441 -52.114  13.436  1.00  0.00    -0.384 OA
BRANCH  19  20
HETATM   20  C   UNL     1     -40.914 -53.176  12.613  1.00  0.00     0.208 C 
BRANCH  20  21
HETATM   21  C   UNL     1     -42.181 -53.764  13.189  1.00  0.00    -0.013 A 
HETATM   22  C   UNL     1     -43.423 -53.589  12.548  1.00  0.00     0.011 A 
HETATM   23  C   UNL     1     -44.596 -54.125  13.083  1.00  0.00     0.001 A 
HETATM   24  C   UNL     1     -44.549 -54.849  14.271  1.00  0.00     0.002 A 
HETATM   25  C   UNL     1     -43.329 -55.039  14.919  1.00  0.00     0.024 A 
HETATM   26  C   UNL     1     -42.154 -54.502  14.383  1.00  0.00     0.042 A 
HETATM   27 CL   UNL     1     -40.680 -54.780  15.242  1.00  0.00    -0.084 Cl
ENDBRANCH  20  21
ENDBRANCH  19  20
ENDBRANCH  18  19
ENDBRANCH  15  18
ENDBRANCH   1  15
TORSDOF 7
ENDMDL
MODEL 8
REMARK VINA RESULT:      -6.2      2.311      3.211
REMARK  7 active torsions:
REMARK  status: ('A' for Active; 'I' for Inactive)
REMARK    1  A    between atoms: N_10  and  C_11 
REMARK    2  A    between atoms: C_11  and  C_12 
REMARK    3  A    between atoms: C_12  and  O_13 
REMARK    4  A    between atoms: C_12  and  C_14 
REMARK    5  A    between atoms: C_14  and  O_15 
REMARK    6  A    between atoms: O_15  and  C_16 
REMARK    7  A    between atoms: C_16  and  C_17 
ROOT
HETATM    1  C   UNL     1     -40.689 -49.704  12.579  1.00  0.00     0.183 C 
ENDROOT
BRANCH   1   2
HETATM    2  N   UNL     1     -41.038 -48.670  11.614  1.00  0.00    -0.284 N 
HETATM    3  N   UNL     1     -41.968 -48.945  10.655  1.00  0.00    -0.308 N 
HETATM    4  C   UNL     1     -42.233 -47.759  10.102  1.00  0.00     0.122 A 
ATOM      5  HN  UNL     1     -42.370 -49.851  10.415  1.00  0.00     0.186 HD
HETATM    6  C   UNL     1     -41.478 -46.738  10.682  1.00  0.00     0.032 A 
HETATM    7  C   UNL     1     -41.414 -45.324  10.499  1.00  0.00     0.122 A 
HETATM    8  C   UNL     1     -40.690 -47.348  11.629  1.00  0.00     0.133 A 
HETATM    9  N   UNL     1     -40.621 -44.597  11.230  1.00  0.00    -0.306 N 
HETATM   10  N   UNL     1     -39.809 -45.222  12.193  1.00  0.00    -0.261 N 
ATOM     11  HN  UNL     1     -40.589 -43.586  11.107  1.00  0.00     0.186 HD
HETATM   12  C   UNL     1     -38.987 -44.336  12.994  1.00  0.00     0.181 C 
HETATM   13  C   UNL     1     -39.773 -46.612  12.450  1.00  0.00     0.290 A 
HETATM   14  O   UNL     1     -39.043 -47.130  13.289  1.00  0.00    -0.264 OA
ENDBRANCH   1   2
BRANCH   1  15
HETATM   15  C   UNL     1     -40.715 -51.146  12.028  1.00  0.00     0.161 C 
BRANCH  15  16
HETATM   16  O   UNL     1     -39.402 -51.685  11.844  1.00  0.00    -0.392 OA
HETATM   17  H   UNL     1     -39.528 -52.651  11.701  1.00  0.00     0.210 HD
ENDBRANCH  15  16
BRANCH  15  18
HETATM   18  C   UNL     1     -41.562 -52.090  12.886  1.00  0.00     0.201 C 
BRANCH  18  19
HETATM   19  O   UNL     1     -42.927 -51.882  12.544  1.00  0.00    -0.384 OA
BRANCH  19  20
HETATM   20  C   UNL     1     -43.724 -53.051  12.714  1.00  0.00     0.208 C 
BRANCH  20  21
HETATM   21  C   UNL     1     -44.913 -52.754  13.598  1.00  0.00    -0.013 A 
HETATM   22  C   UNL     1     -45.235 -51.433  13.967  1.00  0.00     0.011 A 
HETATM   23  C   UNL     1     -46.329 -51.158  14.790  1.00  0.00     0.001 A 
HETATM   24  C   UNL     1     -47.123 -52.199  15.260  1.00  0.00     0.002 A 
HETATM   25  C   UNL     1     -46.825 -53.513  14.902  1.00  0.00     0.024 A 
HETATM   26  C   UNL     1     -45.729 -53.790  14.078  1.00  0.00     0.042 A 
HETATM   27 CL   UNL     1     -45.423 -55.443  13.678  1.00  0.00    -0.084 Cl
ENDBRANCH  20  21
ENDBRANCH  19  20
ENDBRANCH  18  19
ENDBRANCH  15  18
ENDBRANCH   1  15
TORSDOF 7
ENDMDL
MODEL 9
REMARK VINA RESULT:      -6.1      2.803      4.710
REMARK  7 active torsions:
REMARK  status: ('A' for Active; 'I' for Inactive)
REMARK    1  A    between atoms: N_10  and  C_11 
REMARK    2  A    between atoms: C_11  and  C_12 
REMARK    3  A    between atoms: C_12  and  O_13 
REMARK    4  A    between atoms: C_12  and  C_14 
REMARK    5  A    between atoms: C_14  and  O_15 
REMARK    6  A    between atoms: O_15  and  C_16 
REMARK    7  A    between atoms: C_16  and  C_17 
ROOT
HETATM    1  C   UNL     1     -39.814 -48.579  11.995  1.00  0.00     0.183 C 
ENDROOT
BRANCH   1   2
HETATM    2  N   UNL     1     -40.779 -47.943  11.108  1.00  0.00    -0.284 N 
HETATM    3  N   UNL     1     -41.451 -48.709  10.202  1.00  0.00    -0.308 N 
HETATM    4  C   UNL     1     -42.403 -47.901   9.727  1.00  0.00     0.122 A 
ATOM      5  HN  UNL     1     -41.269 -49.679   9.945  1.00  0.00     0.186 HD
HETATM    6  C   UNL     1     -42.337 -46.632  10.305  1.00  0.00     0.032 A 
HETATM    7  C   UNL     1     -43.125 -45.447  10.188  1.00  0.00     0.122 A 
HETATM    8  C   UNL     1     -41.267 -46.667  11.165  1.00  0.00     0.133 A 
HETATM    9  N   UNL     1     -42.846 -44.395  10.900  1.00  0.00    -0.306 N 
HETATM   10  N   UNL     1     -41.745 -44.427  11.773  1.00  0.00    -0.261 N 
ATOM     11  HN  UNL     1     -43.419 -43.555  10.825  1.00  0.00     0.186 HD
HETATM   12  C   UNL     1     -41.529 -43.229  12.561  1.00  0.00     0.181 C 
HETATM   13  C   UNL     1     -40.885 -45.535  11.959  1.00  0.00     0.290 A 
HETATM   14  O   UNL     1     -39.923 -45.529  12.720  1.00  0.00    -0.264 OA
ENDBRANCH   1   2
BRANCH   1  15
HETATM   15  C   UNL     1     -39.481 -50.047  11.651  1.00  0.00     0.161 C 
BRANCH  15  16
HETATM   16  O   UNL     1     -38.424 -50.157  10.691  1.00  0.00    -0.392 OA
HETATM   17  H   UNL     1     -37.839 -50.876  11.022  1.00  0.00     0.210 HD
ENDBRANCH  15  16
BRANCH  15  18
HETATM   18  C   UNL     1     -39.162 -50.886  12.891  1.00  0.00     0.201 C 
BRANCH  18  19
HETATM   19  O   UNL     1     -39.703 -52.186  12.689  1.00  0.00    -0.384 OA
BRANCH  19  20
HETATM   20  C   UNL     1     -40.974 -52.163  12.046  1.00  0.00     0.208 C 
BRANCH  20  21
HETATM   21  C   UNL     1     -42.041 -52.703  12.971  1.00  0.00    -0.013 A 
HETATM   22  C   UNL     1     -42.026 -54.046  13.395  1.00  0.00     0.011 A 
HETATM   23  C   UNL     1     -43.016 -54.548  14.243  1.00  0.00     0.001 A 
HETATM   24  C   UNL     1     -44.039 -53.715  14.684  1.00  0.00     0.002 A 
HETATM   25  C   UNL     1     -44.069 -52.381  14.281  1.00  0.00     0.024 A 
HETATM   26  C   UNL     1     -43.078 -51.877  13.431  1.00  0.00     0.042 A 
HETATM   27 CL   UNL     1     -43.182 -50.213  12.975  1.00  0.00    -0.084 Cl
ENDBRANCH  20  21
ENDBRANCH  19  20
ENDBRANCH  18  19
ENDBRANCH  15  18
ENDBRANCH   1  15
TORSDOF 7
ENDMDL
