MODEL 1
REMARK VINA RESULT:      -6.0      0.000      0.000
REMARK  6 active torsions:
REMARK  status: ('A' for Active; 'I' for Inactive)
REMARK    1  A    between atoms: C_2  and  C_3 
REMARK    2  A    between atoms: C_3  and  N_5 
REMARK       I    between atoms: N_5  and  C_6 
REMARK    3  A    between atoms: C_6  and  C_8 
REMARK    4  A    between atoms: C_8  and  N_9 
REMARK    5  A    between atoms: C_11  and  N_19 
REMARK    6  A    between atoms: C_13  and  C_14 
REMARK       I    between atoms: C_14  and  N_16 
ROOT
HETATM    1  N   UNL     1     -41.698 -49.646  12.309  1.00  0.00    -0.313 N 
HETATM    2  C   UNL     1     -40.314 -49.647  12.171  1.00  0.00     0.130 A 
HETATM    3  C   UNL     1     -39.619 -50.789  12.293  1.00  0.00     0.119 A 
HETATM    4  C   UNL     1     -40.302 -52.033  12.568  1.00  0.00     0.060 A 
HETATM    5  C   UNL     1     -41.640 -52.075  12.719  1.00  0.00     0.102 A 
HETATM    6  C   UNL     1     -42.427 -50.800  12.609  1.00  0.00     0.263 A 
HETATM    7  O   UNL     1     -43.643 -50.781  12.799  1.00  0.00    -0.267 OA
ENDROOT
BRANCH   1   8
HETATM    8  C   UNL     1     -42.415 -48.373  12.262  1.00  0.00     0.234 C 
BRANCH   8   9
HETATM    9  C   UNL     1     -42.661 -47.993  10.804  1.00  0.00     0.236 C 
HETATM   10  N   UNL     1     -43.993 -47.862  10.466  1.00  0.00    -0.355 N 
HETATM   11  H   UNL     1     -44.668 -47.789  11.224  1.00  0.00     0.162 HD
HETATM   12  O   UNL     1     -41.737 -47.756  10.029  1.00  0.00    -0.272 OA
BRANCH  10  13
HETATM   13  C   UNL     1     -44.413 -47.491   9.121  1.00  0.00     0.080 C 
HETATM   14  C   UNL     1     -44.416 -45.971   8.954  1.00  0.00     0.032 C 
BRANCH  13  15
HETATM   15  C   UNL     1     -45.800 -48.067   8.802  1.00  0.00     0.020 C 
HETATM   16  C   UNL     1     -46.927 -47.078   9.071  1.00  0.00     0.007 C 
ENDBRANCH  13  15
ENDBRANCH  10  13
ENDBRANCH   8   9
ENDBRANCH   1   8
BRANCH   3  17
HETATM   17  N   UNL     1     -38.163 -50.723  12.150  1.00  0.00    -0.114 N 
HETATM   18  O   UNL     1     -37.508 -51.669  12.609  1.00  0.00    -0.532 OA
HETATM   19  O   UNL     1     -37.670 -49.740  11.578  1.00  0.00    -0.532 OA
ENDBRANCH   3  17
BRANCH   5  20
HETATM   20  C   UNL     1     -42.252 -53.403  13.004  1.00  0.00     0.255 C 
HETATM   21  O   UNL     1     -41.770 -54.197  13.804  1.00  0.00    -0.268 OA
HETATM   22  N   UNL     1     -43.389 -53.709  12.328  1.00  0.00    -0.366 N 
HETATM   23  H   UNL     1     -43.824 -53.066  11.671  1.00  0.00     0.159 HD
HETATM   24  H   UNL     1     -43.835 -54.599  12.508  1.00  0.00     0.159 HD
ENDBRANCH   5  20
TORSDOF 6
ENDMDL
MODEL 2
REMARK VINA RESULT:      -6.0      4.497      6.505
REMARK  6 active torsions:
REMARK  status: ('A' for Active; 'I' for Inactive)
REMARK    1  A    between atoms: C_2  and  C_3 
REMARK    2  A    between atoms: C_3  and  N_5 
REMARK       I    between atoms: N_5  and  C_6 
REMARK    3  A    between atoms: C_6  and  C_8 
REMARK    4  A    between atoms: C_8  and  N_9 
REMARK    5  A    between atoms: C_11  and  N_19 
REMARK    6  A    between atoms: C_13  and  C_14 
REMARK       I    between atoms: C_14  and  N_16 
ROOT
HETATM    1  N   UNL     1     -43.477 -54.449  14.384  1.00  0.00    -0.313 N 
HETATM    2  C   UNL     1     -42.675 -55.082  15.326  1.00  0.00     0.130 A 
HETATM    3  C   UNL     1     -41.340 -54.954  15.280  1.00  0.00     0.119 A 
HETATM    4  C   UNL     1     -40.720 -54.152  14.249  1.00  0.00     0.060 A 
HETATM    5  C   UNL     1     -41.459 -53.529  13.311  1.00  0.00     0.102 A 
HETATM    6  C   UNL     1     -42.953 -53.686  13.338  1.00  0.00     0.263 A 
HETATM    7  O   UNL     1     -43.664 -53.184  12.466  1.00  0.00    -0.267 OA
ENDROOT
BRANCH   1   8
HETATM    8  C   UNL     1     -44.920 -54.683  14.408  1.00  0.00     0.234 C 
BRANCH   8   9
HETATM    9  C   UNL     1     -45.523 -53.968  15.615  1.00  0.00     0.236 C 
HETATM   10  N   UNL     1     -45.569 -52.593  15.498  1.00  0.00    -0.355 N 
HETATM   11  H   UNL     1     -45.434 -52.193  14.572  1.00  0.00     0.162 HD
HETATM   12  O   UNL     1     -45.989 -54.585  16.569  1.00  0.00    -0.272 OA
BRANCH  10  13
HETATM   13  C   UNL     1     -46.124 -51.750  16.548  1.00  0.00     0.080 C 
HETATM   14  C   UNL     1     -47.592 -51.431  16.267  1.00  0.00     0.032 C 
BRANCH  13  15
HETATM   15  C   UNL     1     -45.313 -50.455  16.697  1.00  0.00     0.020 C 
HETATM   16  C   UNL     1     -44.163 -50.359  15.701  1.00  0.00     0.007 C 
ENDBRANCH  13  15
ENDBRANCH  10  13
ENDBRANCH   8   9
ENDBRANCH   1   8
BRANCH   3  17
HETATM   17  N   UNL     1     -40.548 -55.656  16.292  1.00  0.00    -0.114 N 
HETATM   18  O   UNL     1     -41.074 -55.826  17.401  1.00  0.00    -0.532 OA
HETATM   19  O   UNL     1     -39.411 -56.044  15.987  1.00  0.00    -0.532 OA
ENDBRANCH   3  17
BRANCH   5  20
HETATM   20  C   UNL     1     -40.730 -52.729  12.288  1.00  0.00     0.255 C 
HETATM   21  O   UNL     1     -39.701 -52.111  12.541  1.00  0.00    -0.268 OA
HETATM   22  N   UNL     1     -41.259 -52.707  11.038  1.00  0.00    -0.366 N 
HETATM   23  H   UNL     1     -42.101 -53.222  10.792  1.00  0.00     0.159 HD
HETATM   24  H   UNL     1     -40.780 -52.181  10.318  1.00  0.00     0.159 HD
ENDBRANCH   5  20
TORSDOF 6
ENDMDL
MODEL 3
REMARK VINA RESULT:      -5.9      1.815      3.686
REMARK  6 active torsions:
REMARK  status: ('A' for Active; 'I' for Inactive)
REMARK    1  A    between atoms: C_2  and  C_3 
REMARK    2  A    between atoms: C_3  and  N_5 
REMARK       I    between atoms: N_5  and  C_6 
REMARK    3  A    between atoms: C_6  and  C_8 
REMARK    4  A    between atoms: C_8  and  N_9 
REMARK    5  A    between atoms: C_11  and  N_19 
REMARK    6  A    between atoms: C_13  and  C_14 
REMARK       I    between atoms: C_14  and  N_16 
ROOT
HETATM    1  N   UNL     1     -42.700 -49.874  12.690  1.00  0.00    -0.313 N 
HETATM    2  C   UNL     1     -43.974 -50.398  12.880  1.00  0.00     0.130 A 
HETATM    3  C   UNL     1     -44.151 -51.720  13.024  1.00  0.00     0.119 A 
HETATM    4  C   UNL     1     -43.018 -52.617  12.984  1.00  0.00     0.060 A 
HETATM    5  C   UNL     1     -41.768 -52.153  12.792  1.00  0.00     0.102 A 
HETATM    6  C   UNL     1     -41.559 -50.677  12.605  1.00  0.00     0.263 A 
HETATM    7  O   UNL     1     -40.443 -50.214  12.367  1.00  0.00    -0.267 OA
ENDROOT
BRANCH   1   8
HETATM    8  C   UNL     1     -42.551 -48.440  12.446  1.00  0.00     0.234 C 
BRANCH   8   9
HETATM    9  C   UNL     1     -42.680 -48.173  10.948  1.00  0.00     0.236 C 
HETATM   10  N   UNL     1     -43.941 -47.780  10.546  1.00  0.00    -0.355 N 
HETATM   11  H   UNL     1     -44.593 -47.475  11.265  1.00  0.00     0.162 HD
HETATM   12  O   UNL     1     -41.715 -48.237  10.191  1.00  0.00    -0.272 OA
BRANCH  10  13
HETATM   13  C   UNL     1     -44.243 -47.470   9.155  1.00  0.00     0.080 C 
HETATM   14  C   UNL     1     -44.141 -45.967   8.900  1.00  0.00     0.032 C 
BRANCH  13  15
HETATM   15  C   UNL     1     -45.638 -47.985   8.769  1.00  0.00     0.020 C 
HETATM   16  C   UNL     1     -46.750 -47.013   9.140  1.00  0.00     0.007 C 
ENDBRANCH  13  15
ENDBRANCH  10  13
ENDBRANCH   8   9
ENDBRANCH   1   8
BRANCH   3  17
HETATM   17  N   UNL     1     -45.518 -52.212  13.209  1.00  0.00    -0.114 N 
HETATM   18  O   UNL     1     -45.798 -53.304  12.695  1.00  0.00    -0.532 OA
HETATM   19  O   UNL     1     -46.310 -51.522  13.866  1.00  0.00    -0.532 OA
ENDBRANCH   3  17
BRANCH   5  20
HETATM   20  C   UNL     1     -40.666 -53.154  12.762  1.00  0.00     0.255 C 
HETATM   21  O   UNL     1     -39.586 -52.967  13.312  1.00  0.00    -0.268 OA
HETATM   22  N   UNL     1     -40.906 -54.307  12.087  1.00  0.00    -0.366 N 
HETATM   23  H   UNL     1     -41.796 -54.499  11.634  1.00  0.00     0.159 HD
HETATM   24  H   UNL     1     -40.180 -55.011  12.058  1.00  0.00     0.159 HD
ENDBRANCH   5  20
TORSDOF 6
ENDMDL
MODEL 4
REMARK VINA RESULT:      -5.8      2.254      5.011
REMARK  6 active torsions:
REMARK  status: ('A' for Active; 'I' for Inactive)
REMARK    1  A    between atoms: C_2  and  C_3 
REMARK    2  A    between atoms: C_3  and  N_5 
REMARK       I    between atoms: N_5  and  C_6 
REMARK    3  A    between atoms: C_6  and  C_8 
REMARK    4  A    between atoms: C_8  and  N_9 
REMARK    5  A    between atoms: C_11  and  N_19 
REMARK    6  A    between atoms: C_13  and  C_14 
REMARK       I    between atoms: C_14  and  N_16 
ROOT
HETATM    1  N   UNL     1     -41.287 -50.533  13.155  1.00  0.00    -0.313 N 
HETATM    2  C   UNL     1     -39.952 -50.874  12.971  1.00  0.00     0.130 A 
HETATM    3  C   UNL     1     -39.214 -50.257  12.035  1.00  0.00     0.119 A 
HETATM    4  C   UNL     1     -39.800 -49.226  11.207  1.00  0.00     0.060 A 
HETATM    5  C   UNL     1     -41.092 -48.872  11.345  1.00  0.00     0.102 A 
HETATM    6  C   UNL     1     -41.935 -49.573  12.372  1.00  0.00     0.263 A 
HETATM    7  O   UNL     1     -43.135 -49.324  12.492  1.00  0.00    -0.267 OA
ENDROOT
BRANCH   1   8
HETATM    8  C   UNL     1     -42.087 -51.287  14.118  1.00  0.00     0.234 C 
BRANCH   8   9
HETATM    9  C   UNL     1     -43.048 -52.201  13.363  1.00  0.00     0.236 C 
HETATM   10  N   UNL     1     -44.383 -51.954  13.610  1.00  0.00    -0.355 N 
HETATM   11  H   UNL     1     -44.625 -51.074  14.059  1.00  0.00     0.162 HD
HETATM   12  O   UNL     1     -42.650 -53.033  12.551  1.00  0.00    -0.272 OA
BRANCH  10  13
HETATM   13  C   UNL     1     -45.440 -52.722  12.965  1.00  0.00     0.080 C 
HETATM   14  C   UNL     1     -46.541 -51.797  12.447  1.00  0.00     0.032 C 
BRANCH  13  15
HETATM   15  C   UNL     1     -46.026 -53.765  13.928  1.00  0.00     0.020 C 
HETATM   16  C   UNL     1     -45.396 -55.142  13.760  1.00  0.00     0.007 C 
ENDBRANCH  13  15
ENDBRANCH  10  13
ENDBRANCH   8   9
ENDBRANCH   1   8
BRANCH   3  17
HETATM   17  N   UNL     1     -37.817 -50.669  11.881  1.00  0.00    -0.114 N 
HETATM   18  O   UNL     1     -37.141 -50.064  11.038  1.00  0.00    -0.532 OA
HETATM   19  O   UNL     1     -37.390 -51.585  12.598  1.00  0.00    -0.532 OA
ENDBRANCH   3  17
BRANCH   5  20
HETATM   20  C   UNL     1     -41.606 -47.803  10.444  1.00  0.00     0.255 C 
HETATM   21  O   UNL     1     -41.265 -46.630  10.546  1.00  0.00    -0.268 OA
HETATM   22  N   UNL     1     -42.487 -48.185   9.484  1.00  0.00    -0.366 N 
HETATM   23  H   UNL     1     -42.778 -49.151   9.362  1.00  0.00     0.159 HD
HETATM   24  H   UNL     1     -42.846 -47.483   8.849  1.00  0.00     0.159 HD
ENDBRANCH   5  20
TORSDOF 6
ENDMDL
MODEL 5
REMARK VINA RESULT:      -5.8      2.511      5.034
REMARK  6 active torsions:
REMARK  status: ('A' for Active; 'I' for Inactive)
REMARK    1  A    between atoms: C_2  and  C_3 
REMARK    2  A    between atoms: C_3  and  N_5 
REMARK       I    between atoms: N_5  and  C_6 
REMARK    3  A    between atoms: C_6  and  C_8 
REMARK    4  A    between atoms: C_8  and  N_9 
REMARK    5  A    between atoms: C_11  and  N_19 
REMARK    6  A    between atoms: C_13  and  C_14 
REMARK       I    between atoms: C_14  and  N_16 
ROOT
HETATM    1  N   UNL     1     -41.414 -52.763  12.775  1.00  0.00    -0.313 N 
HETATM    2  C   UNL     1     -42.733 -53.188  12.885  1.00  0.00     0.130 A 
HETATM    3  C   UNL     1     -43.076 -54.116  13.792  1.00  0.00     0.119 A 
HETATM    4  C   UNL     1     -42.076 -54.683  14.669  1.00  0.00     0.060 A 
HETATM    5  C   UNL     1     -40.784 -54.307  14.589  1.00  0.00     0.102 A 
HETATM    6  C   UNL     1     -40.384 -53.288  13.561  1.00  0.00     0.263 A 
HETATM    7  O   UNL     1     -39.207 -52.958  13.412  1.00  0.00    -0.267 OA
ENDROOT
BRANCH   1   8
HETATM    8  C   UNL     1     -41.058 -51.820  11.716  1.00  0.00     0.234 C 
BRANCH   8   9
HETATM    9  C   UNL     1     -41.316 -50.397  12.207  1.00  0.00     0.236 C 
HETATM   10  N   UNL     1     -41.849 -49.554  11.253  1.00  0.00    -0.355 N 
HETATM   11  H   UNL     1     -42.240 -49.976  10.414  1.00  0.00     0.162 HD
HETATM   12  O   UNL     1     -41.128 -50.069  13.376  1.00  0.00    -0.272 OA
BRANCH  10  13
HETATM   13  C   UNL     1     -42.172 -48.164  11.550  1.00  0.00     0.080 C 
HETATM   14  C   UNL     1     -43.531 -47.786  10.960  1.00  0.00     0.032 C 
BRANCH  13  15
HETATM   15  C   UNL     1     -41.079 -47.223  11.023  1.00  0.00     0.020 C 
HETATM   16  C   UNL     1     -40.225 -46.629  12.135  1.00  0.00     0.007 C 
ENDBRANCH  13  15
ENDBRANCH  10  13
ENDBRANCH   8   9
ENDBRANCH   1   8
BRANCH   3  17
HETATM   17  N   UNL     1     -44.479 -54.532  13.851  1.00  0.00    -0.114 N 
HETATM   18  O   UNL     1     -44.911 -54.901  14.951  1.00  0.00    -0.532 OA
HETATM   19  O   UNL     1     -45.151 -54.487  12.811  1.00  0.00    -0.532 OA
ENDBRANCH   3  17
BRANCH   5  20
HETATM   20  C   UNL     1     -39.828 -54.950  15.532  1.00  0.00     0.255 C 
HETATM   21  O   UNL     1     -40.121 -55.223  16.690  1.00  0.00    -0.268 OA
HETATM   22  N   UNL     1     -38.589 -55.228  15.050  1.00  0.00    -0.366 N 
HETATM   23  H   UNL     1     -38.319 -55.030  14.090  1.00  0.00     0.159 HD
HETATM   24  H   UNL     1     -37.920 -55.675  15.664  1.00  0.00     0.159 HD
ENDBRANCH   5  20
TORSDOF 6
ENDMDL
MODEL 6
REMARK VINA RESULT:      -5.8      2.611      4.409
REMARK  6 active torsions:
REMARK  status: ('A' for Active; 'I' for Inactive)
REMARK    1  A    between atoms: C_2  and  C_3 
REMARK    2  A    between atoms: C_3  and  N_5 
REMARK       I    between atoms: N_5  and  C_6 
REMARK    3  A    between atoms: C_6  and  C_8 
REMARK    4  A    between atoms: C_8  and  N_9 
REMARK    5  A    between atoms: C_11  and  N_19 
REMARK    6  A    between atoms: C_13  and  C_14 
REMARK       I    between atoms: C_14  and  N_16 
ROOT
HETATM    1  N   UNL     1     -41.692 -53.395  12.839  1.00  0.00    -0.313 N 
HETATM    2  C   UNL     1     -40.729 -53.873  13.720  1.00  0.00     0.130 A 
HETATM    3  C   UNL     1     -41.088 -54.571  14.808  1.00  0.00     0.119 A 
HETATM    4  C   UNL     1     -42.484 -54.838  15.076  1.00  0.00     0.060 A 
HETATM    5  C   UNL     1     -43.450 -54.385  14.253  1.00  0.00     0.102 A 
HETATM    6  C   UNL     1     -43.062 -53.581  13.046  1.00  0.00     0.263 A 
HETATM    7  O   UNL     1     -43.913 -53.096  12.299  1.00  0.00    -0.267 OA
ENDROOT
BRANCH   1   8
HETATM    8  C   UNL     1     -41.274 -52.561  11.714  1.00  0.00     0.234 C 
BRANCH   8   9
HETATM    9  C   UNL     1     -41.151 -51.113  12.185  1.00  0.00     0.236 C 
HETATM   10  N   UNL     1     -42.286 -50.352  11.989  1.00  0.00    -0.355 N 
HETATM   11  H   UNL     1     -43.154 -50.842  11.785  1.00  0.00     0.162 HD
HETATM   12  O   UNL     1     -40.144 -50.699  12.754  1.00  0.00    -0.272 OA
BRANCH  10  13
HETATM   13  C   UNL     1     -42.352 -48.953  12.390  1.00  0.00     0.080 C 
HETATM   14  C   UNL     1     -43.023 -48.813  13.757  1.00  0.00     0.032 C 
BRANCH  13  15
HETATM   15  C   UNL     1     -43.097 -48.117  11.339  1.00  0.00     0.020 C 
HETATM   16  C   UNL     1     -42.278 -47.893  10.074  1.00  0.00     0.007 C 
ENDBRANCH  13  15
ENDBRANCH  10  13
ENDBRANCH   8   9
ENDBRANCH   1   8
BRANCH   3  17
HETATM   17  N   UNL     1     -40.029 -55.037  15.706  1.00  0.00    -0.114 N 
HETATM   18  O   UNL     1     -39.038 -55.565  15.182  1.00  0.00    -0.532 OA
HETATM   19  O   UNL     1     -40.174 -54.874  16.925  1.00  0.00    -0.532 OA
ENDBRANCH   3  17
BRANCH   5  20
HETATM   20  C   UNL     1     -44.859 -54.706  14.615  1.00  0.00     0.255 C 
HETATM   21  O   UNL     1     -45.295 -54.581  15.754  1.00  0.00    -0.268 OA
HETATM   22  N   UNL     1     -45.659 -55.155  13.614  1.00  0.00    -0.366 N 
HETATM   23  H   UNL     1     -45.333 -55.254  12.657  1.00  0.00     0.159 HD
HETATM   24  H   UNL     1     -46.625 -55.372  13.827  1.00  0.00     0.159 HD
ENDBRANCH   5  20
TORSDOF 6
ENDMDL
MODEL 7
REMARK VINA RESULT:      -5.7      4.124      5.714
REMARK  6 active torsions:
REMARK  status: ('A' for Active; 'I' for Inactive)
REMARK    1  A    between atoms: C_2  and  C_3 
REMARK    2  A    between atoms: C_3  and  N_5 
REMARK       I    between atoms: N_5  and  C_6 
REMARK    3  A    between atoms: C_6  and  C_8 
REMARK    4  A    between atoms: C_8  and  N_9 
REMARK    5  A    between atoms: C_11  and  N_19 
REMARK    6  A    between atoms: C_13  and  C_14 
REMARK       I    between atoms: C_14  and  N_16 
ROOT
HETATM    1  N   UNL     1     -41.762 -53.416  12.904  1.00  0.00    -0.313 N 
HETATM    2  C   UNL     1     -40.811 -53.847  13.821  1.00  0.00     0.130 A 
HETATM    3  C   UNL     1     -41.182 -54.524  14.919  1.00  0.00     0.119 A 
HETATM    4  C   UNL     1     -42.577 -54.816  15.159  1.00  0.00     0.060 A 
HETATM    5  C   UNL     1     -43.533 -54.408  14.302  1.00  0.00     0.102 A 
HETATM    6  C   UNL     1     -43.133 -53.627  13.082  1.00  0.00     0.263 A 
HETATM    7  O   UNL     1     -43.976 -53.183  12.302  1.00  0.00    -0.267 OA
ENDROOT
BRANCH   1   8
HETATM    8  C   UNL     1     -41.335 -52.602  11.767  1.00  0.00     0.234 C 
BRANCH   8   9
HETATM    9  C   UNL     1     -40.676 -51.326  12.286  1.00  0.00     0.236 C 
HETATM   10  N   UNL     1     -39.340 -51.204  11.965  1.00  0.00    -0.355 N 
HETATM   11  H   UNL     1     -38.970 -51.814  11.239  1.00  0.00     0.162 HD
HETATM   12  O   UNL     1     -41.316 -50.458  12.874  1.00  0.00    -0.272 OA
BRANCH  10  13
HETATM   13  C   UNL     1     -38.555 -50.044  12.366  1.00  0.00     0.080 C 
HETATM   14  C   UNL     1     -37.455 -49.755  11.345  1.00  0.00     0.032 C 
BRANCH  13  15
HETATM   15  C   UNL     1     -37.949 -50.249  13.763  1.00  0.00     0.020 C 
HETATM   16  C   UNL     1     -37.458 -48.950  14.390  1.00  0.00     0.007 C 
ENDBRANCH  13  15
ENDBRANCH  10  13
ENDBRANCH   8   9
ENDBRANCH   1   8
BRANCH   3  17
HETATM   17  N   UNL     1     -40.134 -54.941  15.854  1.00  0.00    -0.114 N 
HETATM   18  O   UNL     1     -40.203 -54.501  17.010  1.00  0.00    -0.532 OA
HETATM   19  O   UNL     1     -39.251 -55.708  15.446  1.00  0.00    -0.532 OA
ENDBRANCH   3  17
BRANCH   5  20
HETATM   20  C   UNL     1     -44.942 -54.752  14.637  1.00  0.00     0.255 C 
HETATM   21  O   UNL     1     -45.417 -54.583  15.755  1.00  0.00    -0.268 OA
HETATM   22  N   UNL     1     -45.699 -55.273  13.638  1.00  0.00    -0.366 N 
HETATM   23  H   UNL     1     -45.340 -55.411  12.696  1.00  0.00     0.159 HD
HETATM   24  H   UNL     1     -46.664 -55.507  13.832  1.00  0.00     0.159 HD
ENDBRANCH   5  20
TORSDOF 6
ENDMDL
MODEL 8
REMARK VINA RESULT:      -5.7      4.051      6.401
REMARK  6 active torsions:
REMARK  status: ('A' for Active; 'I' for Inactive)
REMARK    1  A    between atoms: C_2  and  C_3 
REMARK    2  A    between atoms: C_3  and  N_5 
REMARK       I    between atoms: N_5  and  C_6 
REMARK    3  A    between atoms: C_6  and  C_8 
REMARK    4  A    between atoms: C_8  and  N_9 
REMARK    5  A    between atoms: C_11  and  N_19 
REMARK    6  A    between atoms: C_13  and  C_14 
REMARK       I    between atoms: C_14  and  N_16 
ROOT
HETATM    1  N   UNL     1     -41.341 -53.602  13.157  1.00  0.00    -0.313 N 
HETATM    2  C   UNL     1     -42.645 -53.880  13.549  1.00  0.00     0.130 A 
HETATM    3  C   UNL     1     -42.885 -54.564  14.679  1.00  0.00     0.119 A 
HETATM    4  C   UNL     1     -41.788 -55.019  15.503  1.00  0.00     0.060 A 
HETATM    5  C   UNL     1     -40.508 -54.779  15.155  1.00  0.00     0.102 A 
HETATM    6  C   UNL     1     -40.227 -54.036  13.880  1.00  0.00     0.263 A 
HETATM    7  O   UNL     1     -39.073 -53.847  13.492  1.00  0.00    -0.267 OA
ENDROOT
BRANCH   1   8
HETATM    8  C   UNL     1     -41.111 -52.936  11.876  1.00  0.00     0.234 C 
BRANCH   8   9
HETATM    9  C   UNL     1     -40.771 -51.469  12.130  1.00  0.00     0.236 C 
HETATM   10  N   UNL     1     -39.426 -51.174  12.045  1.00  0.00    -0.355 N 
HETATM   11  H   UNL     1     -38.818 -51.860  11.604  1.00  0.00     0.162 HD
HETATM   12  O   UNL     1     -41.642 -50.624  12.320  1.00  0.00    -0.272 OA
BRANCH  10  13
HETATM   13  C   UNL     1     -38.921 -49.822  12.246  1.00  0.00     0.080 C 
HETATM   14  C   UNL     1     -37.639 -49.597  11.443  1.00  0.00     0.032 C 
BRANCH  13  15
HETATM   15  C   UNL     1     -38.676 -49.543  13.736  1.00  0.00     0.020 C 
HETATM   16  C   UNL     1     -37.857 -50.635  14.414  1.00  0.00     0.007 C 
ENDBRANCH  13  15
ENDBRANCH  10  13
ENDBRANCH   8   9
ENDBRANCH   1   8
BRANCH   3  17
HETATM   17  N   UNL     1     -44.280 -54.837  15.032  1.00  0.00    -0.114 N 
HETATM   18  O   UNL     1     -44.658 -54.474  16.154  1.00  0.00    -0.532 OA
HETATM   19  O   UNL     1     -45.000 -55.404  14.197  1.00  0.00    -0.532 OA
ENDBRANCH   3  17
BRANCH   5  20
HETATM   20  C   UNL     1     -39.447 -55.291  16.066  1.00  0.00     0.255 C 
HETATM   21  O   UNL     1     -39.329 -56.478  16.345  1.00  0.00    -0.268 OA
HETATM   22  N   UNL     1     -38.596 -54.371  16.590  1.00  0.00    -0.366 N 
HETATM   23  H   UNL     1     -38.657 -53.381  16.366  1.00  0.00     0.159 HD
HETATM   24  H   UNL     1     -37.858 -54.689  17.205  1.00  0.00     0.159 HD
ENDBRANCH   5  20
TORSDOF 6
ENDMDL
MODEL 9
REMARK VINA RESULT:      -5.6      1.880      2.488
REMARK  6 active torsions:
REMARK  status: ('A' for Active; 'I' for Inactive)
REMARK    1  A    between atoms: C_2  and  C_3 
REMARK    2  A    between atoms: C_3  and  N_5 
REMARK       I    between atoms: N_5  and  C_6 
REMARK    3  A    between atoms: C_6  and  C_8 
REMARK    4  A    between atoms: C_8  and  N_9 
REMARK    5  A    between atoms: C_11  and  N_19 
REMARK    6  A    between atoms: C_13  and  C_14 
REMARK       I    between atoms: C_14  and  N_16 
ROOT
HETATM    1  N   UNL     1     -42.993 -50.596  12.969  1.00  0.00    -0.313 N 
HETATM    2  C   UNL     1     -41.754 -51.225  13.010  1.00  0.00     0.130 A 
HETATM    3  C   UNL     1     -41.671 -52.560  13.114  1.00  0.00     0.119 A 
HETATM    4  C   UNL     1     -42.873 -53.362  13.183  1.00  0.00     0.060 A 
HETATM    5  C   UNL     1     -44.093 -52.793  13.156  1.00  0.00     0.102 A 
HETATM    6  C   UNL     1     -44.198 -51.297  13.064  1.00  0.00     0.263 A 
HETATM    7  O   UNL     1     -45.291 -50.729  13.097  1.00  0.00    -0.267 OA
ENDROOT
BRANCH   1   8
HETATM    8  C   UNL     1     -43.047 -49.135  12.947  1.00  0.00     0.234 C 
BRANCH   8   9
HETATM    9  C   UNL     1     -42.874 -48.650  11.510  1.00  0.00     0.236 C 
HETATM   10  N   UNL     1     -43.968 -47.982  10.998  1.00  0.00    -0.355 N 
HETATM   11  H   UNL     1     -44.676 -47.662  11.655  1.00  0.00     0.162 HD
HETATM   12  O   UNL     1     -41.816 -48.788  10.901  1.00  0.00    -0.272 OA
BRANCH  10  13
HETATM   13  C   UNL     1     -43.975 -47.438   9.647  1.00  0.00     0.080 C 
HETATM   14  C   UNL     1     -43.075 -46.206   9.554  1.00  0.00     0.032 C 
BRANCH  13  15
HETATM   15  C   UNL     1     -45.404 -47.093   9.202  1.00  0.00     0.020 C 
HETATM   16  C   UNL     1     -46.240 -48.328   8.890  1.00  0.00     0.007 C 
ENDBRANCH  13  15
ENDBRANCH  10  13
ENDBRANCH   8   9
ENDBRANCH   1   8
BRANCH   3  17
HETATM   17  N   UNL     1     -40.338 -53.163  13.166  1.00  0.00    -0.114 N 
HETATM   18  O   UNL     1     -39.371 -52.410  12.984  1.00  0.00    -0.532 OA
HETATM   19  O   UNL     1     -40.248 -54.378  13.393  1.00  0.00    -0.532 OA
ENDBRANCH   3  17
BRANCH   5  20
HETATM   20  C   UNL     1     -45.271 -53.701  13.236  1.00  0.00     0.255 C 
HETATM   21  O   UNL     1     -45.223 -54.879  12.901  1.00  0.00    -0.268 OA
HETATM   22  N   UNL     1     -46.427 -53.162  13.702  1.00  0.00    -0.366 N 
HETATM   23  H   UNL     1     -46.496 -52.194  14.003  1.00  0.00     0.159 HD
HETATM   24  H   UNL     1     -47.242 -53.757  13.778  1.00  0.00     0.159 HD
ENDBRANCH   5  20
TORSDOF 6
ENDMDL
