MODEL 1
REMARK VINA RESULT:      -4.9      0.000      0.000
REMARK  1 active torsions:
REMARK  status: ('A' for Active; 'I' for Inactive)
REMARK    1  A    between atoms: N_6  and  C_9 
ROOT
HETATM    1  C   UNL     1     -47.381 -51.620  11.301  1.00  0.00     0.070 C 
HETATM    2  C   UNL     1     -46.481 -51.693  12.476  1.00  0.00     0.024 A 
HETATM    3  C   UNL     1     -46.800 -51.430  13.824  1.00  0.00     0.052 A 
HETATM    4  C   UNL     1     -45.624 -51.619  14.521  1.00  0.00     0.027 A 
HETATM    5  C   UNL     1     -45.343 -51.462  15.969  1.00  0.00     0.070 C 
HETATM    6  N   UNL     1     -44.679 -51.959  13.573  1.00  0.00    -0.290 N 
HETATM    7  N   UNL     1     -45.196 -52.030  12.331  1.00  0.00    -0.303 N 
ATOM      8  HN  UNL     1     -44.713 -52.284  11.469  1.00  0.00     0.186 HD
ENDROOT
BRANCH   6   9
HETATM    9  C   UNL     1     -43.237 -52.074  13.793  1.00  0.00     0.136 C 
HETATM   10  C   UNL     1     -42.582 -50.691  13.914  1.00  0.00     0.031 C 
HETATM   11  C   UNL     1     -42.162 -50.140  12.555  1.00  0.00     0.032 C 
HETATM   12  C   UNL     1     -41.244 -51.126  11.844  1.00  0.00     0.270 C 
HETATM   13  N   UNL     1     -41.919 -52.394  11.601  1.00  0.00     0.085 N 
HETATM   14  C   UNL     1     -42.473 -53.002  12.817  1.00  0.00     0.296 C 
HETATM   15  H   UNL     1     -41.289 -53.048  11.140  1.00  0.00     0.315 HD
ENDBRANCH   6   9
TORSDOF 1
ENDMDL
MODEL 2
REMARK VINA RESULT:      -4.9      5.200      7.265
REMARK  1 active torsions:
REMARK  status: ('A' for Active; 'I' for Inactive)
REMARK    1  A    between atoms: N_6  and  C_9 
ROOT
HETATM    1  C   UNL     1     -38.632 -44.548   8.983  1.00  0.00     0.070 C 
HETATM    2  C   UNL     1     -39.585 -44.981  10.031  1.00  0.00     0.024 A 
HETATM    3  C   UNL     1     -40.333 -44.168  10.907  1.00  0.00     0.052 A 
HETATM    4  C   UNL     1     -41.049 -45.043  11.697  1.00  0.00     0.027 A 
HETATM    5  C   UNL     1     -41.988 -44.765  12.811  1.00  0.00     0.070 C 
HETATM    6  N   UNL     1     -40.688 -46.308  11.275  1.00  0.00    -0.290 N 
HETATM    7  N   UNL     1     -39.817 -46.279  10.247  1.00  0.00    -0.303 N 
ATOM      8  HN  UNL     1     -39.421 -47.074   9.745  1.00  0.00     0.186 HD
ENDROOT
BRANCH   6   9
HETATM    9  C   UNL     1     -41.036 -47.569  11.930  1.00  0.00     0.136 C 
HETATM   10  C   UNL     1     -39.960 -47.982  12.945  1.00  0.00     0.031 C 
HETATM   11  C   UNL     1     -38.859 -48.815  12.298  1.00  0.00     0.032 C 
HETATM   12  C   UNL     1     -39.454 -50.030  11.597  1.00  0.00     0.270 C 
HETATM   13  N   UNL     1     -40.368 -49.630  10.535  1.00  0.00     0.085 N 
HETATM   14  C   UNL     1     -41.436 -48.733  10.991  1.00  0.00     0.296 C 
HETATM   15  H   UNL     1     -40.769 -50.452  10.087  1.00  0.00     0.315 HD
ENDBRANCH   6   9
TORSDOF 1
ENDMDL
MODEL 3
REMARK VINA RESULT:      -4.6      1.478      1.770
REMARK  1 active torsions:
REMARK  status: ('A' for Active; 'I' for Inactive)
REMARK    1  A    between atoms: N_6  and  C_9 
ROOT
HETATM    1  C   UNL     1     -46.829 -51.925  12.127  1.00  0.00     0.070 C 
HETATM    2  C   UNL     1     -45.662 -52.584  12.759  1.00  0.00     0.024 A 
HETATM    3  C   UNL     1     -45.657 -53.738  13.568  1.00  0.00     0.052 A 
HETATM    4  C   UNL     1     -44.337 -53.932  13.919  1.00  0.00     0.027 A 
HETATM    5  C   UNL     1     -43.727 -54.975  14.779  1.00  0.00     0.070 C 
HETATM    6  N   UNL     1     -43.638 -52.896  13.331  1.00  0.00    -0.290 N 
HETATM    7  N   UNL     1     -44.432 -52.085  12.605  1.00  0.00    -0.303 N 
ATOM      8  HN  UNL     1     -44.155 -51.270  12.058  1.00  0.00     0.186 HD
ENDROOT
BRANCH   6   9
HETATM    9  C   UNL     1     -42.234 -52.558  13.567  1.00  0.00     0.136 C 
HETATM   10  C   UNL     1     -42.063 -51.057  13.841  1.00  0.00     0.031 C 
HETATM   11  C   UNL     1     -41.865 -50.263  12.555  1.00  0.00     0.032 C 
HETATM   12  C   UNL     1     -40.687 -50.818  11.764  1.00  0.00     0.270 C 
HETATM   13  N   UNL     1     -40.916 -52.205  11.380  1.00  0.00     0.085 N 
HETATM   14  C   UNL     1     -41.224 -53.082  12.516  1.00  0.00     0.296 C 
HETATM   15  H   UNL     1     -40.115 -52.566  10.866  1.00  0.00     0.315 HD
ENDBRANCH   6   9
TORSDOF 1
ENDMDL
MODEL 4
REMARK VINA RESULT:      -4.6      1.322      3.100
REMARK  1 active torsions:
REMARK  status: ('A' for Active; 'I' for Inactive)
REMARK    1  A    between atoms: N_6  and  C_9 
ROOT
HETATM    1  C   UNL     1     -45.897 -50.867  16.786  1.00  0.00     0.070 C 
HETATM    2  C   UNL     1     -45.784 -51.257  15.361  1.00  0.00     0.024 A 
HETATM    3  C   UNL     1     -46.808 -51.295  14.393  1.00  0.00     0.052 A 
HETATM    4  C   UNL     1     -46.201 -51.738  13.236  1.00  0.00     0.027 A 
HETATM    5  C   UNL     1     -46.784 -51.997  11.897  1.00  0.00     0.070 C 
HETATM    6  N   UNL     1     -44.878 -51.956  13.568  1.00  0.00    -0.290 N 
HETATM    7  N   UNL     1     -44.611 -51.643  14.852  1.00  0.00    -0.303 N 
ATOM      8  HN  UNL     1     -43.710 -51.692  15.329  1.00  0.00     0.186 HD
ENDROOT
BRANCH   6   9
HETATM    9  C   UNL     1     -43.873 -52.608  12.729  1.00  0.00     0.136 C 
HETATM   10  C   UNL     1     -43.817 -54.117  13.002  1.00  0.00     0.031 C 
HETATM   11  C   UNL     1     -42.850 -54.455  14.132  1.00  0.00     0.032 C 
HETATM   12  C   UNL     1     -41.465 -53.896  13.831  1.00  0.00     0.270 C 
HETATM   13  N   UNL     1     -41.497 -52.444  13.715  1.00  0.00     0.085 N 
HETATM   14  C   UNL     1     -42.467 -51.959  12.726  1.00  0.00     0.296 C 
HETATM   15  H   UNL     1     -40.568 -52.086  13.499  1.00  0.00     0.315 HD
ENDBRANCH   6   9
TORSDOF 1
ENDMDL
MODEL 5
REMARK VINA RESULT:      -4.5      1.969      4.716
REMARK  1 active torsions:
REMARK  status: ('A' for Active; 'I' for Inactive)
REMARK    1  A    between atoms: N_6  and  C_9 
ROOT
HETATM    1  C   UNL     1     -42.427 -55.625  15.880  1.00  0.00     0.070 C 
HETATM    2  C   UNL     1     -42.474 -54.648  14.767  1.00  0.00     0.024 A 
HETATM    3  C   UNL     1     -41.399 -54.179  13.985  1.00  0.00     0.052 A 
HETATM    4  C   UNL     1     -41.955 -53.278  13.101  1.00  0.00     0.027 A 
HETATM    5  C   UNL     1     -41.307 -52.450  12.055  1.00  0.00     0.070 C 
HETATM    6  N   UNL     1     -43.302 -53.240  13.405  1.00  0.00    -0.290 N 
HETATM    7  N   UNL     1     -43.630 -54.088  14.400  1.00  0.00    -0.303 N 
ATOM      8  HN  UNL     1     -44.558 -54.263  14.788  1.00  0.00     0.186 HD
ENDROOT
BRANCH   6   9
HETATM    9  C   UNL     1     -44.282 -52.295  12.871  1.00  0.00     0.136 C 
HETATM   10  C   UNL     1     -44.342 -51.018  13.721  1.00  0.00     0.031 C 
HETATM   11  C   UNL     1     -45.339 -51.145  14.868  1.00  0.00     0.032 C 
HETATM   12  C   UNL     1     -46.716 -51.520  14.336  1.00  0.00     0.270 C 
HETATM   13  N   UNL     1     -46.685 -52.806  13.652  1.00  0.00     0.085 N 
HETATM   14  C   UNL     1     -45.689 -52.870  12.576  1.00  0.00     0.296 C 
HETATM   15  H   UNL     1     -47.608 -53.035  13.289  1.00  0.00     0.315 HD
ENDBRANCH   6   9
TORSDOF 1
ENDMDL
MODEL 6
REMARK VINA RESULT:      -4.3      4.940      6.960
REMARK  1 active torsions:
REMARK  status: ('A' for Active; 'I' for Inactive)
REMARK    1  A    between atoms: N_6  and  C_9 
ROOT
HETATM    1  C   UNL     1     -37.367 -50.390  11.345  1.00  0.00     0.070 C 
HETATM    2  C   UNL     1     -38.068 -49.306  12.072  1.00  0.00     0.024 A 
HETATM    3  C   UNL     1     -37.848 -48.872  13.396  1.00  0.00     0.052 A 
HETATM    4  C   UNL     1     -38.759 -47.858  13.604  1.00  0.00     0.027 A 
HETATM    5  C   UNL     1     -39.011 -47.043  14.818  1.00  0.00     0.070 C 
HETATM    6  N   UNL     1     -39.475 -47.751  12.428  1.00  0.00    -0.290 N 
HETATM    7  N   UNL     1     -39.046 -48.611  11.483  1.00  0.00    -0.303 N 
ATOM      8  HN  UNL     1     -39.392 -48.710  10.529  1.00  0.00     0.186 HD
ENDROOT
BRANCH   6   9
HETATM    9  C   UNL     1     -40.678 -46.946  12.219  1.00  0.00     0.136 C 
HETATM   10  C   UNL     1     -41.923 -47.656  12.768  1.00  0.00     0.031 C 
HETATM   11  C   UNL     1     -42.559 -48.573  11.728  1.00  0.00     0.032 C 
HETATM   12  C   UNL     1     -42.881 -47.794  10.459  1.00  0.00     0.270 C 
HETATM   13  N   UNL     1     -41.674 -47.241   9.860  1.00  0.00     0.085 N 
HETATM   14  C   UNL     1     -40.894 -46.408  10.783  1.00  0.00     0.296 C 
HETATM   15  H   UNL     1     -41.907 -46.710   9.022  1.00  0.00     0.315 HD
ENDBRANCH   6   9
TORSDOF 1
ENDMDL
MODEL 7
REMARK VINA RESULT:      -4.3      3.681      6.035
REMARK  1 active torsions:
REMARK  status: ('A' for Active; 'I' for Inactive)
REMARK    1  A    between atoms: N_6  and  C_9 
ROOT
HETATM    1  C   UNL     1     -37.037 -50.058  10.640  1.00  0.00     0.070 C 
HETATM    2  C   UNL     1     -38.001 -49.979  11.763  1.00  0.00     0.024 A 
HETATM    3  C   UNL     1     -37.946 -49.132  12.889  1.00  0.00     0.052 A 
HETATM    4  C   UNL     1     -39.056 -49.454  13.643  1.00  0.00     0.027 A 
HETATM    5  C   UNL     1     -39.508 -48.910  14.946  1.00  0.00     0.070 C 
HETATM    6  N   UNL     1     -39.694 -50.467  12.954  1.00  0.00    -0.290 N 
HETATM    7  N   UNL     1     -39.072 -50.776  11.799  1.00  0.00    -0.303 N 
ATOM      8  HN  UNL     1     -39.358 -51.467  11.104  1.00  0.00     0.186 HD
ENDROOT
BRANCH   6   9
HETATM    9  C   UNL     1     -40.814 -51.271  13.442  1.00  0.00     0.136 C 
HETATM   10  C   UNL     1     -40.342 -52.322  14.457  1.00  0.00     0.031 C 
HETATM   11  C   UNL     1     -39.923 -53.621  13.777  1.00  0.00     0.032 C 
HETATM   12  C   UNL     1     -41.057 -54.158  12.913  1.00  0.00     0.270 C 
HETATM   13  N   UNL     1     -41.406 -53.216  11.858  1.00  0.00     0.085 N 
HETATM   14  C   UNL     1     -41.738 -51.876  12.357  1.00  0.00     0.296 C 
HETATM   15  H   UNL     1     -42.175 -53.581  11.299  1.00  0.00     0.315 HD
ENDBRANCH   6   9
TORSDOF 1
ENDMDL
MODEL 8
REMARK VINA RESULT:      -4.0      3.439      5.298
REMARK  1 active torsions:
REMARK  status: ('A' for Active; 'I' for Inactive)
REMARK    1  A    between atoms: N_6  and  C_9 
ROOT
HETATM    1  C   UNL     1     -44.169 -50.552  13.817  1.00  0.00     0.070 C 
HETATM    2  C   UNL     1     -43.016 -50.175  12.966  1.00  0.00     0.024 A 
HETATM    3  C   UNL     1     -41.689 -50.644  13.055  1.00  0.00     0.052 A 
HETATM    4  C   UNL     1     -41.000 -49.983  12.060  1.00  0.00     0.027 A 
HETATM    5  C   UNL     1     -39.565 -50.052  11.691  1.00  0.00     0.070 C 
HETATM    6  N   UNL     1     -41.925 -49.155  11.452  1.00  0.00    -0.290 N 
HETATM    7  N   UNL     1     -43.158 -49.284  11.981  1.00  0.00    -0.303 N 
ATOM      8  HN  UNL     1     -44.011 -48.805  11.693  1.00  0.00     0.186 HD
ENDROOT
BRANCH   6   9
HETATM    9  C   UNL     1     -41.636 -48.115  10.465  1.00  0.00     0.136 C 
HETATM   10  C   UNL     1     -40.775 -46.998  11.071  1.00  0.00     0.031 C 
HETATM   11  C   UNL     1     -41.627 -45.912  11.720  1.00  0.00     0.032 C 
HETATM   12  C   UNL     1     -42.630 -45.355  10.718  1.00  0.00     0.270 C 
HETATM   13  N   UNL     1     -43.541 -46.392  10.252  1.00  0.00     0.085 N 
HETATM   14  C   UNL     1     -42.855 -47.561   9.688  1.00  0.00     0.296 C 
HETATM   15  H   UNL     1     -44.195 -46.008   9.571  1.00  0.00     0.315 HD
ENDBRANCH   6   9
TORSDOF 1
ENDMDL
MODEL 9
REMARK VINA RESULT:      -3.9      2.542      4.971
REMARK  1 active torsions:
REMARK  status: ('A' for Active; 'I' for Inactive)
REMARK    1  A    between atoms: N_6  and  C_9 
ROOT
HETATM    1  C   UNL     1     -42.496 -53.004  17.817  1.00  0.00     0.070 C 
HETATM    2  C   UNL     1     -42.406 -53.418  16.397  1.00  0.00     0.024 A 
HETATM    3  C   UNL     1     -41.241 -53.593  15.622  1.00  0.00     0.052 A 
HETATM    4  C   UNL     1     -41.688 -53.963  14.370  1.00  0.00     0.027 A 
HETATM    5  C   UNL     1     -40.920 -54.256  13.136  1.00  0.00     0.070 C 
HETATM    6  N   UNL     1     -43.067 -53.971  14.453  1.00  0.00    -0.290 N 
HETATM    7  N   UNL     1     -43.511 -53.664  15.688  1.00  0.00    -0.303 N 
ATOM      8  HN  UNL     1     -44.478 -53.628  16.010  1.00  0.00     0.186 HD
ENDROOT
BRANCH   6   9
HETATM    9  C   UNL     1     -43.999 -54.116  13.335  1.00  0.00     0.136 C 
HETATM   10  C   UNL     1     -44.109 -52.813  12.531  1.00  0.00     0.031 C 
HETATM   11  C   UNL     1     -45.186 -51.890  13.091  1.00  0.00     0.032 C 
HETATM   12  C   UNL     1     -46.525 -52.613  13.156  1.00  0.00     0.270 C 
HETATM   13  N   UNL     1     -46.455 -53.772  14.037  1.00  0.00     0.085 N 
HETATM   14  C   UNL     1     -45.386 -54.712  13.681  1.00  0.00     0.296 C 
HETATM   15  H   UNL     1     -47.352 -54.254  14.058  1.00  0.00     0.315 HD
ENDBRANCH   6   9
TORSDOF 1
ENDMDL
