MODEL 1
REMARK VINA RESULT:      -5.4      0.000      0.000
REMARK  4 active torsions:
REMARK  status: ('A' for Active; 'I' for Inactive)
REMARK    1  A    between atoms: C_2  and  C_3 
REMARK    2  A    between atoms: C_3  and  N_4 
REMARK       I    between atoms: N_4  and  C_5 
REMARK    3  A    between atoms: C_5  and  C_7 
REMARK    4  A    between atoms: C_13  and  N_14 
ROOT
HETATM    1  C   UNL     1     -42.047 -46.913  10.590  1.00  0.00     0.075 A 
HETATM    2  C   UNL     1     -41.834 -48.306  10.537  1.00  0.00     0.022 A 
HETATM    3  C   UNL     1     -40.722 -48.870  11.144  1.00  0.00     0.018 A 
HETATM    4  C   UNL     1     -39.843 -48.017  11.767  1.00  0.00     0.089 A 
HETATM    5  N   UNL     1     -40.050 -46.690  11.877  1.00  0.00    -0.352 N 
ATOM      6  HN  UNL     1     -39.373 -46.116  12.379  1.00  0.00     0.166 HD
HETATM    7  C   UNL     1     -41.154 -46.105  11.326  1.00  0.00     0.119 A 
ENDROOT
BRANCH   1   8
HETATM    8  C   UNL     1     -43.098 -46.378   9.683  1.00  0.00     0.255 C 
HETATM    9  N   UNL     1     -44.394 -46.857   9.833  1.00  0.00    -0.357 N 
HETATM   10  H   UNL     1     -44.623 -47.498  10.580  1.00  0.00     0.162 HD
HETATM   11  O   UNL     1     -42.810 -45.584   8.796  1.00  0.00    -0.268 OA
BRANCH   9  12
HETATM   12  C   UNL     1     -45.450 -46.311   8.999  1.00  0.00     0.122 C 
BRANCH  12  13
HETATM   13  C   UNL     1     -46.770 -47.072   9.074  1.00  0.00     0.015 C 
HETATM   14  C   UNL     1     -46.623 -48.556   8.769  1.00  0.00     0.006 C 
ENDBRANCH  12  13
ENDBRANCH   9  12
ENDBRANCH   1   8
BRANCH   7  15
HETATM   15  N   UNL     1     -41.307 -44.776  11.682  1.00  0.00    -0.362 N 
HETATM   16  C   UNL     1     -42.248 -44.476  12.784  1.00  0.00     0.150 C 
HETATM   17  C   UNL     1     -42.840 -43.066  12.615  1.00  0.00     0.187 C 
HETATM   18  O   UNL     1     -41.819 -42.064  12.481  1.00  0.00    -0.388 OA
HETATM   19  C   UNL     1     -40.998 -42.358  11.342  1.00  0.00     0.187 C 
HETATM   20  C   UNL     1     -40.305 -43.725  11.476  1.00  0.00     0.150 C 
ENDBRANCH   7  15
TORSDOF 4
ENDMDL
MODEL 2
REMARK VINA RESULT:      -5.3      2.040      4.647
REMARK  4 active torsions:
REMARK  status: ('A' for Active; 'I' for Inactive)
REMARK    1  A    between atoms: C_2  and  C_3 
REMARK    2  A    between atoms: C_3  and  N_4 
REMARK       I    between atoms: N_4  and  C_5 
REMARK    3  A    between atoms: C_5  and  C_7 
REMARK    4  A    between atoms: C_13  and  N_14 
ROOT
HETATM    1  C   UNL     1     -42.364 -47.262  10.296  1.00  0.00     0.075 A 
HETATM    2  C   UNL     1     -43.048 -47.789   9.180  1.00  0.00     0.022 A 
HETATM    3  C   UNL     1     -43.943 -47.002   8.471  1.00  0.00     0.018 A 
HETATM    4  C   UNL     1     -44.145 -45.718   8.916  1.00  0.00     0.089 A 
HETATM    5  N   UNL     1     -43.466 -45.175   9.945  1.00  0.00    -0.352 N 
ATOM      6  HN  UNL     1     -43.641 -44.205  10.207  1.00  0.00     0.166 HD
HETATM    7  C   UNL     1     -42.547 -45.906  10.642  1.00  0.00     0.119 A 
ENDROOT
BRANCH   1   8
HETATM    8  C   UNL     1     -41.649 -48.250  11.149  1.00  0.00     0.255 C 
HETATM    9  N   UNL     1     -40.677 -49.044  10.553  1.00  0.00    -0.357 N 
HETATM   10  H   UNL     1     -40.420 -48.905   9.585  1.00  0.00     0.162 HD
HETATM   11  O   UNL     1     -41.956 -48.392  12.326  1.00  0.00    -0.268 OA
BRANCH   9  12
HETATM   12  C   UNL     1     -39.926 -49.976  11.374  1.00  0.00     0.122 C 
BRANCH  12  13
HETATM   13  C   UNL     1     -38.596 -49.434  11.889  1.00  0.00     0.015 C 
HETATM   14  C   UNL     1     -37.396 -49.955  11.111  1.00  0.00     0.006 C 
ENDBRANCH  12  13
ENDBRANCH   9  12
ENDBRANCH   1   8
BRANCH   7  15
HETATM   15  N   UNL     1     -41.814 -45.154  11.543  1.00  0.00    -0.362 N 
HETATM   16  C   UNL     1     -40.511 -44.627  11.082  1.00  0.00     0.150 C 
HETATM   17  C   UNL     1     -39.550 -44.457  12.271  1.00  0.00     0.187 C 
HETATM   18  O   UNL     1     -40.122 -43.657  13.318  1.00  0.00    -0.388 OA
HETATM   19  C   UNL     1     -41.332 -44.266  13.788  1.00  0.00     0.187 C 
HETATM   20  C   UNL     1     -42.378 -44.397  12.667  1.00  0.00     0.150 C 
ENDBRANCH   7  15
TORSDOF 4
ENDMDL
MODEL 3
REMARK VINA RESULT:      -5.3      4.755      6.697
REMARK  4 active torsions:
REMARK  status: ('A' for Active; 'I' for Inactive)
REMARK    1  A    between atoms: C_2  and  C_3 
REMARK    2  A    between atoms: C_3  and  N_4 
REMARK       I    between atoms: N_4  and  C_5 
REMARK    3  A    between atoms: C_5  and  C_7 
REMARK    4  A    between atoms: C_13  and  N_14 
ROOT
HETATM    1  C   UNL     1     -42.775 -49.214  12.476  1.00  0.00     0.075 A 
HETATM    2  C   UNL     1     -43.464 -48.197  11.783  1.00  0.00     0.022 A 
HETATM    3  C   UNL     1     -42.945 -47.669  10.611  1.00  0.00     0.018 A 
HETATM    4  C   UNL     1     -41.736 -48.160  10.179  1.00  0.00     0.089 A 
HETATM    5  N   UNL     1     -41.084 -49.168  10.792  1.00  0.00    -0.352 N 
ATOM      6  HN  UNL     1     -40.205 -49.507  10.403  1.00  0.00     0.166 HD
HETATM    7  C   UNL     1     -41.585 -49.740  11.926  1.00  0.00     0.119 A 
ENDROOT
BRANCH   1   8
HETATM    8  C   UNL     1     -43.260 -49.514  13.850  1.00  0.00     0.255 C 
HETATM    9  N   UNL     1     -44.087 -50.617  14.024  1.00  0.00    -0.357 N 
HETATM   10  H   UNL     1     -44.295 -51.232  13.249  1.00  0.00     0.162 HD
HETATM   11  O   UNL     1     -42.981 -48.771  14.783  1.00  0.00    -0.268 OA
BRANCH   9  12
HETATM   12  C   UNL     1     -44.529 -50.964  15.362  1.00  0.00     0.122 C 
BRANCH  12  13
HETATM   13  C   UNL     1     -46.028 -51.216  15.486  1.00  0.00     0.015 C 
HETATM   14  C   UNL     1     -46.707 -51.457  14.146  1.00  0.00     0.006 C 
ENDBRANCH  12  13
ENDBRANCH   9  12
ENDBRANCH   1   8
BRANCH   7  15
HETATM   15  N   UNL     1     -40.893 -50.870  12.324  1.00  0.00    -0.362 N 
HETATM   16  C   UNL     1     -41.416 -52.177  11.869  1.00  0.00     0.150 C 
HETATM   17  C   UNL     1     -41.048 -53.282  12.874  1.00  0.00     0.187 C 
HETATM   18  O   UNL     1     -39.636 -53.322  13.140  1.00  0.00    -0.388 OA
HETATM   19  C   UNL     1     -39.206 -52.059  13.666  1.00  0.00     0.187 C 
HETATM   20  C   UNL     1     -39.470 -50.910  12.677  1.00  0.00     0.150 C 
ENDBRANCH   7  15
TORSDOF 4
ENDMDL
MODEL 4
REMARK VINA RESULT:      -5.0      3.770      5.887
REMARK  4 active torsions:
REMARK  status: ('A' for Active; 'I' for Inactive)
REMARK    1  A    between atoms: C_2  and  C_3 
REMARK    2  A    between atoms: C_3  and  N_4 
REMARK       I    between atoms: N_4  and  C_5 
REMARK    3  A    between atoms: C_5  and  C_7 
REMARK    4  A    between atoms: C_13  and  N_14 
ROOT
HETATM    1  C   UNL     1     -39.646 -49.656  11.860  1.00  0.00     0.075 A 
HETATM    2  C   UNL     1     -38.270 -49.566  11.558  1.00  0.00     0.022 A 
HETATM    3  C   UNL     1     -37.359 -50.402  12.186  1.00  0.00     0.018 A 
HETATM    4  C   UNL     1     -37.850 -51.287  13.115  1.00  0.00     0.089 A 
HETATM    5  N   UNL     1     -39.163 -51.429  13.382  1.00  0.00    -0.352 N 
ATOM      6  HN  UNL     1     -39.466 -52.127  14.062  1.00  0.00     0.166 HD
HETATM    7  C   UNL     1     -40.094 -50.651  12.754  1.00  0.00     0.119 A 
ENDROOT
BRANCH   1   8
HETATM    8  C   UNL     1     -40.498 -48.545  11.355  1.00  0.00     0.255 C 
HETATM    9  N   UNL     1     -41.410 -48.829  10.346  1.00  0.00    -0.357 N 
HETATM   10  H   UNL     1     -41.534 -49.777  10.015  1.00  0.00     0.162 HD
HETATM   11  O   UNL     1     -40.353 -47.406  11.782  1.00  0.00    -0.268 OA
BRANCH   9  12
HETATM   12  C   UNL     1     -42.293 -47.778   9.875  1.00  0.00     0.122 C 
BRANCH  12  13
HETATM   13  C   UNL     1     -43.625 -47.694  10.614  1.00  0.00     0.015 C 
HETATM   14  C   UNL     1     -44.811 -47.479   9.685  1.00  0.00     0.006 C 
ENDBRANCH  12  13
ENDBRANCH   9  12
ENDBRANCH   1   8
BRANCH   7  15
HETATM   15  N   UNL     1     -41.397 -51.044  13.005  1.00  0.00    -0.362 N 
HETATM   16  C   UNL     1     -41.700 -52.488  12.899  1.00  0.00     0.150 C 
HETATM   17  C   UNL     1     -43.172 -52.700  12.507  1.00  0.00     0.187 C 
HETATM   18  O   UNL     1     -44.073 -52.017  13.394  1.00  0.00    -0.388 OA
HETATM   19  C   UNL     1     -43.791 -50.611  13.382  1.00  0.00     0.187 C 
HETATM   20  C   UNL     1     -42.354 -50.312  13.843  1.00  0.00     0.150 C 
ENDBRANCH   7  15
TORSDOF 4
ENDMDL
MODEL 5
REMARK VINA RESULT:      -5.0      3.692      5.318
REMARK  4 active torsions:
REMARK  status: ('A' for Active; 'I' for Inactive)
REMARK    1  A    between atoms: C_2  and  C_3 
REMARK    2  A    between atoms: C_3  and  N_4 
REMARK       I    between atoms: N_4  and  C_5 
REMARK    3  A    between atoms: C_5  and  C_7 
REMARK    4  A    between atoms: C_13  and  N_14 
ROOT
HETATM    1  C   UNL     1     -42.702 -48.392  11.741  1.00  0.00     0.075 A 
HETATM    2  C   UNL     1     -43.698 -47.775  10.955  1.00  0.00     0.022 A 
HETATM    3  C   UNL     1     -43.353 -46.837   9.994  1.00  0.00     0.018 A 
HETATM    4  C   UNL     1     -42.021 -46.525   9.867  1.00  0.00     0.089 A 
HETATM    5  N   UNL     1     -41.046 -47.137  10.567  1.00  0.00    -0.352 N 
ATOM      6  HN  UNL     1     -40.073 -46.880  10.404  1.00  0.00     0.166 HD
HETATM    7  C   UNL     1     -41.344 -48.095  11.494  1.00  0.00     0.119 A 
ENDROOT
BRANCH   1   8
HETATM    8  C   UNL     1     -43.185 -49.163  12.919  1.00  0.00     0.255 C 
HETATM    9  N   UNL     1     -43.866 -50.351  12.686  1.00  0.00    -0.357 N 
HETATM   10  H   UNL     1     -43.971 -50.710  11.746  1.00  0.00     0.162 HD
HETATM   11  O   UNL     1     -43.031 -48.727  14.053  1.00  0.00    -0.268 OA
BRANCH   9  12
HETATM   12  C   UNL     1     -44.298 -51.151  13.817  1.00  0.00     0.122 C 
BRANCH  12  13
HETATM   13  C   UNL     1     -45.809 -51.330  13.923  1.00  0.00     0.015 C 
HETATM   14  C   UNL     1     -46.474 -51.611  12.583  1.00  0.00     0.006 C 
ENDBRANCH  12  13
ENDBRANCH   9  12
ENDBRANCH   1   8
BRANCH   7  15
HETATM   15  N   UNL     1     -40.229 -48.746  11.990  1.00  0.00    -0.362 N 
HETATM   16  C   UNL     1     -39.663 -48.244  13.261  1.00  0.00     0.150 C 
HETATM   17  C   UNL     1     -38.153 -48.531  13.327  1.00  0.00     0.187 C 
HETATM   18  O   UNL     1     -37.857 -49.919  13.109  1.00  0.00    -0.388 OA
HETATM   19  C   UNL     1     -38.346 -50.324  11.823  1.00  0.00     0.187 C 
HETATM   20  C   UNL     1     -39.870 -50.141  11.710  1.00  0.00     0.150 C 
ENDBRANCH   7  15
TORSDOF 4
ENDMDL
MODEL 6
REMARK VINA RESULT:      -5.0      3.179      4.353
REMARK  4 active torsions:
REMARK  status: ('A' for Active; 'I' for Inactive)
REMARK    1  A    between atoms: C_2  and  C_3 
REMARK    2  A    between atoms: C_3  and  N_4 
REMARK       I    between atoms: N_4  and  C_5 
REMARK    3  A    between atoms: C_5  and  C_7 
REMARK    4  A    between atoms: C_13  and  N_14 
ROOT
HETATM    1  C   UNL     1     -41.199 -49.647  12.637  1.00  0.00     0.075 A 
HETATM    2  C   UNL     1     -40.339 -50.565  13.276  1.00  0.00     0.022 A 
HETATM    3  C   UNL     1     -39.059 -50.782  12.790  1.00  0.00     0.018 A 
HETATM    4  C   UNL     1     -38.686 -50.091  11.663  1.00  0.00     0.089 A 
HETATM    5  N   UNL     1     -39.467 -49.170  11.066  1.00  0.00    -0.352 N 
ATOM      6  HN  UNL     1     -39.119 -48.668  10.249  1.00  0.00     0.166 HD
HETATM    7  C   UNL     1     -40.720 -48.900  11.540  1.00  0.00     0.119 A 
ENDROOT
BRANCH   1   8
HETATM    8  C   UNL     1     -42.627 -49.691  13.055  1.00  0.00     0.255 C 
HETATM    9  N   UNL     1     -43.326 -50.877  12.866  1.00  0.00    -0.357 N 
HETATM   10  H   UNL     1     -42.856 -51.702  12.518  1.00  0.00     0.162 HD
HETATM   11  O   UNL     1     -43.176 -48.689  13.498  1.00  0.00    -0.268 OA
BRANCH   9  12
HETATM   12  C   UNL     1     -44.703 -50.964  13.317  1.00  0.00     0.122 C 
BRANCH  12  13
HETATM   13  C   UNL     1     -45.467 -52.170  12.780  1.00  0.00     0.015 C 
HETATM   14  C   UNL     1     -46.785 -51.797  12.117  1.00  0.00     0.006 C 
ENDBRANCH  12  13
ENDBRANCH   9  12
ENDBRANCH   1   8
BRANCH   7  15
HETATM   15  N   UNL     1     -41.316 -47.811  10.929  1.00  0.00    -0.362 N 
HETATM   16  C   UNL     1     -40.532 -46.558  10.868  1.00  0.00     0.150 C 
HETATM   17  C   UNL     1     -41.470 -45.338  10.840  1.00  0.00     0.187 C 
HETATM   18  O   UNL     1     -42.441 -45.427   9.785  1.00  0.00    -0.388 OA
HETATM   19  C   UNL     1     -43.231 -46.612   9.952  1.00  0.00     0.187 C 
HETATM   20  C   UNL     1     -42.367 -47.885   9.908  1.00  0.00     0.150 C 
ENDBRANCH   7  15
TORSDOF 4
ENDMDL
MODEL 7
REMARK VINA RESULT:      -5.0      6.563      8.165
REMARK  4 active torsions:
REMARK  status: ('A' for Active; 'I' for Inactive)
REMARK    1  A    between atoms: C_2  and  C_3 
REMARK    2  A    between atoms: C_3  and  N_4 
REMARK       I    between atoms: N_4  and  C_5 
REMARK    3  A    between atoms: C_5  and  C_7 
REMARK    4  A    between atoms: C_13  and  N_14 
ROOT
HETATM    1  C   UNL     1     -42.825 -54.103  14.442  1.00  0.00     0.075 A 
HETATM    2  C   UNL     1     -43.211 -55.059  15.405  1.00  0.00     0.022 A 
HETATM    3  C   UNL     1     -42.254 -55.736  16.144  1.00  0.00     0.018 A 
HETATM    4  C   UNL     1     -40.936 -55.454  15.880  1.00  0.00     0.089 A 
HETATM    5  N   UNL     1     -40.542 -54.509  15.004  1.00  0.00    -0.352 N 
ATOM      6  HN  UNL     1     -39.547 -54.326  14.875  1.00  0.00     0.166 HD
HETATM    7  C   UNL     1     -41.457 -53.793  14.286  1.00  0.00     0.119 A 
ENDROOT
BRANCH   1   8
HETATM    8  C   UNL     1     -43.894 -53.642  13.515  1.00  0.00     0.255 C 
HETATM    9  N   UNL     1     -44.508 -52.424  13.782  1.00  0.00    -0.357 N 
HETATM   10  H   UNL     1     -44.189 -51.842  14.545  1.00  0.00     0.162 HD
HETATM   11  O   UNL     1     -44.255 -54.347  12.581  1.00  0.00    -0.268 OA
BRANCH   9  12
HETATM   12  C   UNL     1     -45.514 -51.924  12.864  1.00  0.00     0.122 C 
BRANCH  12  13
HETATM   13  C   UNL     1     -46.818 -51.494  13.528  1.00  0.00     0.015 C 
HETATM   14  C   UNL     1     -46.724 -51.433  15.046  1.00  0.00     0.006 C 
ENDBRANCH  12  13
ENDBRANCH   9  12
ENDBRANCH   1   8
BRANCH   7  15
HETATM   15  N   UNL     1     -40.900 -52.747  13.572  1.00  0.00    -0.362 N 
HETATM   16  C   UNL     1     -39.694 -52.107  14.142  1.00  0.00     0.150 C 
HETATM   17  C   UNL     1     -39.606 -50.636  13.698  1.00  0.00     0.187 C 
HETATM   18  O   UNL     1     -39.675 -50.497  12.270  1.00  0.00    -0.388 OA
HETATM   19  C   UNL     1     -40.907 -51.051  11.787  1.00  0.00     0.187 C 
HETATM   20  C   UNL     1     -41.030 -52.548  12.124  1.00  0.00     0.150 C 
ENDBRANCH   7  15
TORSDOF 4
ENDMDL
MODEL 8
REMARK VINA RESULT:      -5.0      2.496      5.891
REMARK  4 active torsions:
REMARK  status: ('A' for Active; 'I' for Inactive)
REMARK    1  A    between atoms: C_2  and  C_3 
REMARK    2  A    between atoms: C_3  and  N_4 
REMARK       I    between atoms: N_4  and  C_5 
REMARK    3  A    between atoms: C_5  and  C_7 
REMARK    4  A    between atoms: C_13  and  N_14 
ROOT
HETATM    1  C   UNL     1     -42.631 -46.366  10.648  1.00  0.00     0.075 A 
HETATM    2  C   UNL     1     -43.430 -45.638   9.741  1.00  0.00     0.022 A 
HETATM    3  C   UNL     1     -43.813 -46.203   8.534  1.00  0.00     0.018 A 
HETATM    4  C   UNL     1     -43.364 -47.473   8.260  1.00  0.00     0.089 A 
HETATM    5  N   UNL     1     -42.646 -48.209   9.131  1.00  0.00    -0.352 N 
ATOM      6  HN  UNL     1     -42.369 -49.157   8.879  1.00  0.00     0.166 HD
HETATM    7  C   UNL     1     -42.284 -47.701  10.346  1.00  0.00     0.119 A 
ENDROOT
BRANCH   1   8
HETATM    8  C   UNL     1     -42.045 -45.587  11.772  1.00  0.00     0.255 C 
HETATM    9  N   UNL     1     -40.935 -44.794  11.506  1.00  0.00    -0.357 N 
HETATM   10  H   UNL     1     -40.581 -44.701  10.564  1.00  0.00     0.162 HD
HETATM   11  O   UNL     1     -42.499 -45.691  12.904  1.00  0.00    -0.268 OA
BRANCH   9  12
HETATM   12  C   UNL     1     -40.378 -43.980  12.571  1.00  0.00     0.122 C 
BRANCH  12  13
HETATM   13  C   UNL     1     -38.943 -44.333  12.950  1.00  0.00     0.015 C 
HETATM   14  C   UNL     1     -38.844 -45.569  13.833  1.00  0.00     0.006 C 
ENDBRANCH  12  13
ENDBRANCH   9  12
ENDBRANCH   1   8
BRANCH   7  15
HETATM   15  N   UNL     1     -41.710 -48.639  11.186  1.00  0.00    -0.362 N 
HETATM   16  C   UNL     1     -40.247 -48.559  11.388  1.00  0.00     0.150 C 
HETATM   17  C   UNL     1     -39.673 -49.950  11.709  1.00  0.00     0.187 C 
HETATM   18  O   UNL     1     -40.344 -50.569  12.818  1.00  0.00    -0.388 OA
HETATM   19  C   UNL     1     -41.742 -50.705  12.525  1.00  0.00     0.187 C 
HETATM   20  C   UNL     1     -42.406 -49.340  12.271  1.00  0.00     0.150 C 
ENDBRANCH   7  15
TORSDOF 4
ENDMDL
MODEL 9
REMARK VINA RESULT:      -4.9      5.101      7.069
REMARK  4 active torsions:
REMARK  status: ('A' for Active; 'I' for Inactive)
REMARK    1  A    between atoms: C_2  and  C_3 
REMARK    2  A    between atoms: C_3  and  N_4 
REMARK       I    between atoms: N_4  and  C_5 
REMARK    3  A    between atoms: C_5  and  C_7 
REMARK    4  A    between atoms: C_13  and  N_14 
ROOT
HETATM    1  C   UNL     1     -43.975 -51.103  13.234  1.00  0.00     0.075 A 
HETATM    2  C   UNL     1     -45.369 -51.282  13.364  1.00  0.00     0.022 A 
HETATM    3  C   UNL     1     -45.934 -52.536  13.190  1.00  0.00     0.018 A 
HETATM    4  C   UNL     1     -45.089 -53.570  12.867  1.00  0.00     0.089 A 
HETATM    5  N   UNL     1     -43.750 -53.437  12.790  1.00  0.00    -0.352 N 
ATOM      6  HN  UNL     1     -43.175 -54.251  12.575  1.00  0.00     0.166 HD
HETATM    7  C   UNL     1     -43.153 -52.225  12.994  1.00  0.00     0.119 A 
ENDROOT
BRANCH   1   8
HETATM    8  C   UNL     1     -43.502 -49.694  13.160  1.00  0.00     0.255 C 
HETATM    9  N   UNL     1     -43.486 -49.076  11.916  1.00  0.00    -0.357 N 
HETATM   10  H   UNL     1     -43.848 -49.551  11.100  1.00  0.00     0.162 HD
HETATM   11  O   UNL     1     -43.088 -49.123  14.162  1.00  0.00    -0.268 OA
BRANCH   9  12
HETATM   12  C   UNL     1     -43.083 -47.685  11.824  1.00  0.00     0.122 C 
BRANCH  12  13
HETATM   13  C   UNL     1     -43.296 -47.056  10.450  1.00  0.00     0.015 C 
HETATM   14  C   UNL     1     -44.609 -47.468   9.800  1.00  0.00     0.006 C 
ENDBRANCH  12  13
ENDBRANCH   9  12
ENDBRANCH   1   8
BRANCH   7  15
HETATM   15  N   UNL     1     -41.773 -52.296  13.057  1.00  0.00    -0.362 N 
HETATM   16  C   UNL     1     -41.187 -53.470  13.740  1.00  0.00     0.150 C 
HETATM   17  C   UNL     1     -39.817 -53.112  14.342  1.00  0.00     0.187 C 
HETATM   18  O   UNL     1     -38.927 -52.549  13.364  1.00  0.00    -0.388 OA
HETATM   19  C   UNL     1     -39.508 -51.363  12.806  1.00  0.00     0.187 C 
HETATM   20  C   UNL     1     -40.850 -51.658  12.112  1.00  0.00     0.150 C 
ENDBRANCH   7  15
TORSDOF 4
ENDMDL
