MODEL 1
REMARK VINA RESULT:      -5.7      0.000      0.000
REMARK  3 active torsions:
REMARK  status: ('A' for Active; 'I' for Inactive)
REMARK       I    between atoms: C_2  and  N_3 
REMARK       I    between atoms: C_2  and  N_10 
REMARK    1  A    between atoms: N_3  and  C_4 
REMARK    2  A    between atoms: C_4  and  C_5 
REMARK    3  A    between atoms: N_10  and  C_11 
ROOT
HETATM    1  O   UNL     1     -42.181 -47.730  11.659  1.00  0.00    -0.247 OA
HETATM    2  C   UNL     1     -41.863 -48.144  10.550  1.00  0.00     0.320 C 
HETATM    3  N   UNL     1     -42.380 -47.598   9.402  1.00  0.00    -0.340 N 
HETATM    4  N   UNL     1     -40.999 -49.179  10.288  1.00  0.00    -0.308 N 
HETATM    5  H   UNL     1     -42.210 -48.023   8.502  1.00  0.00     0.164 HD
HETATM    6  H   UNL     1     -40.941 -49.483   9.328  1.00  0.00     0.170 HD
ENDROOT
BRANCH   3   7
HETATM    7  C   UNL     1     -43.388 -46.551   9.435  1.00  0.00     0.156 C 
BRANCH   7   8
HETATM    8  C   UNL     1     -44.620 -46.935   8.616  1.00  0.00     0.139 C 
HETATM    9  C   UNL     1     -45.856 -47.299   9.427  1.00  0.00     0.035 C 
HETATM   10  C   UNL     1     -46.512 -48.414   8.639  1.00  0.00     0.029 C 
HETATM   11  C   UNL     1     -45.593 -48.658   7.461  1.00  0.00     0.168 C 
HETATM   12  O   UNL     1     -44.327 -48.102   7.824  1.00  0.00    -0.384 OA
ENDBRANCH   7   8
ENDBRANCH   3   7
BRANCH   4  13
HETATM   13  C   UNL     1     -40.299 -49.946  11.248  1.00  0.00     0.051 A 
HETATM   14  C   UNL     1     -38.982 -49.702  11.626  1.00  0.00     0.032 A 
HETATM   15  C   UNL     1     -38.380 -50.492  12.604  1.00  0.00     0.019 A 
HETATM   16  C   UNL     1     -39.118 -51.514  13.173  1.00  0.00     0.088 A 
HETATM   17  N   UNL     1     -40.389 -51.801  12.823  1.00  0.00    -0.373 N 
HETATM   18  C   UNL     1     -40.944 -51.014  11.867  1.00  0.00     0.117 A 
ATOM     19  HN  UNL     1     -40.906 -52.568  13.254  1.00  0.00     0.164 HD
ENDBRANCH   4  13
TORSDOF 3
ENDMDL
MODEL 2
REMARK VINA RESULT:      -5.6      2.316      6.485
REMARK  3 active torsions:
REMARK  status: ('A' for Active; 'I' for Inactive)
REMARK       I    between atoms: C_2  and  N_3 
REMARK       I    between atoms: C_2  and  N_10 
REMARK    1  A    between atoms: N_3  and  C_4 
REMARK    2  A    between atoms: C_4  and  C_5 
REMARK    3  A    between atoms: N_10  and  C_11 
ROOT
HETATM    1  O   UNL     1     -42.181 -48.927  12.104  1.00  0.00    -0.247 OA
HETATM    2  C   UNL     1     -41.570 -49.133  11.062  1.00  0.00     0.320 C 
HETATM    3  N   UNL     1     -40.616 -50.116  10.968  1.00  0.00    -0.340 N 
HETATM    4  N   UNL     1     -41.717 -48.440   9.885  1.00  0.00    -0.308 N 
HETATM    5  H   UNL     1     -40.034 -50.197  10.148  1.00  0.00     0.164 HD
HETATM    6  H   UNL     1     -41.049 -48.645   9.157  1.00  0.00     0.170 HD
ENDROOT
BRANCH   3   7
HETATM    7  C   UNL     1     -40.223 -50.917  12.116  1.00  0.00     0.156 C 
BRANCH   7   8
HETATM    8  C   UNL     1     -40.809 -52.327  12.040  1.00  0.00     0.139 C 
HETATM    9  C   UNL     1     -42.245 -52.464  12.528  1.00  0.00     0.035 C 
HETATM   10  C   UNL     1     -42.287 -53.818  13.206  1.00  0.00     0.029 C 
HETATM   11  C   UNL     1     -40.872 -54.350  13.114  1.00  0.00     0.168 C 
HETATM   12  O   UNL     1     -40.037 -53.215  12.871  1.00  0.00    -0.384 OA
ENDBRANCH   7   8
ENDBRANCH   3   7
BRANCH   4  13
HETATM   13  C   UNL     1     -42.615 -47.373   9.651  1.00  0.00     0.051 A 
HETATM   14  C   UNL     1     -43.777 -47.488   8.893  1.00  0.00     0.032 A 
HETATM   15  C   UNL     1     -44.621 -46.390   8.739  1.00  0.00     0.019 A 
HETATM   16  C   UNL     1     -44.270 -45.198   9.348  1.00  0.00     0.088 A 
HETATM   17  N   UNL     1     -43.144 -45.034  10.074  1.00  0.00    -0.373 N 
HETATM   18  C   UNL     1     -42.345 -46.122  10.202  1.00  0.00     0.117 A 
ATOM     19  HN  UNL     1     -42.907 -44.140  10.504  1.00  0.00     0.164 HD
ENDBRANCH   4  13
TORSDOF 3
ENDMDL
MODEL 3
REMARK VINA RESULT:      -5.5      3.582      5.587
REMARK  3 active torsions:
REMARK  status: ('A' for Active; 'I' for Inactive)
REMARK       I    between atoms: C_2  and  N_3 
REMARK       I    between atoms: C_2  and  N_10 
REMARK    1  A    between atoms: N_3  and  C_4 
REMARK    2  A    between atoms: C_4  and  C_5 
REMARK    3  A    between atoms: N_10  and  C_11 
ROOT
HETATM    1  O   UNL     1     -41.487 -51.473  13.478  1.00  0.00    -0.247 OA
HETATM    2  C   UNL     1     -41.741 -51.712  12.303  1.00  0.00     0.320 C 
HETATM    3  N   UNL     1     -41.023 -51.144  11.280  1.00  0.00    -0.340 N 
HETATM    4  N   UNL     1     -42.744 -52.529  11.840  1.00  0.00    -0.308 N 
HETATM    5  H   UNL     1     -41.315 -51.249  10.320  1.00  0.00     0.164 HD
HETATM    6  H   UNL     1     -42.905 -52.521  10.844  1.00  0.00     0.170 HD
ENDROOT
BRANCH   3   7
HETATM    7  C   UNL     1     -39.972 -50.170  11.528  1.00  0.00     0.156 C 
BRANCH   7   8
HETATM    8  C   UNL     1     -40.547 -48.770  11.737  1.00  0.00     0.139 C 
HETATM    9  C   UNL     1     -41.599 -48.338  10.725  1.00  0.00     0.035 C 
HETATM   10  C   UNL     1     -41.344 -46.859  10.519  1.00  0.00     0.029 C 
HETATM   11  C   UNL     1     -40.136 -46.544  11.377  1.00  0.00     0.168 C 
HETATM   12  O   UNL     1     -39.492 -47.795  11.628  1.00  0.00    -0.384 OA
ENDBRANCH   7   8
ENDBRANCH   3   7
BRANCH   4  13
HETATM   13  C   UNL     1     -43.656 -53.262  12.633  1.00  0.00     0.051 A 
HETATM   14  C   UNL     1     -43.279 -54.252  13.537  1.00  0.00     0.032 A 
HETATM   15  C   UNL     1     -44.246 -54.904  14.300  1.00  0.00     0.019 A 
HETATM   16  C   UNL     1     -45.572 -54.548  14.130  1.00  0.00     0.088 A 
HETATM   17  N   UNL     1     -45.986 -53.611  13.252  1.00  0.00    -0.373 N 
HETATM   18  C   UNL     1     -45.019 -52.998  12.524  1.00  0.00     0.117 A 
ATOM     19  HN  UNL     1     -46.972 -53.376  13.142  1.00  0.00     0.164 HD
ENDBRANCH   4  13
TORSDOF 3
ENDMDL
MODEL 4
REMARK VINA RESULT:      -5.5      1.550      2.132
REMARK  3 active torsions:
REMARK  status: ('A' for Active; 'I' for Inactive)
REMARK       I    between atoms: C_2  and  N_3 
REMARK       I    between atoms: C_2  and  N_10 
REMARK    1  A    between atoms: N_3  and  C_4 
REMARK    2  A    between atoms: C_4  and  C_5 
REMARK    3  A    between atoms: N_10  and  C_11 
ROOT
HETATM    1  O   UNL     1     -42.020 -49.097  12.331  1.00  0.00    -0.247 OA
HETATM    2  C   UNL     1     -41.364 -49.356  11.328  1.00  0.00     0.320 C 
HETATM    3  N   UNL     1     -41.287 -48.484  10.272  1.00  0.00    -0.340 N 
HETATM    4  N   UNL     1     -40.653 -50.510  11.100  1.00  0.00    -0.308 N 
HETATM    5  H   UNL     1     -40.849 -48.755   9.404  1.00  0.00     0.164 HD
HETATM    6  H   UNL     1     -40.273 -50.626  10.173  1.00  0.00     0.170 HD
ENDROOT
BRANCH   3   7
HETATM    7  C   UNL     1     -42.036 -47.237  10.249  1.00  0.00     0.156 C 
BRANCH   7   8
HETATM    8  C   UNL     1     -43.302 -47.362   9.403  1.00  0.00     0.139 C 
HETATM    9  C   UNL     1     -43.801 -46.066   8.779  1.00  0.00     0.035 C 
HETATM   10  C   UNL     1     -45.311 -46.177   8.830  1.00  0.00     0.029 C 
HETATM   11  C   UNL     1     -45.587 -47.494   9.524  1.00  0.00     0.168 C 
HETATM   12  O   UNL     1     -44.388 -47.831  10.225  1.00  0.00    -0.384 OA
ENDBRANCH   7   8
ENDBRANCH   3   7
BRANCH   4  13
HETATM   13  C   UNL     1     -40.528 -51.603  11.988  1.00  0.00     0.051 A 
HETATM   14  C   UNL     1     -39.638 -51.636  13.059  1.00  0.00     0.032 A 
HETATM   15  C   UNL     1     -39.603 -52.745  13.902  1.00  0.00     0.019 A 
HETATM   16  C   UNL     1     -40.461 -53.798  13.642  1.00  0.00     0.088 A 
HETATM   17  N   UNL     1     -41.324 -53.820  12.605  1.00  0.00    -0.373 N 
HETATM   18  C   UNL     1     -41.331 -52.726  11.803  1.00  0.00     0.117 A 
ATOM     19  HN  UNL     1     -41.939 -54.616  12.433  1.00  0.00     0.164 HD
ENDBRANCH   4  13
TORSDOF 3
ENDMDL
MODEL 5
REMARK VINA RESULT:      -5.5      4.101      5.440
REMARK  3 active torsions:
REMARK  status: ('A' for Active; 'I' for Inactive)
REMARK       I    between atoms: C_2  and  N_3 
REMARK       I    between atoms: C_2  and  N_10 
REMARK    1  A    between atoms: N_3  and  C_4 
REMARK    2  A    between atoms: C_4  and  C_5 
REMARK    3  A    between atoms: N_10  and  C_11 
ROOT
HETATM    1  O   UNL     1     -42.054 -52.369  13.693  1.00  0.00    -0.247 OA
HETATM    2  C   UNL     1     -42.365 -52.280  12.511  1.00  0.00     0.320 C 
HETATM    3  N   UNL     1     -43.445 -52.951  11.997  1.00  0.00    -0.340 N 
HETATM    4  N   UNL     1     -41.707 -51.546  11.553  1.00  0.00    -0.308 N 
HETATM    5  H   UNL     1     -43.621 -52.970  11.003  1.00  0.00     0.164 HD
HETATM    6  H   UNL     1     -42.011 -51.678  10.600  1.00  0.00     0.170 HD
ENDROOT
BRANCH   3   7
HETATM    7  C   UNL     1     -44.238 -53.865  12.804  1.00  0.00     0.156 C 
BRANCH   7   8
HETATM    8  C   UNL     1     -45.608 -53.273  13.135  1.00  0.00     0.139 C 
HETATM    9  C   UNL     1     -45.671 -51.753  13.170  1.00  0.00     0.035 C 
HETATM   10  C   UNL     1     -46.639 -51.439  14.293  1.00  0.00     0.029 C 
HETATM   11  C   UNL     1     -47.029 -52.786  14.865  1.00  0.00     0.168 C 
HETATM   12  O   UNL     1     -46.014 -53.702  14.449  1.00  0.00    -0.384 OA
ENDBRANCH   7   8
ENDBRANCH   3   7
BRANCH   4  13
HETATM   13  C   UNL     1     -40.562 -50.743  11.757  1.00  0.00     0.051 A 
HETATM   14  C   UNL     1     -39.435 -51.161  12.461  1.00  0.00     0.032 A 
HETATM   15  C   UNL     1     -38.338 -50.312  12.588  1.00  0.00     0.019 A 
HETATM   16  C   UNL     1     -38.403 -49.058  12.008  1.00  0.00     0.088 A 
HETATM   17  N   UNL     1     -39.480 -48.602  11.335  1.00  0.00    -0.373 N 
HETATM   18  C   UNL     1     -40.532 -49.453  11.233  1.00  0.00     0.117 A 
ATOM     19  HN  UNL     1     -39.503 -47.668  10.926  1.00  0.00     0.164 HD
ENDBRANCH   4  13
TORSDOF 3
ENDMDL
MODEL 6
REMARK VINA RESULT:      -5.4      4.058      6.476
REMARK  3 active torsions:
REMARK  status: ('A' for Active; 'I' for Inactive)
REMARK       I    between atoms: C_2  and  N_3 
REMARK       I    between atoms: C_2  and  N_10 
REMARK    1  A    between atoms: N_3  and  C_4 
REMARK    2  A    between atoms: C_4  and  C_5 
REMARK    3  A    between atoms: N_10  and  C_11 
ROOT
HETATM    1  O   UNL     1     -42.175 -50.680  13.012  1.00  0.00    -0.247 OA
HETATM    2  C   UNL     1     -41.682 -51.448  12.194  1.00  0.00     0.320 C 
HETATM    3  N   UNL     1     -40.755 -51.024  11.275  1.00  0.00    -0.340 N 
HETATM    4  N   UNL     1     -41.974 -52.784  12.057  1.00  0.00    -0.308 N 
HETATM    5  H   UNL     1     -40.447 -51.631  10.529  1.00  0.00     0.164 HD
HETATM    6  H   UNL     1     -41.580 -53.248  11.253  1.00  0.00     0.170 HD
ENDROOT
BRANCH   3   7
HETATM    7  C   UNL     1     -40.360 -49.629  11.169  1.00  0.00     0.156 C 
BRANCH   7   8
HETATM    8  C   UNL     1     -39.041 -49.364  11.894  1.00  0.00     0.139 C 
HETATM    9  C   UNL     1     -38.098 -50.555  11.987  1.00  0.00     0.035 C 
HETATM   10  C   UNL     1     -37.446 -50.418  13.348  1.00  0.00     0.029 C 
HETATM   11  C   UNL     1     -38.089 -49.197  13.972  1.00  0.00     0.168 C 
HETATM   12  O   UNL     1     -39.309 -48.983  13.257  1.00  0.00    -0.384 OA
ENDBRANCH   7   8
ENDBRANCH   3   7
BRANCH   4  13
HETATM   13  C   UNL     1     -42.882 -53.525  12.847  1.00  0.00     0.051 A 
HETATM   14  C   UNL     1     -42.513 -54.265  13.967  1.00  0.00     0.032 A 
HETATM   15  C   UNL     1     -43.481 -54.943  14.705  1.00  0.00     0.019 A 
HETATM   16  C   UNL     1     -44.800 -54.864  14.293  1.00  0.00     0.088 A 
HETATM   17  N   UNL     1     -45.201 -54.177  13.204  1.00  0.00    -0.373 N 
HETATM   18  C   UNL     1     -44.233 -53.531  12.507  1.00  0.00     0.117 A 
ATOM     19  HN  UNL     1     -46.180 -54.144  12.919  1.00  0.00     0.164 HD
ENDBRANCH   4  13
TORSDOF 3
ENDMDL
MODEL 7
REMARK VINA RESULT:      -5.4      4.060      6.777
REMARK  3 active torsions:
REMARK  status: ('A' for Active; 'I' for Inactive)
REMARK       I    between atoms: C_2  and  N_3 
REMARK       I    between atoms: C_2  and  N_10 
REMARK    1  A    between atoms: N_3  and  C_4 
REMARK    2  A    between atoms: C_4  and  C_5 
REMARK    3  A    between atoms: N_10  and  C_11 
ROOT
HETATM    1  O   UNL     1     -42.583 -50.827  13.168  1.00  0.00    -0.247 OA
HETATM    2  C   UNL     1     -42.279 -51.591  12.259  1.00  0.00     0.320 C 
HETATM    3  N   UNL     1     -41.301 -51.276  11.349  1.00  0.00    -0.340 N 
HETATM    4  N   UNL     1     -42.849 -52.814  12.003  1.00  0.00    -0.308 N 
HETATM    5  H   UNL     1     -41.142 -51.853  10.536  1.00  0.00     0.164 HD
HETATM    6  H   UNL     1     -42.578 -53.265  11.142  1.00  0.00     0.170 HD
ENDROOT
BRANCH   3   7
HETATM    7  C   UNL     1     -40.622 -49.990  11.365  1.00  0.00     0.156 C 
BRANCH   7   8
HETATM    8  C   UNL     1     -39.329 -50.050  12.178  1.00  0.00     0.139 C 
HETATM    9  C   UNL     1     -38.051 -49.791  11.393  1.00  0.00     0.035 C 
HETATM   10  C   UNL     1     -37.029 -50.721  12.014  1.00  0.00     0.029 C 
HETATM   11  C   UNL     1     -37.789 -51.491  13.075  1.00  0.00     0.168 C 
HETATM   12  O   UNL     1     -39.173 -51.369  12.737  1.00  0.00    -0.384 OA
ENDBRANCH   7   8
ENDBRANCH   3   7
BRANCH   4  13
HETATM   13  C   UNL     1     -43.879 -53.428  12.753  1.00  0.00     0.051 A 
HETATM   14  C   UNL     1     -43.668 -54.465  13.657  1.00  0.00     0.032 A 
HETATM   15  C   UNL     1     -44.740 -54.992  14.376  1.00  0.00     0.019 A 
HETATM   16  C   UNL     1     -46.001 -54.464  14.161  1.00  0.00     0.088 A 
HETATM   17  N   UNL     1     -46.256 -53.474  13.281  1.00  0.00    -0.373 N 
HETATM   18  C   UNL     1     -45.191 -52.987  12.596  1.00  0.00     0.117 A 
ATOM     19  HN  UNL     1     -47.198 -53.112  13.137  1.00  0.00     0.164 HD
ENDBRANCH   4  13
TORSDOF 3
ENDMDL
MODEL 8
REMARK VINA RESULT:      -5.2      4.080      6.149
REMARK  3 active torsions:
REMARK  status: ('A' for Active; 'I' for Inactive)
REMARK       I    between atoms: C_2  and  N_3 
REMARK       I    between atoms: C_2  and  N_10 
REMARK    1  A    between atoms: N_3  and  C_4 
REMARK    2  A    between atoms: C_4  and  C_5 
REMARK    3  A    between atoms: N_10  and  C_11 
ROOT
HETATM    1  O   UNL     1     -42.117 -51.850  13.941  1.00  0.00    -0.247 OA
HETATM    2  C   UNL     1     -42.573 -51.639  12.823  1.00  0.00     0.320 C 
HETATM    3  N   UNL     1     -41.777 -51.215  11.789  1.00  0.00    -0.340 N 
HETATM    4  N   UNL     1     -43.887 -51.767  12.445  1.00  0.00    -0.308 N 
HETATM    5  H   UNL     1     -42.177 -50.927  10.908  1.00  0.00     0.164 HD
HETATM    6  H   UNL     1     -44.124 -51.432  11.524  1.00  0.00     0.170 HD
ENDROOT
BRANCH   3   7
HETATM    7  C   UNL     1     -40.365 -50.920  11.976  1.00  0.00     0.156 C 
BRANCH   7   8
HETATM    8  C   UNL     1     -40.042 -49.474  11.600  1.00  0.00     0.139 C 
HETATM    9  C   UNL     1     -39.808 -48.532  12.772  1.00  0.00     0.035 C 
HETATM   10  C   UNL     1     -40.404 -47.213  12.323  1.00  0.00     0.029 C 
HETATM   11  C   UNL     1     -40.987 -47.490  10.953  1.00  0.00     0.168 C 
HETATM   12  O   UNL     1     -41.147 -48.908  10.870  1.00  0.00    -0.384 OA
ENDBRANCH   7   8
ENDBRANCH   3   7
BRANCH   4  13
HETATM   13  C   UNL     1     -44.956 -52.185  13.271  1.00  0.00     0.051 A 
HETATM   14  C   UNL     1     -45.695 -51.325  14.080  1.00  0.00     0.032 A 
HETATM   15  C   UNL     1     -46.752 -51.821  14.841  1.00  0.00     0.019 A 
HETATM   16  C   UNL     1     -47.037 -53.173  14.773  1.00  0.00     0.088 A 
HETATM   17  N   UNL     1     -46.336 -54.046  14.020  1.00  0.00    -0.373 N 
HETATM   18  C   UNL     1     -45.312 -53.532  13.295  1.00  0.00     0.117 A 
ATOM     19  HN  UNL     1     -46.564 -55.041  13.998  1.00  0.00     0.164 HD
ENDBRANCH   4  13
TORSDOF 3
ENDMDL
MODEL 9
REMARK VINA RESULT:      -5.1      3.816      5.614
REMARK  3 active torsions:
REMARK  status: ('A' for Active; 'I' for Inactive)
REMARK       I    between atoms: C_2  and  N_3 
REMARK       I    between atoms: C_2  and  N_10 
REMARK    1  A    between atoms: N_3  and  C_4 
REMARK    2  A    between atoms: C_4  and  C_5 
REMARK    3  A    between atoms: N_10  and  C_11 
ROOT
HETATM    1  O   UNL     1     -42.670 -49.466  13.506  1.00  0.00    -0.247 OA
HETATM    2  C   UNL     1     -42.457 -50.143  12.507  1.00  0.00     0.320 C 
HETATM    3  N   UNL     1     -42.769 -51.478  12.461  1.00  0.00    -0.340 N 
HETATM    4  N   UNL     1     -41.885 -49.704  11.337  1.00  0.00    -0.308 N 
HETATM    5  H   UNL     1     -42.480 -52.053  11.683  1.00  0.00     0.164 HD
HETATM    6  H   UNL     1     -41.660 -50.412  10.655  1.00  0.00     0.170 HD
ENDROOT
BRANCH   3   7
HETATM    7  C   UNL     1     -43.299 -52.184  13.617  1.00  0.00     0.156 C 
BRANCH   7   8
HETATM    8  C   UNL     1     -44.813 -52.364  13.516  1.00  0.00     0.139 C 
HETATM    9  C   UNL     1     -45.645 -51.220  14.078  1.00  0.00     0.035 C 
HETATM   10  C   UNL     1     -46.850 -51.898  14.700  1.00  0.00     0.029 C 
HETATM   11  C   UNL     1     -46.612 -53.381  14.507  1.00  0.00     0.168 C 
HETATM   12  O   UNL     1     -45.211 -53.529  14.264  1.00  0.00    -0.384 OA
ENDBRANCH   7   8
ENDBRANCH   3   7
BRANCH   4  13
HETATM   13  C   UNL     1     -41.454 -48.386  11.062  1.00  0.00     0.051 A 
HETATM   14  C   UNL     1     -40.294 -47.822  11.588  1.00  0.00     0.032 A 
HETATM   15  C   UNL     1     -39.930 -46.523  11.238  1.00  0.00     0.019 A 
HETATM   16  C   UNL     1     -40.747 -45.820  10.371  1.00  0.00     0.088 A 
HETATM   17  N   UNL     1     -41.890 -46.317   9.854  1.00  0.00    -0.373 N 
HETATM   18  C   UNL     1     -42.216 -47.582  10.217  1.00  0.00     0.117 A 
ATOM     19  HN  UNL     1     -42.477 -45.770   9.224  1.00  0.00     0.164 HD
ENDBRANCH   4  13
TORSDOF 3
ENDMDL
