MODEL 1
REMARK VINA RESULT:      -7.4      0.000      0.000
REMARK  8 active torsions:
REMARK  status: ('A' for Active; 'I' for Inactive)
REMARK    1  A    between atoms: N_6  and  C_7 
REMARK    2  A    between atoms: C_7  and  C_8 
REMARK    3  A    between atoms: C_8  and  N_9 
REMARK    4  A    between atoms: N_9  and  C_10 
REMARK    5  A    between atoms: C_10  and  C_11 
REMARK    6  A    between atoms: C_11  and  O_12 
REMARK    7  A    between atoms: C_11  and  C_13 
REMARK    8  A    between atoms: C_13  and  N_14 
ROOT
HETATM    1  C   UNL     1     -41.680 -52.406  12.062  1.00  0.00     0.164 C 
ENDROOT
BRANCH   1   2
HETATM    2  C   UNL     1     -41.069 -51.006  12.253  1.00  0.00     0.302 C 
BRANCH   2   3
HETATM    3  N   UNL     1     -41.905 -49.986  11.621  1.00  0.00     0.087 N 
HETATM    4  H   UNL     1     -42.658 -50.434  11.094  1.00  0.00     0.316 HD
BRANCH   3   5
HETATM    5  C   UNL     1     -41.140 -49.047  10.793  1.00  0.00     0.291 C 
BRANCH   5   6
HETATM    6  C   UNL     1     -41.732 -47.639  10.689  1.00  0.00     0.178 C 
BRANCH   6   7
HETATM    7  N   UNL     1     -42.916 -47.624   9.856  1.00  0.00    -0.302 N 
HETATM    8  N   UNL     1     -42.812 -47.912   8.547  1.00  0.00    -0.310 N 
HETATM    9  C   UNL     1     -44.069 -47.818   8.104  1.00  0.00     0.115 A 
ATOM     10  HN  UNL     1     -41.973 -48.146   8.016  1.00  0.00     0.186 HD
HETATM   11  C   UNL     1     -44.978 -47.471   9.131  1.00  0.00    -0.028 A 
HETATM   12  C   UNL     1     -46.440 -47.274   9.031  1.00  0.00     0.051 C 
HETATM   13  C   UNL     1     -44.190 -47.359  10.255  1.00  0.00     0.118 A 
ENDBRANCH   6   7
ENDBRANCH   5   6
ENDBRANCH   3   5
ENDBRANCH   2   3
ENDBRANCH   1   2
BRANCH   1  14
HETATM   14  O   UNL     1     -40.683 -53.268  11.486  1.00  0.00    -0.392 OA
HETATM   15  H   UNL     1     -40.882 -54.187  11.729  1.00  0.00     0.210 HD
ENDBRANCH   1  14
BRANCH   1  16
HETATM   16  C   UNL     1     -42.146 -52.943  13.418  1.00  0.00     0.163 C 
BRANCH  16  17
HETATM   17  N   UNL     1     -43.584 -53.078  13.501  1.00  0.00    -0.339 N 
HETATM   18  C   UNL     1     -44.340 -53.915  12.730  1.00  0.00     0.184 A 
HETATM   19  N   UNL     1     -45.610 -53.860  13.059  1.00  0.00    -0.350 N 
HETATM   20  C   UNL     1     -45.674 -52.938  14.075  1.00  0.00     0.060 A 
ATOM     21  HN  UNL     1     -46.381 -54.387  12.650  1.00  0.00     0.166 HD
HETATM   22  C   UNL     1     -46.787 -52.483  14.793  1.00  0.00     0.039 A 
HETATM   23  C   UNL     1     -44.416 -52.429  14.376  1.00  0.00     0.062 A 
HETATM   24  C   UNL     1     -46.617 -51.522  15.811  1.00  0.00    -0.054 A 
HETATM   25  C   UNL     1     -47.837 -51.062  16.561  1.00  0.00     0.049 C 
HETATM   26  C   UNL     1     -45.330 -51.018  16.097  1.00  0.00    -0.054 A 
HETATM   27  C   UNL     1     -45.075 -49.986  17.166  1.00  0.00     0.049 C 
HETATM   28  C   UNL     1     -44.207 -51.472  15.374  1.00  0.00     0.039 A 
ENDBRANCH  16  17
ENDBRANCH   1  16
TORSDOF 8
ENDMDL
MODEL 2
REMARK VINA RESULT:      -6.9      1.802      2.728
REMARK  8 active torsions:
REMARK  status: ('A' for Active; 'I' for Inactive)
REMARK    1  A    between atoms: N_6  and  C_7 
REMARK    2  A    between atoms: C_7  and  C_8 
REMARK    3  A    between atoms: C_8  and  N_9 
REMARK    4  A    between atoms: N_9  and  C_10 
REMARK    5  A    between atoms: C_10  and  C_11 
REMARK    6  A    between atoms: C_11  and  O_12 
REMARK    7  A    between atoms: C_11  and  C_13 
REMARK    8  A    between atoms: C_13  and  N_14 
ROOT
HETATM    1  C   UNL     1     -41.139 -49.643  11.500  1.00  0.00     0.164 C 
ENDROOT
BRANCH   1   2
HETATM    2  C   UNL     1     -40.783 -48.168  11.763  1.00  0.00     0.302 C 
BRANCH   2   3
HETATM    3  N   UNL     1     -40.993 -47.363  10.559  1.00  0.00     0.087 N 
HETATM    4  H   UNL     1     -40.097 -46.996  10.229  1.00  0.00     0.316 HD
BRANCH   3   5
HETATM    5  C   UNL     1     -41.987 -46.300  10.744  1.00  0.00     0.291 C 
BRANCH   5   6
HETATM    6  C   UNL     1     -42.610 -45.760   9.454  1.00  0.00     0.178 C 
BRANCH   6   7
HETATM    7  N   UNL     1     -43.524 -46.718   8.868  1.00  0.00    -0.302 N 
HETATM    8  N   UNL     1     -43.147 -47.422   7.786  1.00  0.00    -0.310 N 
HETATM    9  C   UNL     1     -44.205 -48.196   7.531  1.00  0.00     0.115 A 
ATOM     10  HN  UNL     1     -42.263 -47.375   7.279  1.00  0.00     0.186 HD
HETATM   11  C   UNL     1     -45.260 -47.989   8.452  1.00  0.00    -0.028 A 
HETATM   12  C   UNL     1     -46.580 -48.654   8.495  1.00  0.00     0.051 C 
HETATM   13  C   UNL     1     -44.776 -47.025   9.307  1.00  0.00     0.118 A 
ENDBRANCH   6   7
ENDBRANCH   5   6
ENDBRANCH   3   5
ENDBRANCH   2   3
ENDBRANCH   1   2
BRANCH   1  14
HETATM   14  O   UNL     1     -40.430 -50.085  10.329  1.00  0.00    -0.392 OA
HETATM   15  H   UNL     1     -39.501 -49.811  10.400  1.00  0.00     0.210 HD
ENDBRANCH   1  14
BRANCH   1  16
HETATM   16  C   UNL     1     -40.751 -50.482  12.720  1.00  0.00     0.163 C 
BRANCH  16  17
HETATM   17  N   UNL     1     -41.362 -51.793  12.712  1.00  0.00    -0.339 N 
HETATM   18  C   UNL     1     -40.764 -52.936  12.262  1.00  0.00     0.184 A 
HETATM   19  N   UNL     1     -41.540 -53.983  12.422  1.00  0.00    -0.350 N 
HETATM   20  C   UNL     1     -42.691 -53.489  12.986  1.00  0.00     0.060 A 
ATOM     21  HN  UNL     1     -41.334 -54.952  12.180  1.00  0.00     0.166 HD
HETATM   22  C   UNL     1     -43.858 -54.167  13.362  1.00  0.00     0.039 A 
HETATM   23  C   UNL     1     -42.609 -52.116  13.182  1.00  0.00     0.062 A 
HETATM   24  C   UNL     1     -44.929 -53.450  13.934  1.00  0.00    -0.054 A 
HETATM   25  C   UNL     1     -46.163 -54.215  14.327  1.00  0.00     0.049 C 
HETATM   26  C   UNL     1     -44.823 -52.054  14.122  1.00  0.00    -0.054 A 
HETATM   27  C   UNL     1     -45.929 -51.225  14.722  1.00  0.00     0.049 C 
HETATM   28  C   UNL     1     -43.650 -51.369  13.742  1.00  0.00     0.039 A 
ENDBRANCH  16  17
ENDBRANCH   1  16
TORSDOF 8
ENDMDL
MODEL 3
REMARK VINA RESULT:      -6.7      1.698      2.513
REMARK  8 active torsions:
REMARK  status: ('A' for Active; 'I' for Inactive)
REMARK    1  A    between atoms: N_6  and  C_7 
REMARK    2  A    between atoms: C_7  and  C_8 
REMARK    3  A    between atoms: C_8  and  N_9 
REMARK    4  A    between atoms: N_9  and  C_10 
REMARK    5  A    between atoms: C_10  and  C_11 
REMARK    6  A    between atoms: C_11  and  O_12 
REMARK    7  A    between atoms: C_11  and  C_13 
REMARK    8  A    between atoms: C_13  and  N_14 
ROOT
HETATM    1  C   UNL     1     -41.765 -52.273  12.000  1.00  0.00     0.164 C 
ENDROOT
BRANCH   1   2
HETATM    2  C   UNL     1     -41.164 -50.867  12.181  1.00  0.00     0.302 C 
BRANCH   2   3
HETATM    3  N   UNL     1     -42.014 -49.857  11.551  1.00  0.00     0.087 N 
HETATM    4  H   UNL     1     -42.680 -50.310  10.921  1.00  0.00     0.316 HD
BRANCH   3   5
HETATM    5  C   UNL     1     -41.248 -48.804  10.874  1.00  0.00     0.291 C 
BRANCH   5   6
HETATM    6  C   UNL     1     -42.068 -47.591  10.424  1.00  0.00     0.178 C 
BRANCH   6   7
HETATM    7  N   UNL     1     -41.327 -46.359  10.598  1.00  0.00    -0.302 N 
HETATM    8  N   UNL     1     -40.020 -46.320  10.288  1.00  0.00    -0.310 N 
HETATM    9  C   UNL     1     -39.672 -45.058  10.554  1.00  0.00     0.115 A 
ATOM     10  HN  UNL     1     -39.432 -47.074   9.934  1.00  0.00     0.186 HD
HETATM   11  C   UNL     1     -40.758 -44.288  11.035  1.00  0.00    -0.028 A 
HETATM   12  C   UNL     1     -40.766 -42.865  11.434  1.00  0.00     0.051 C 
HETATM   13  C   UNL     1     -41.817 -45.169  11.044  1.00  0.00     0.118 A 
ENDBRANCH   6   7
ENDBRANCH   5   6
ENDBRANCH   3   5
ENDBRANCH   2   3
ENDBRANCH   1   2
BRANCH   1  14
HETATM   14  O   UNL     1     -40.766 -53.128  11.418  1.00  0.00    -0.392 OA
HETATM   15  H   UNL     1     -40.846 -53.095  10.451  1.00  0.00     0.210 HD
ENDBRANCH   1  14
BRANCH   1  16
HETATM   16  C   UNL     1     -42.213 -52.810  13.362  1.00  0.00     0.163 C 
BRANCH  16  17
HETATM   17  N   UNL     1     -43.650 -52.954  13.459  1.00  0.00    -0.339 N 
HETATM   18  C   UNL     1     -44.412 -53.771  12.673  1.00  0.00     0.184 A 
HETATM   19  N   UNL     1     -45.677 -53.733  13.020  1.00  0.00    -0.350 N 
HETATM   20  C   UNL     1     -45.733 -52.843  14.064  1.00  0.00     0.060 A 
ATOM     21  HN  UNL     1     -46.451 -54.251  12.604  1.00  0.00     0.166 HD
HETATM   22  C   UNL     1     -46.839 -52.416  14.811  1.00  0.00     0.039 A 
HETATM   23  C   UNL     1     -44.473 -52.338  14.365  1.00  0.00     0.062 A 
HETATM   24  C   UNL     1     -46.660 -51.486  15.855  1.00  0.00    -0.054 A 
HETATM   25  C   UNL     1     -47.872 -51.056  16.635  1.00  0.00     0.049 C 
HETATM   26  C   UNL     1     -45.371 -50.985  16.141  1.00  0.00    -0.054 A 
HETATM   27  C   UNL     1     -45.108 -49.986  17.239  1.00  0.00     0.049 C 
HETATM   28  C   UNL     1     -44.256 -51.411  15.389  1.00  0.00     0.039 A 
ENDBRANCH  16  17
ENDBRANCH   1  16
TORSDOF 8
ENDMDL
MODEL 4
REMARK VINA RESULT:      -6.6      2.935      5.407
REMARK  8 active torsions:
REMARK  status: ('A' for Active; 'I' for Inactive)
REMARK    1  A    between atoms: N_6  and  C_7 
REMARK    2  A    between atoms: C_7  and  C_8 
REMARK    3  A    between atoms: C_8  and  N_9 
REMARK    4  A    between atoms: N_9  and  C_10 
REMARK    5  A    between atoms: C_10  and  C_11 
REMARK    6  A    between atoms: C_11  and  O_12 
REMARK    7  A    between atoms: C_11  and  C_13 
REMARK    8  A    between atoms: C_13  and  N_14 
ROOT
HETATM    1  C   UNL     1     -40.334 -49.328  12.320  1.00  0.00     0.164 C 
ENDROOT
BRANCH   1   2
HETATM    2  C   UNL     1     -39.794 -50.733  11.997  1.00  0.00     0.302 C 
BRANCH   2   3
HETATM    3  N   UNL     1     -40.854 -51.581  11.451  1.00  0.00     0.087 N 
HETATM    4  H   UNL     1     -41.748 -51.086  11.492  1.00  0.00     0.316 HD
BRANCH   3   5
HETATM    5  C   UNL     1     -40.926 -52.897  12.094  1.00  0.00     0.291 C 
BRANCH   5   6
HETATM    6  C   UNL     1     -41.025 -52.870  13.622  1.00  0.00     0.178 C 
BRANCH   6   7
HETATM    7  N   UNL     1     -42.239 -53.509  14.084  1.00  0.00    -0.302 N 
HETATM    8  N   UNL     1     -42.480 -53.605  15.403  1.00  0.00    -0.310 N 
HETATM    9  C   UNL     1     -43.663 -54.222  15.462  1.00  0.00     0.115 A 
ATOM     10  HN  UNL     1     -41.898 -53.283  16.176  1.00  0.00     0.186 HD
HETATM   11  C   UNL     1     -44.181 -54.521  14.179  1.00  0.00    -0.028 A 
HETATM   12  C   UNL     1     -45.452 -55.195  13.839  1.00  0.00     0.051 C 
HETATM   13  C   UNL     1     -43.228 -54.036  13.311  1.00  0.00     0.118 A 
ENDBRANCH   6   7
ENDBRANCH   5   6
ENDBRANCH   3   5
ENDBRANCH   2   3
ENDBRANCH   1   2
BRANCH   1  14
HETATM   14  O   UNL     1     -39.805 -48.400  11.357  1.00  0.00    -0.392 OA
HETATM   15  H   UNL     1     -40.022 -48.714  10.463  1.00  0.00     0.210 HD
ENDBRANCH   1  14
BRANCH   1  16
HETATM   16  C   UNL     1     -41.865 -49.351  12.269  1.00  0.00     0.163 C 
BRANCH  16  17
HETATM   17  N   UNL     1     -42.461 -49.623  13.558  1.00  0.00    -0.339 N 
HETATM   18  C   UNL     1     -41.915 -49.285  14.764  1.00  0.00     0.184 A 
HETATM   19  N   UNL     1     -42.702 -49.614  15.761  1.00  0.00    -0.350 N 
HETATM   20  C   UNL     1     -43.794 -50.202  15.173  1.00  0.00     0.060 A 
ATOM     21  HN  UNL     1     -42.538 -49.467  16.757  1.00  0.00     0.166 HD
HETATM   22  C   UNL     1     -44.939 -50.747  15.768  1.00  0.00     0.039 A 
HETATM   23  C   UNL     1     -43.673 -50.221  13.788  1.00  0.00     0.062 A 
HETATM   24  C   UNL     1     -45.951 -51.302  14.958  1.00  0.00    -0.054 A 
HETATM   25  C   UNL     1     -47.166 -51.874  15.636  1.00  0.00     0.049 C 
HETATM   26  C   UNL     1     -45.805 -51.312  13.553  1.00  0.00    -0.054 A 
HETATM   27  C   UNL     1     -46.843 -51.893  12.628  1.00  0.00     0.049 C 
HETATM   28  C   UNL     1     -44.652 -50.766  12.952  1.00  0.00     0.039 A 
ENDBRANCH  16  17
ENDBRANCH   1  16
TORSDOF 8
ENDMDL
MODEL 5
REMARK VINA RESULT:      -6.4      3.999      4.755
REMARK  8 active torsions:
REMARK  status: ('A' for Active; 'I' for Inactive)
REMARK    1  A    between atoms: N_6  and  C_7 
REMARK    2  A    between atoms: C_7  and  C_8 
REMARK    3  A    between atoms: C_8  and  N_9 
REMARK    4  A    between atoms: N_9  and  C_10 
REMARK    5  A    between atoms: C_10  and  C_11 
REMARK    6  A    between atoms: C_11  and  O_12 
REMARK    7  A    between atoms: C_11  and  C_13 
REMARK    8  A    between atoms: C_13  and  N_14 
ROOT
HETATM    1  C   UNL     1     -41.246 -49.771  11.307  1.00  0.00     0.164 C 
ENDROOT
BRANCH   1   2
HETATM    2  C   UNL     1     -41.755 -48.327  11.467  1.00  0.00     0.302 C 
BRANCH   2   3
HETATM    3  N   UNL     1     -41.467 -47.542  10.266  1.00  0.00     0.087 N 
HETATM    4  H   UNL     1     -40.463 -47.363  10.202  1.00  0.00     0.316 HD
BRANCH   3   5
HETATM    5  C   UNL     1     -42.251 -46.304  10.187  1.00  0.00     0.291 C 
BRANCH   5   6
HETATM    6  C   UNL     1     -42.945 -46.057   8.845  1.00  0.00     0.178 C 
BRANCH   6   7
HETATM    7  N   UNL     1     -44.270 -46.639   8.822  1.00  0.00    -0.302 N 
HETATM    8  N   UNL     1     -45.324 -45.912   9.233  1.00  0.00    -0.310 N 
HETATM    9  C   UNL     1     -46.359 -46.738   9.067  1.00  0.00     0.115 A 
ATOM     10  HN  UNL     1     -45.330 -44.956   9.588  1.00  0.00     0.186 HD
HETATM   11  C   UNL     1     -45.969 -47.996   8.548  1.00  0.00    -0.028 A 
HETATM   12  C   UNL     1     -46.823 -49.161   8.233  1.00  0.00     0.051 C 
HETATM   13  C   UNL     1     -44.605 -47.889   8.398  1.00  0.00     0.118 A 
ENDBRANCH   6   7
ENDBRANCH   5   6
ENDBRANCH   3   5
ENDBRANCH   2   3
ENDBRANCH   1   2
BRANCH   1  14
HETATM   14  O   UNL     1     -40.317 -49.812  10.209  1.00  0.00    -0.392 OA
HETATM   15  H   UNL     1     -40.543 -50.560   9.633  1.00  0.00     0.210 HD
ENDBRANCH   1  14
BRANCH   1  16
HETATM   16  C   UNL     1     -40.570 -50.215  12.608  1.00  0.00     0.163 C 
BRANCH  16  17
HETATM   17  N   UNL     1     -40.552 -51.653  12.763  1.00  0.00    -0.339 N 
HETATM   18  C   UNL     1     -41.062 -52.547  11.864  1.00  0.00     0.184 A 
HETATM   19  N   UNL     1     -40.861 -53.786  12.247  1.00  0.00    -0.350 N 
HETATM   20  C   UNL     1     -40.206 -53.685  13.450  1.00  0.00     0.060 A 
ATOM     21  HN  UNL     1     -41.132 -54.639  11.758  1.00  0.00     0.166 HD
HETATM   22  C   UNL     1     -39.756 -54.698  14.305  1.00  0.00     0.039 A 
HETATM   23  C   UNL     1     -39.996 -52.356  13.800  1.00  0.00     0.062 A 
HETATM   24  C   UNL     1     -39.095 -54.359  15.504  1.00  0.00    -0.054 A 
HETATM   25  C   UNL     1     -38.624 -55.477  16.393  1.00  0.00     0.049 C 
HETATM   26  C   UNL     1     -38.895 -53.002  15.840  1.00  0.00    -0.054 A 
HETATM   27  C   UNL     1     -38.202 -52.568  17.106  1.00  0.00     0.049 C 
HETATM   28  C   UNL     1     -39.350 -51.979  14.981  1.00  0.00     0.039 A 
ENDBRANCH  16  17
ENDBRANCH   1  16
TORSDOF 8
ENDMDL
MODEL 6
REMARK VINA RESULT:      -6.3      2.877      4.124
REMARK  8 active torsions:
REMARK  status: ('A' for Active; 'I' for Inactive)
REMARK    1  A    between atoms: N_6  and  C_7 
REMARK    2  A    between atoms: C_7  and  C_8 
REMARK    3  A    between atoms: C_8  and  N_9 
REMARK    4  A    between atoms: N_9  and  C_10 
REMARK    5  A    between atoms: C_10  and  C_11 
REMARK    6  A    between atoms: C_11  and  O_12 
REMARK    7  A    between atoms: C_11  and  C_13 
REMARK    8  A    between atoms: C_13  and  N_14 
ROOT
HETATM    1  C   UNL     1     -39.998 -50.836  11.996  1.00  0.00     0.164 C 
ENDROOT
BRANCH   1   2
HETATM    2  C   UNL     1     -39.967 -49.395  11.454  1.00  0.00     0.302 C 
BRANCH   2   3
HETATM    3  N   UNL     1     -41.006 -49.201  10.443  1.00  0.00     0.087 N 
HETATM    4  H   UNL     1     -40.592 -48.816   9.591  1.00  0.00     0.316 HD
BRANCH   3   5
HETATM    5  C   UNL     1     -42.129 -48.387  10.922  1.00  0.00     0.291 C 
BRANCH   5   6
HETATM    6  C   UNL     1     -42.255 -47.006  10.273  1.00  0.00     0.178 C 
BRANCH   6   7
HETATM    7  N   UNL     1     -41.199 -46.118  10.714  1.00  0.00    -0.302 N 
HETATM    8  N   UNL     1     -40.305 -45.656   9.823  1.00  0.00    -0.310 N 
HETATM    9  C   UNL     1     -39.506 -44.876  10.557  1.00  0.00     0.115 A 
ATOM     10  HN  UNL     1     -40.248 -45.853   8.824  1.00  0.00     0.186 HD
HETATM   11  C   UNL     1     -39.891 -44.838  11.918  1.00  0.00    -0.028 A 
HETATM   12  C   UNL     1     -39.258 -44.094  13.028  1.00  0.00     0.051 C 
HETATM   13  C   UNL     1     -40.998 -45.654  11.978  1.00  0.00     0.118 A 
ENDBRANCH   6   7
ENDBRANCH   5   6
ENDBRANCH   3   5
ENDBRANCH   2   3
ENDBRANCH   1   2
BRANCH   1  14
HETATM   14  O   UNL     1     -38.660 -51.362  11.979  1.00  0.00    -0.392 OA
HETATM   15  H   UNL     1     -38.389 -51.566  12.889  1.00  0.00     0.210 HD
ENDBRANCH   1  14
BRANCH   1  16
HETATM   16  C   UNL     1     -40.560 -50.827  13.421  1.00  0.00     0.163 C 
BRANCH  16  17
HETATM   17  N   UNL     1     -40.982 -52.139  13.861  1.00  0.00    -0.339 N 
HETATM   18  C   UNL     1     -40.202 -53.026  14.547  1.00  0.00     0.184 A 
HETATM   19  N   UNL     1     -40.866 -54.116  14.856  1.00  0.00    -0.350 N 
HETATM   20  C   UNL     1     -42.122 -53.927  14.333  1.00  0.00     0.060 A 
ATOM     21  HN  UNL     1     -40.523 -54.927  15.370  1.00  0.00     0.166 HD
HETATM   22  C   UNL     1     -43.234 -54.778  14.363  1.00  0.00     0.039 A 
HETATM   23  C   UNL     1     -42.226 -52.692  13.703  1.00  0.00     0.062 A 
HETATM   24  C   UNL     1     -44.441 -54.372  13.758  1.00  0.00    -0.054 A 
HETATM   25  C   UNL     1     -45.613 -55.314  13.814  1.00  0.00     0.049 C 
HETATM   26  C   UNL     1     -44.523 -53.114  13.122  1.00  0.00    -0.054 A 
HETATM   27  C   UNL     1     -45.779 -52.618  12.451  1.00  0.00     0.049 C 
HETATM   28  C   UNL     1     -43.404 -52.256  13.089  1.00  0.00     0.039 A 
ENDBRANCH  16  17
ENDBRANCH   1  16
TORSDOF 8
ENDMDL
MODEL 7
REMARK VINA RESULT:      -6.3      2.991      7.328
REMARK  8 active torsions:
REMARK  status: ('A' for Active; 'I' for Inactive)
REMARK    1  A    between atoms: N_6  and  C_7 
REMARK    2  A    between atoms: C_7  and  C_8 
REMARK    3  A    between atoms: C_8  and  N_9 
REMARK    4  A    between atoms: N_9  and  C_10 
REMARK    5  A    between atoms: C_10  and  C_11 
REMARK    6  A    between atoms: C_11  and  O_12 
REMARK    7  A    between atoms: C_11  and  C_13 
REMARK    8  A    between atoms: C_13  and  N_14 
ROOT
HETATM    1  C   UNL     1     -40.780 -52.005  12.299  1.00  0.00     0.164 C 
ENDROOT
BRANCH   1   2
HETATM    2  C   UNL     1     -42.280 -51.887  12.622  1.00  0.00     0.302 C 
BRANCH   2   3
HETATM    3  N   UNL     1     -43.065 -52.775  11.764  1.00  0.00     0.087 N 
HETATM    4  H   UNL     1     -43.423 -52.254  10.961  1.00  0.00     0.316 HD
BRANCH   3   5
HETATM    5  C   UNL     1     -44.136 -53.473  12.486  1.00  0.00     0.291 C 
BRANCH   5   6
HETATM    6  C   UNL     1     -45.479 -52.740  12.523  1.00  0.00     0.178 C 
BRANCH   6   7
HETATM    7  N   UNL     1     -45.975 -52.614  13.878  1.00  0.00    -0.302 N 
HETATM    8  N   UNL     1     -45.667 -53.553  14.789  1.00  0.00    -0.310 N 
HETATM    9  C   UNL     1     -46.265 -53.120  15.902  1.00  0.00     0.115 A 
ATOM     10  HN  UNL     1     -45.109 -54.398  14.661  1.00  0.00     0.186 HD
HETATM   11  C   UNL     1     -46.956 -51.901  15.703  1.00  0.00    -0.028 A 
HETATM   12  C   UNL     1     -47.732 -51.118  16.688  1.00  0.00     0.051 C 
HETATM   13  C   UNL     1     -46.739 -51.603  14.377  1.00  0.00     0.118 A 
ENDBRANCH   6   7
ENDBRANCH   5   6
ENDBRANCH   3   5
ENDBRANCH   2   3
ENDBRANCH   1   2
BRANCH   1  14
HETATM   14  O   UNL     1     -40.588 -53.119  11.410  1.00  0.00    -0.392 OA
HETATM   15  H   UNL     1     -41.447 -53.381  11.041  1.00  0.00     0.210 HD
ENDBRANCH   1  14
BRANCH   1  16
HETATM   16  C   UNL     1     -40.298 -50.704  11.651  1.00  0.00     0.163 C 
BRANCH  16  17
HETATM   17  N   UNL     1     -39.834 -49.737  12.622  1.00  0.00    -0.339 N 
HETATM   18  C   UNL     1     -39.329 -50.042  13.855  1.00  0.00     0.184 A 
HETATM   19  N   UNL     1     -38.943 -48.965  14.499  1.00  0.00    -0.350 N 
HETATM   20  C   UNL     1     -39.225 -47.923  13.650  1.00  0.00     0.060 A 
ATOM     21  HN  UNL     1     -38.526 -48.913  15.428  1.00  0.00     0.166 HD
HETATM   22  C   UNL     1     -39.025 -46.549  13.832  1.00  0.00     0.039 A 
HETATM   23  C   UNL     1     -39.784 -48.377  12.461  1.00  0.00     0.062 A 
HETATM   24  C   UNL     1     -39.390 -45.647  12.811  1.00  0.00    -0.054 A 
HETATM   25  C   UNL     1     -39.156 -44.180  13.045  1.00  0.00     0.049 C 
HETATM   26  C   UNL     1     -39.958 -46.132  11.612  1.00  0.00    -0.054 A 
HETATM   27  C   UNL     1     -40.376 -45.226  10.482  1.00  0.00     0.049 C 
HETATM   28  C   UNL     1     -40.162 -47.515  11.427  1.00  0.00     0.039 A 
ENDBRANCH  16  17
ENDBRANCH   1  16
TORSDOF 8
ENDMDL
MODEL 8
REMARK VINA RESULT:      -5.8      3.373      5.132
REMARK  8 active torsions:
REMARK  status: ('A' for Active; 'I' for Inactive)
REMARK    1  A    between atoms: N_6  and  C_7 
REMARK    2  A    between atoms: C_7  and  C_8 
REMARK    3  A    between atoms: C_8  and  N_9 
REMARK    4  A    between atoms: N_9  and  C_10 
REMARK    5  A    between atoms: C_10  and  C_11 
REMARK    6  A    between atoms: C_11  and  O_12 
REMARK    7  A    between atoms: C_11  and  C_13 
REMARK    8  A    between atoms: C_13  and  N_14 
ROOT
HETATM    1  C   UNL     1     -41.244 -52.013  12.122  1.00  0.00     0.164 C 
ENDROOT
BRANCH   1   2
HETATM    2  C   UNL     1     -40.814 -50.677  11.490  1.00  0.00     0.302 C 
BRANCH   2   3
HETATM    3  N   UNL     1     -41.927 -49.728  11.478  1.00  0.00     0.087 N 
HETATM    4  H   UNL     1     -42.270 -49.610  10.522  1.00  0.00     0.316 HD
BRANCH   3   5
HETATM    5  C   UNL     1     -41.595 -48.443  12.104  1.00  0.00     0.291 C 
BRANCH   5   6
HETATM    6  C   UNL     1     -40.144 -47.988  11.925  1.00  0.00     0.178 C 
BRANCH   6   7
HETATM    7  N   UNL     1     -40.071 -46.595  11.537  1.00  0.00    -0.302 N 
HETATM    8  N   UNL     1     -39.725 -46.272  10.279  1.00  0.00    -0.310 N 
HETATM    9  C   UNL     1     -39.772 -44.937  10.273  1.00  0.00     0.115 A 
ATOM     10  HN  UNL     1     -39.484 -46.898   9.510  1.00  0.00     0.186 HD
HETATM   11  C   UNL     1     -40.149 -44.405  11.529  1.00  0.00    -0.028 A 
HETATM   12  C   UNL     1     -40.308 -42.986  11.912  1.00  0.00     0.051 C 
HETATM   13  C   UNL     1     -40.340 -45.515  12.322  1.00  0.00     0.118 A 
ENDBRANCH   6   7
ENDBRANCH   5   6
ENDBRANCH   3   5
ENDBRANCH   2   3
ENDBRANCH   1   2
BRANCH   1  14
HETATM   14  O   UNL     1     -40.592 -53.085  11.419  1.00  0.00    -0.392 OA
HETATM   15  H   UNL     1     -39.984 -52.708  10.763  1.00  0.00     0.210 HD
ENDBRANCH   1  14
BRANCH   1  16
HETATM   16  C   UNL     1     -40.856 -52.019  13.604  1.00  0.00     0.163 C 
BRANCH  16  17
HETATM   17  N   UNL     1     -41.497 -53.085  14.343  1.00  0.00    -0.339 N 
HETATM   18  C   UNL     1     -42.846 -53.297  14.405  1.00  0.00     0.184 A 
HETATM   19  N   UNL     1     -43.135 -54.366  15.110  1.00  0.00    -0.350 N 
HETATM   20  C   UNL     1     -41.922 -54.854  15.530  1.00  0.00     0.060 A 
ATOM     21  HN  UNL     1     -44.060 -54.750  15.304  1.00  0.00     0.166 HD
HETATM   22  C   UNL     1     -41.641 -55.975  16.320  1.00  0.00     0.039 A 
HETATM   23  C   UNL     1     -40.873 -54.071  15.062  1.00  0.00     0.062 A 
HETATM   24  C   UNL     1     -40.303 -56.296  16.628  1.00  0.00    -0.054 A 
HETATM   25  C   UNL     1     -40.043 -57.510  17.478  1.00  0.00     0.049 C 
HETATM   26  C   UNL     1     -39.254 -55.484  16.143  1.00  0.00    -0.054 A 
HETATM   27  C   UNL     1     -37.802 -55.764  16.437  1.00  0.00     0.049 C 
HETATM   28  C   UNL     1     -39.534 -54.353  15.349  1.00  0.00     0.039 A 
ENDBRANCH  16  17
ENDBRANCH   1  16
TORSDOF 8
ENDMDL
MODEL 9
REMARK VINA RESULT:      -5.7      3.021      4.223
REMARK  8 active torsions:
REMARK  status: ('A' for Active; 'I' for Inactive)
REMARK    1  A    between atoms: N_6  and  C_7 
REMARK    2  A    between atoms: C_7  and  C_8 
REMARK    3  A    between atoms: C_8  and  N_9 
REMARK    4  A    between atoms: N_9  and  C_10 
REMARK    5  A    between atoms: C_10  and  C_11 
REMARK    6  A    between atoms: C_11  and  O_12 
REMARK    7  A    between atoms: C_11  and  C_13 
REMARK    8  A    between atoms: C_13  and  N_14 
ROOT
HETATM    1  C   UNL     1     -40.251 -49.590  12.791  1.00  0.00     0.164 C 
ENDROOT
BRANCH   1   2
HETATM    2  C   UNL     1     -39.517 -48.649  11.819  1.00  0.00     0.302 C 
BRANCH   2   3
HETATM    3  N   UNL     1     -40.472 -47.926  10.979  1.00  0.00     0.087 N 
HETATM    4  H   UNL     1     -40.440 -48.294  10.025  1.00  0.00     0.316 HD
BRANCH   3   5
HETATM    5  C   UNL     1     -40.281 -46.471  11.012  1.00  0.00     0.291 C 
BRANCH   5   6
HETATM    6  C   UNL     1     -41.409 -45.653  10.379  1.00  0.00     0.178 C 
BRANCH   6   7
HETATM    7  N   UNL     1     -41.552 -44.364  11.022  1.00  0.00    -0.302 N 
HETATM    8  N   UNL     1     -42.727 -44.026  11.581  1.00  0.00    -0.310 N 
HETATM    9  C   UNL     1     -42.499 -42.808  12.080  1.00  0.00     0.115 A 
ATOM     10  HN  UNL     1     -43.589 -44.570  11.616  1.00  0.00     0.186 HD
HETATM   11  C   UNL     1     -41.176 -42.366  11.840  1.00  0.00    -0.028 A 
HETATM   12  C   UNL     1     -40.553 -41.084  12.234  1.00  0.00     0.051 C 
HETATM   13  C   UNL     1     -40.591 -43.408  11.155  1.00  0.00     0.118 A 
ENDBRANCH   6   7
ENDBRANCH   5   6
ENDBRANCH   3   5
ENDBRANCH   2   3
ENDBRANCH   1   2
BRANCH   1  14
HETATM   14  O   UNL     1     -40.379 -48.928  14.062  1.00  0.00    -0.392 OA
HETATM   15  H   UNL     1     -39.599 -49.131  14.604  1.00  0.00     0.210 HD
ENDBRANCH   1  14
BRANCH   1  16
HETATM   16  C   UNL     1     -41.629 -49.934  12.217  1.00  0.00     0.163 C 
BRANCH  16  17
HETATM   17  N   UNL     1     -41.965 -51.332  12.377  1.00  0.00    -0.339 N 
HETATM   18  C   UNL     1     -41.149 -52.378  12.049  1.00  0.00     0.184 A 
HETATM   19  N   UNL     1     -41.699 -53.532  12.348  1.00  0.00    -0.350 N 
HETATM   20  C   UNL     1     -42.926 -53.215  12.877  1.00  0.00     0.060 A 
ATOM     21  HN  UNL     1     -41.302 -54.462  12.215  1.00  0.00     0.166 HD
HETATM   22  C   UNL     1     -43.933 -54.062  13.357  1.00  0.00     0.039 A 
HETATM   23  C   UNL     1     -43.121 -51.839  12.910  1.00  0.00     0.062 A 
HETATM   24  C   UNL     1     -45.126 -53.510  13.867  1.00  0.00    -0.054 A 
HETATM   25  C   UNL     1     -46.182 -54.454  14.375  1.00  0.00     0.049 C 
HETATM   26  C   UNL     1     -45.303 -52.109  13.888  1.00  0.00    -0.054 A 
HETATM   27  C   UNL     1     -46.553 -51.451  14.414  1.00  0.00     0.049 C 
HETATM   28  C   UNL     1     -44.291 -51.254  13.404  1.00  0.00     0.039 A 
ENDBRANCH  16  17
ENDBRANCH   1  16
TORSDOF 8
ENDMDL
