MODEL 1
REMARK VINA RESULT:      -6.4      0.000      0.000
REMARK  6 active torsions:
REMARK  status: ('A' for Active; 'I' for Inactive)
REMARK    1  A    between atoms: C_2  and  C_3 
REMARK    2  A    between atoms: C_2  and  N_16 
REMARK       I    between atoms: C_3  and  N_5 
REMARK    3  A    between atoms: N_5  and  C_6 
REMARK    4  A    between atoms: C_6  and  C_7 
REMARK    5  A    between atoms: C_7  and  O_8 
REMARK    6  A    between atoms: O_8  and  C_9 
ROOT
HETATM    1  C   UNL     1     -42.652 -48.639  11.646  1.00  0.00     0.242 C 
HETATM    2  O   UNL     1     -43.206 -48.107  12.608  1.00  0.00    -0.271 OA
HETATM    3  N   UNL     1     -42.159 -49.926  11.710  1.00  0.00    -0.357 N 
HETATM    4  H   UNL     1     -41.667 -50.337  10.921  1.00  0.00     0.162 HD
ENDROOT
BRANCH   3   5
HETATM    5  C   UNL     1     -42.297 -50.766  12.894  1.00  0.00     0.148 C 
BRANCH   5   6
HETATM    6  C   UNL     1     -43.097 -52.035  12.591  1.00  0.00     0.187 C 
BRANCH   6   7
HETATM    7  O   UNL     1     -44.117 -52.252  13.564  1.00  0.00    -0.384 OA
BRANCH   7   8
HETATM    8  C   UNL     1     -45.331 -52.832  13.049  1.00  0.00     0.125 C 
HETATM    9  C   UNL     1     -46.378 -51.699  13.025  1.00  0.00     0.032 C 
HETATM   10  C   UNL     1     -46.732 -51.210  14.436  1.00  0.00     0.002 C 
HETATM   11  C   UNL     1     -47.099 -52.347  15.393  1.00  0.00     0.001 C 
HETATM   12  C   UNL     1     -46.104 -53.511  15.344  1.00  0.00     0.007 C 
HETATM   13  C   UNL     1     -45.933 -53.981  13.897  1.00  0.00     0.010 C 
HETATM   14  C   UNL     1     -45.228 -55.336  13.797  1.00  0.00     0.012 C 
ENDBRANCH   7   8
ENDBRANCH   6   7
ENDBRANCH   5   6
ENDBRANCH   3   5
BRANCH   1  15
HETATM   15  C   UNL     1     -42.401 -47.878  10.346  1.00  0.00     0.196 C 
HETATM   16  C   UNL     1     -41.361 -46.770  10.533  1.00  0.00     0.044 C 
BRANCH  15  17
HETATM   17  N   UNL     1     -43.638 -47.354   9.786  1.00  0.00    -0.273 N 
HETATM   18  C   UNL     1     -43.848 -46.183   9.126  1.00  0.00     0.202 A 
HETATM   19  N   UNL     1     -45.123 -46.073   8.825  1.00  0.00    -0.346 N 
HETATM   20  C   UNL     1     -45.659 -47.218   9.339  1.00  0.00     0.198 A 
ATOM     21  HN  UNL     1     -45.595 -45.318   8.328  1.00  0.00     0.167 HD
HETATM   22  N   UNL     1     -44.794 -48.029   9.951  1.00  0.00    -0.292 N 
ATOM     23  HN  UNL     1     -44.962 -48.920  10.419  1.00  0.00     0.188 HD
ENDBRANCH  15  17
ENDBRANCH   1  15
TORSDOF 6
ENDMDL
MODEL 2
REMARK VINA RESULT:      -6.1      1.328      1.492
REMARK  6 active torsions:
REMARK  status: ('A' for Active; 'I' for Inactive)
REMARK    1  A    between atoms: C_2  and  C_3 
REMARK    2  A    between atoms: C_2  and  N_16 
REMARK       I    between atoms: C_3  and  N_5 
REMARK    3  A    between atoms: N_5  and  C_6 
REMARK    4  A    between atoms: C_6  and  C_7 
REMARK    5  A    between atoms: C_7  and  O_8 
REMARK    6  A    between atoms: O_8  and  C_9 
ROOT
HETATM    1  C   UNL     1     -41.746 -49.064  11.309  1.00  0.00     0.242 C 
HETATM    2  O   UNL     1     -40.641 -49.394  10.879  1.00  0.00    -0.271 OA
HETATM    3  N   UNL     1     -42.559 -49.950  11.985  1.00  0.00    -0.357 N 
HETATM    4  H   UNL     1     -43.487 -49.676  12.298  1.00  0.00     0.162 HD
ENDROOT
BRANCH   3   5
HETATM    5  C   UNL     1     -42.156 -51.320  12.284  1.00  0.00     0.148 C 
BRANCH   5   6
HETATM    6  C   UNL     1     -42.396 -51.668  13.754  1.00  0.00     0.187 C 
BRANCH   6   7
HETATM    7  O   UNL     1     -43.784 -51.619  14.081  1.00  0.00    -0.384 OA
BRANCH   7   8
HETATM    8  C   UNL     1     -44.602 -52.580  13.386  1.00  0.00     0.125 C 
HETATM    9  C   UNL     1     -45.883 -51.832  12.961  1.00  0.00     0.032 C 
HETATM   10  C   UNL     1     -46.720 -51.387  14.167  1.00  0.00     0.002 C 
HETATM   11  C   UNL     1     -46.988 -52.517  15.165  1.00  0.00     0.001 C 
HETATM   12  C   UNL     1     -45.727 -53.315  15.512  1.00  0.00     0.007 C 
HETATM   13  C   UNL     1     -45.055 -53.802  14.225  1.00  0.00     0.010 C 
HETATM   14  C   UNL     1     -43.994 -54.874  14.485  1.00  0.00     0.012 C 
ENDBRANCH   7   8
ENDBRANCH   6   7
ENDBRANCH   5   6
ENDBRANCH   3   5
BRANCH   1  15
HETATM   15  C   UNL     1     -42.324 -47.675  11.048  1.00  0.00     0.196 C 
HETATM   16  C   UNL     1     -43.122 -47.162  12.250  1.00  0.00     0.044 C 
BRANCH  15  17
HETATM   17  N   UNL     1     -43.123 -47.647   9.832  1.00  0.00    -0.273 N 
HETATM   18  C   UNL     1     -44.403 -47.221   9.661  1.00  0.00     0.202 A 
HETATM   19  N   UNL     1     -44.762 -47.408   8.410  1.00  0.00    -0.346 N 
HETATM   20  C   UNL     1     -43.650 -47.968   7.851  1.00  0.00     0.198 A 
ATOM     21  HN  UNL     1     -45.654 -47.189   7.966  1.00  0.00     0.167 HD
HETATM   22  N   UNL     1     -42.623 -48.150   8.684  1.00  0.00    -0.292 N 
ATOM     23  HN  UNL     1     -41.706 -48.559   8.502  1.00  0.00     0.188 HD
ENDBRANCH  15  17
ENDBRANCH   1  15
TORSDOF 6
ENDMDL
MODEL 3
REMARK VINA RESULT:      -6.1      1.847      2.511
REMARK  6 active torsions:
REMARK  status: ('A' for Active; 'I' for Inactive)
REMARK    1  A    between atoms: C_2  and  C_3 
REMARK    2  A    between atoms: C_2  and  N_16 
REMARK       I    between atoms: C_3  and  N_5 
REMARK    3  A    between atoms: N_5  and  C_6 
REMARK    4  A    between atoms: C_6  and  C_7 
REMARK    5  A    between atoms: C_7  and  O_8 
REMARK    6  A    between atoms: O_8  and  C_9 
ROOT
HETATM    1  C   UNL     1     -40.958 -50.340  12.272  1.00  0.00     0.242 C 
HETATM    2  O   UNL     1     -40.734 -50.235  13.477  1.00  0.00    -0.271 OA
HETATM    3  N   UNL     1     -41.447 -51.507  11.721  1.00  0.00    -0.357 N 
HETATM    4  H   UNL     1     -41.588 -51.593  10.718  1.00  0.00     0.162 HD
ENDROOT
BRANCH   3   5
HETATM    5  C   UNL     1     -41.781 -52.679  12.523  1.00  0.00     0.148 C 
BRANCH   5   6
HETATM    6  C   UNL     1     -43.261 -53.044  12.395  1.00  0.00     0.187 C 
BRANCH   6   7
HETATM    7  O   UNL     1     -44.012 -52.577  13.514  1.00  0.00    -0.384 OA
BRANCH   7   8
HETATM    8  C   UNL     1     -44.633 -51.290  13.330  1.00  0.00     0.125 C 
HETATM    9  C   UNL     1     -44.209 -50.428  14.537  1.00  0.00     0.032 C 
HETATM   10  C   UNL     1     -44.776 -50.964  15.858  1.00  0.00     0.002 C 
HETATM   11  C   UNL     1     -46.284 -51.224  15.805  1.00  0.00     0.001 C 
HETATM   12  C   UNL     1     -46.710 -52.001  14.556  1.00  0.00     0.007 C 
HETATM   13  C   UNL     1     -46.182 -51.295  13.304  1.00  0.00     0.010 C 
HETATM   14  C   UNL     1     -46.836 -51.808  12.019  1.00  0.00     0.012 C 
ENDBRANCH   7   8
ENDBRANCH   6   7
ENDBRANCH   5   6
ENDBRANCH   3   5
BRANCH   1  15
HETATM   15  C   UNL     1     -40.630 -49.213  11.295  1.00  0.00     0.196 C 
HETATM   16  C   UNL     1     -39.660 -48.201  11.909  1.00  0.00     0.044 C 
BRANCH  15  17
HETATM   17  N   UNL     1     -41.835 -48.561  10.805  1.00  0.00    -0.273 N 
HETATM   18  C   UNL     1     -42.987 -48.283  11.473  1.00  0.00     0.202 A 
HETATM   19  N   UNL     1     -43.847 -47.726  10.649  1.00  0.00    -0.346 N 
HETATM   20  C   UNL     1     -43.162 -47.693   9.468  1.00  0.00     0.198 A 
ATOM     21  HN  UNL     1     -44.792 -47.398  10.844  1.00  0.00     0.167 HD
HETATM   22  N   UNL     1     -41.931 -48.207   9.507  1.00  0.00    -0.292 N 
ATOM     23  HN  UNL     1     -41.247 -48.305   8.757  1.00  0.00     0.188 HD
ENDBRANCH  15  17
ENDBRANCH   1  15
TORSDOF 6
ENDMDL
MODEL 4
REMARK VINA RESULT:      -6.1      1.596      2.460
REMARK  6 active torsions:
REMARK  status: ('A' for Active; 'I' for Inactive)
REMARK    1  A    between atoms: C_2  and  C_3 
REMARK    2  A    between atoms: C_2  and  N_16 
REMARK       I    between atoms: C_3  and  N_5 
REMARK    3  A    between atoms: N_5  and  C_6 
REMARK    4  A    between atoms: C_6  and  C_7 
REMARK    5  A    between atoms: C_7  and  O_8 
REMARK    6  A    between atoms: O_8  and  C_9 
ROOT
HETATM    1  C   UNL     1     -42.702 -48.154  11.442  1.00  0.00     0.242 C 
HETATM    2  O   UNL     1     -43.111 -47.592  12.459  1.00  0.00    -0.271 OA
HETATM    3  N   UNL     1     -42.196 -49.437  11.473  1.00  0.00    -0.357 N 
HETATM    4  H   UNL     1     -41.823 -49.873  10.633  1.00  0.00     0.162 HD
ENDROOT
BRANCH   3   5
HETATM    5  C   UNL     1     -42.151 -50.238  12.691  1.00  0.00     0.148 C 
BRANCH   5   6
HETATM    6  C   UNL     1     -43.507 -50.882  12.990  1.00  0.00     0.187 C 
BRANCH   6   7
HETATM    7  O   UNL     1     -43.356 -52.105  13.708  1.00  0.00    -0.384 OA
BRANCH   7   8
HETATM    8  C   UNL     1     -43.067 -53.255  12.889  1.00  0.00     0.125 C 
HETATM    9  C   UNL     1     -44.330 -54.141  12.925  1.00  0.00     0.032 C 
HETATM   10  C   UNL     1     -44.604 -54.702  14.327  1.00  0.00     0.002 C 
HETATM   11  C   UNL     1     -43.380 -55.374  14.956  1.00  0.00     0.001 C 
HETATM   12  C   UNL     1     -42.109 -54.528  14.835  1.00  0.00     0.007 C 
HETATM   13  C   UNL     1     -41.888 -54.137  13.371  1.00  0.00     0.010 C 
HETATM   14  C   UNL     1     -40.483 -53.587  13.115  1.00  0.00     0.012 C 
ENDBRANCH   7   8
ENDBRANCH   6   7
ENDBRANCH   5   6
ENDBRANCH   3   5
BRANCH   1  15
HETATM   15  C   UNL     1     -42.653 -47.435  10.096  1.00  0.00     0.196 C 
HETATM   16  C   UNL     1     -41.773 -46.184  10.157  1.00  0.00     0.044 C 
BRANCH  15  17
HETATM   17  N   UNL     1     -43.987 -47.121   9.607  1.00  0.00    -0.273 N 
HETATM   18  C   UNL     1     -44.413 -46.017   8.936  1.00  0.00     0.202 A 
HETATM   19  N   UNL     1     -45.706 -46.109   8.718  1.00  0.00    -0.346 N 
HETATM   20  C   UNL     1     -46.030 -47.303   9.295  1.00  0.00     0.198 A 
ATOM     21  HN  UNL     1     -46.318 -45.450   8.237  1.00  0.00     0.167 HD
HETATM   22  N   UNL     1     -45.016 -47.956   9.867  1.00  0.00    -0.292 N 
ATOM     23  HN  UNL     1     -45.017 -48.845  10.365  1.00  0.00     0.188 HD
ENDBRANCH  15  17
ENDBRANCH   1  15
TORSDOF 6
ENDMDL
MODEL 5
REMARK VINA RESULT:      -5.6      3.760      4.880
REMARK  6 active torsions:
REMARK  status: ('A' for Active; 'I' for Inactive)
REMARK    1  A    between atoms: C_2  and  C_3 
REMARK    2  A    between atoms: C_2  and  N_16 
REMARK       I    between atoms: C_3  and  N_5 
REMARK    3  A    between atoms: N_5  and  C_6 
REMARK    4  A    between atoms: C_6  and  C_7 
REMARK    5  A    between atoms: C_7  and  O_8 
REMARK    6  A    between atoms: O_8  and  C_9 
ROOT
HETATM    1  C   UNL     1     -41.015 -52.495  13.366  1.00  0.00     0.242 C 
HETATM    2  O   UNL     1     -40.428 -53.270  12.611  1.00  0.00    -0.271 OA
HETATM    3  N   UNL     1     -41.872 -52.945  14.348  1.00  0.00    -0.357 N 
HETATM    4  H   UNL     1     -42.383 -52.292  14.937  1.00  0.00     0.162 HD
ENDROOT
BRANCH   3   5
HETATM    5  C   UNL     1     -42.108 -54.362  14.601  1.00  0.00     0.148 C 
BRANCH   5   6
HETATM    6  C   UNL     1     -43.380 -54.582  15.422  1.00  0.00     0.187 C 
BRANCH   6   7
HETATM    7  O   UNL     1     -44.225 -53.432  15.393  1.00  0.00    -0.384 OA
BRANCH   7   8
HETATM    8  C   UNL     1     -45.604 -53.704  15.077  1.00  0.00     0.125 C 
HETATM    9  C   UNL     1     -45.632 -54.139  13.597  1.00  0.00     0.032 C 
HETATM   10  C   UNL     1     -45.218 -53.003  12.652  1.00  0.00     0.002 C 
HETATM   11  C   UNL     1     -45.976 -51.698  12.909  1.00  0.00     0.001 C 
HETATM   12  C   UNL     1     -46.023 -51.320  14.392  1.00  0.00     0.007 C 
HETATM   13  C   UNL     1     -46.567 -52.497  15.207  1.00  0.00     0.010 C 
HETATM   14  C   UNL     1     -46.959 -52.095  16.631  1.00  0.00     0.012 C 
ENDBRANCH   7   8
ENDBRANCH   6   7
ENDBRANCH   5   6
ENDBRANCH   3   5
BRANCH   1  15
HETATM   15  C   UNL     1     -40.898 -50.980  13.207  1.00  0.00     0.196 C 
HETATM   16  C   UNL     1     -42.158 -50.380  12.579  1.00  0.00     0.044 C 
BRANCH  15  17
HETATM   17  N   UNL     1     -39.706 -50.611  12.458  1.00  0.00    -0.273 N 
HETATM   18  C   UNL     1     -39.608 -49.888  11.311  1.00  0.00     0.202 A 
HETATM   19  N   UNL     1     -38.348 -49.822  10.942  1.00  0.00    -0.346 N 
HETATM   20  C   UNL     1     -37.706 -50.539  11.909  1.00  0.00     0.198 A 
ATOM     21  HN  UNL     1     -37.947 -49.349  10.131  1.00  0.00     0.167 HD
HETATM   22  N   UNL     1     -38.495 -51.057  12.854  1.00  0.00    -0.292 N 
ATOM     23  HN  UNL     1     -38.249 -51.635  13.657  1.00  0.00     0.188 HD
ENDBRANCH  15  17
ENDBRANCH   1  15
TORSDOF 6
ENDMDL
MODEL 6
REMARK VINA RESULT:      -5.5      1.414      2.264
REMARK  6 active torsions:
REMARK  status: ('A' for Active; 'I' for Inactive)
REMARK    1  A    between atoms: C_2  and  C_3 
REMARK    2  A    between atoms: C_2  and  N_16 
REMARK       I    between atoms: C_3  and  N_5 
REMARK    3  A    between atoms: N_5  and  C_6 
REMARK    4  A    between atoms: C_6  and  C_7 
REMARK    5  A    between atoms: C_7  and  O_8 
REMARK    6  A    between atoms: O_8  and  C_9 
ROOT
HETATM    1  C   UNL     1     -41.818 -48.762  11.154  1.00  0.00     0.242 C 
HETATM    2  O   UNL     1     -40.728 -49.190  10.774  1.00  0.00    -0.271 OA
HETATM    3  N   UNL     1     -42.642 -49.500  11.977  1.00  0.00    -0.357 N 
HETATM    4  H   UNL     1     -43.558 -49.151  12.249  1.00  0.00     0.162 HD
ENDROOT
BRANCH   3   5
HETATM    5  C   UNL     1     -42.270 -50.811  12.497  1.00  0.00     0.148 C 
BRANCH   5   6
HETATM    6  C   UNL     1     -42.828 -51.036  13.904  1.00  0.00     0.187 C 
BRANCH   6   7
HETATM    7  O   UNL     1     -44.104 -51.673  13.863  1.00  0.00    -0.384 OA
BRANCH   7   8
HETATM    8  C   UNL     1     -44.530 -52.254  15.110  1.00  0.00     0.125 C 
HETATM    9  C   UNL     1     -43.743 -53.572  15.266  1.00  0.00     0.032 C 
HETATM   10  C   UNL     1     -44.121 -54.601  14.192  1.00  0.00     0.002 C 
HETATM   11  C   UNL     1     -45.632 -54.814  14.067  1.00  0.00     0.001 C 
HETATM   12  C   UNL     1     -46.415 -53.499  14.006  1.00  0.00     0.007 C 
HETATM   13  C   UNL     1     -46.034 -52.617  15.198  1.00  0.00     0.010 C 
HETATM   14  C   UNL     1     -47.001 -51.448  15.398  1.00  0.00     0.012 C 
ENDBRANCH   7   8
ENDBRANCH   6   7
ENDBRANCH   5   6
ENDBRANCH   3   5
BRANCH   1  15
HETATM   15  C   UNL     1     -42.363 -47.420  10.670  1.00  0.00     0.196 C 
HETATM   16  C   UNL     1     -42.746 -46.513  11.841  1.00  0.00     0.044 C 
BRANCH  15  17
HETATM   17  N   UNL     1     -43.477 -47.596   9.751  1.00  0.00    -0.273 N 
HETATM   18  C   UNL     1     -43.458 -47.696   8.394  1.00  0.00     0.202 A 
HETATM   19  N   UNL     1     -44.689 -47.801   7.946  1.00  0.00    -0.346 N 
HETATM   20  C   UNL     1     -45.437 -47.751   9.087  1.00  0.00     0.198 A 
ATOM     21  HN  UNL     1     -45.008 -47.897   6.982  1.00  0.00     0.167 HD
HETATM   22  N   UNL     1     -44.744 -47.610  10.218  1.00  0.00    -0.292 N 
ATOM     23  HN  UNL     1     -45.080 -47.534  11.178  1.00  0.00     0.188 HD
ENDBRANCH  15  17
ENDBRANCH   1  15
TORSDOF 6
ENDMDL
MODEL 7
REMARK VINA RESULT:      -5.3      3.347      4.260
REMARK  6 active torsions:
REMARK  status: ('A' for Active; 'I' for Inactive)
REMARK    1  A    between atoms: C_2  and  C_3 
REMARK    2  A    between atoms: C_2  and  N_16 
REMARK       I    between atoms: C_3  and  N_5 
REMARK    3  A    between atoms: N_5  and  C_6 
REMARK    4  A    between atoms: C_6  and  C_7 
REMARK    5  A    between atoms: C_7  and  O_8 
REMARK    6  A    between atoms: O_8  and  C_9 
ROOT
HETATM    1  C   UNL     1     -39.437 -51.123  12.488  1.00  0.00     0.242 C 
HETATM    2  O   UNL     1     -38.681 -51.878  13.100  1.00  0.00    -0.271 OA
HETATM    3  N   UNL     1     -40.800 -51.334  12.447  1.00  0.00    -0.357 N 
HETATM    4  H   UNL     1     -41.407 -50.727  11.903  1.00  0.00     0.162 HD
ENDROOT
BRANCH   3   5
HETATM    5  C   UNL     1     -41.450 -52.429  13.159  1.00  0.00     0.148 C 
BRANCH   5   6
HETATM    6  C   UNL     1     -42.820 -52.754  12.558  1.00  0.00     0.187 C 
BRANCH   6   7
HETATM    7  O   UNL     1     -43.870 -52.500  13.489  1.00  0.00    -0.384 OA
BRANCH   7   8
HETATM    8  C   UNL     1     -44.549 -51.242  13.306  1.00  0.00     0.125 C 
HETATM    9  C   UNL     1     -44.168 -50.363  14.515  1.00  0.00     0.032 C 
HETATM   10  C   UNL     1     -44.711 -50.926  15.834  1.00  0.00     0.002 C 
HETATM   11  C   UNL     1     -46.206 -51.255  15.778  1.00  0.00     0.001 C 
HETATM   12  C   UNL     1     -46.594 -52.050  14.528  1.00  0.00     0.007 C 
HETATM   13  C   UNL     1     -46.097 -51.318  13.278  1.00  0.00     0.010 C 
HETATM   14  C   UNL     1     -46.724 -51.859  11.991  1.00  0.00     0.012 C 
ENDBRANCH   7   8
ENDBRANCH   6   7
ENDBRANCH   5   6
ENDBRANCH   3   5
BRANCH   1  15
HETATM   15  C   UNL     1     -38.905 -49.952  11.665  1.00  0.00     0.196 C 
HETATM   16  C   UNL     1     -37.420 -50.120  11.339  1.00  0.00     0.044 C 
BRANCH  15  17
HETATM   17  N   UNL     1     -39.162 -48.678  12.320  1.00  0.00    -0.273 N 
HETATM   18  C   UNL     1     -38.712 -48.229  13.522  1.00  0.00     0.202 A 
HETATM   19  N   UNL     1     -39.216 -47.038  13.762  1.00  0.00    -0.346 N 
HETATM   20  C   UNL     1     -39.987 -46.805  12.661  1.00  0.00     0.198 A 
ATOM     21  HN  UNL     1     -39.067 -46.437  14.572  1.00  0.00     0.167 HD
HETATM   22  N   UNL     1     -40.001 -47.784  11.754  1.00  0.00    -0.292 N 
ATOM     23  HN  UNL     1     -40.508 -47.842  10.871  1.00  0.00     0.188 HD
ENDBRANCH  15  17
ENDBRANCH   1  15
TORSDOF 6
ENDMDL
MODEL 8
REMARK VINA RESULT:      -5.2      4.378      5.284
REMARK  6 active torsions:
REMARK  status: ('A' for Active; 'I' for Inactive)
REMARK    1  A    between atoms: C_2  and  C_3 
REMARK    2  A    between atoms: C_2  and  N_16 
REMARK       I    between atoms: C_3  and  N_5 
REMARK    3  A    between atoms: N_5  and  C_6 
REMARK    4  A    between atoms: C_6  and  C_7 
REMARK    5  A    between atoms: C_7  and  O_8 
REMARK    6  A    between atoms: O_8  and  C_9 
ROOT
HETATM    1  C   UNL     1     -40.412 -52.620  13.206  1.00  0.00     0.242 C 
HETATM    2  O   UNL     1     -40.531 -53.066  12.065  1.00  0.00    -0.271 OA
HETATM    3  N   UNL     1     -41.507 -52.353  14.001  1.00  0.00    -0.357 N 
HETATM    4  H   UNL     1     -41.396 -51.946  14.927  1.00  0.00     0.162 HD
ENDROOT
BRANCH   3   5
HETATM    5  C   UNL     1     -42.876 -52.623  13.576  1.00  0.00     0.148 C 
BRANCH   5   6
HETATM    6  C   UNL     1     -43.598 -53.548  14.558  1.00  0.00     0.187 C 
BRANCH   6   7
HETATM    7  O   UNL     1     -44.469 -52.816  15.418  1.00  0.00    -0.384 OA
BRANCH   7   8
HETATM    8  C   UNL     1     -44.843 -51.512  14.933  1.00  0.00     0.125 C 
HETATM    9  C   UNL     1     -44.726 -50.552  16.135  1.00  0.00     0.032 C 
HETATM   10  C   UNL     1     -45.742 -50.879  17.237  1.00  0.00     0.002 C 
HETATM   11  C   UNL     1     -47.175 -51.015  16.714  1.00  0.00     0.001 C 
HETATM   12  C   UNL     1     -47.271 -51.896  15.465  1.00  0.00     0.007 C 
HETATM   13  C   UNL     1     -46.293 -51.389  14.401  1.00  0.00     0.010 C 
HETATM   14  C   UNL     1     -46.560 -51.993  13.020  1.00  0.00     0.012 C 
ENDBRANCH   7   8
ENDBRANCH   6   7
ENDBRANCH   5   6
ENDBRANCH   3   5
BRANCH   1  15
HETATM   15  C   UNL     1     -39.047 -52.254  13.784  1.00  0.00     0.196 C 
HETATM   16  C   UNL     1     -39.085 -52.172  15.312  1.00  0.00     0.044 C 
BRANCH  15  17
HETATM   17  N   UNL     1     -38.530 -51.025  13.201  1.00  0.00    -0.273 N 
HETATM   18  C   UNL     1     -37.952 -49.962  13.822  1.00  0.00     0.202 A 
HETATM   19  N   UNL     1     -37.667 -49.037  12.932  1.00  0.00    -0.346 N 
HETATM   20  C   UNL     1     -38.106 -49.590  11.764  1.00  0.00     0.198 A 
ATOM     21  HN  UNL     1     -37.226 -48.129  13.078  1.00  0.00     0.167 HD
HETATM   22  N   UNL     1     -38.657 -50.801  11.876  1.00  0.00    -0.292 N 
ATOM     23  HN  UNL     1     -39.064 -51.396  11.155  1.00  0.00     0.188 HD
ENDBRANCH  15  17
ENDBRANCH   1  15
TORSDOF 6
ENDMDL
MODEL 9
REMARK VINA RESULT:      -5.2      2.468      3.516
REMARK  6 active torsions:
REMARK  status: ('A' for Active; 'I' for Inactive)
REMARK    1  A    between atoms: C_2  and  C_3 
REMARK    2  A    between atoms: C_2  and  N_16 
REMARK       I    between atoms: C_3  and  N_5 
REMARK    3  A    between atoms: N_5  and  C_6 
REMARK    4  A    between atoms: C_6  and  C_7 
REMARK    5  A    between atoms: C_7  and  O_8 
REMARK    6  A    between atoms: O_8  and  C_9 
ROOT
HETATM    1  C   UNL     1     -41.160 -47.978  11.419  1.00  0.00     0.242 C 
HETATM    2  O   UNL     1     -40.259 -47.194  11.121  1.00  0.00    -0.271 OA
HETATM    3  N   UNL     1     -40.930 -49.330  11.562  1.00  0.00    -0.357 N 
HETATM    4  H   UNL     1     -41.691 -49.972  11.767  1.00  0.00     0.162 HD
ENDROOT
BRANCH   3   5
HETATM    5  C   UNL     1     -39.605 -49.924  11.424  1.00  0.00     0.148 C 
BRANCH   5   6
HETATM    6  C   UNL     1     -39.266 -50.825  12.614  1.00  0.00     0.187 C 
BRANCH   6   7
HETATM    7  O   UNL     1     -40.432 -51.456  13.138  1.00  0.00    -0.384 OA
BRANCH   7   8
HETATM    8  C   UNL     1     -40.746 -52.732  12.548  1.00  0.00     0.125 C 
HETATM    9  C   UNL     1     -42.190 -52.621  12.016  1.00  0.00     0.032 C 
HETATM   10  C   UNL     1     -43.210 -52.438  13.148  1.00  0.00     0.002 C 
HETATM   11  C   UNL     1     -43.060 -53.472  14.267  1.00  0.00     0.001 C 
HETATM   12  C   UNL     1     -41.609 -53.644  14.727  1.00  0.00     0.007 C 
HETATM   13  C   UNL     1     -40.718 -53.941  13.517  1.00  0.00     0.010 C 
HETATM   14  C   UNL     1     -39.332 -54.453  13.919  1.00  0.00     0.012 C 
ENDBRANCH   7   8
ENDBRANCH   6   7
ENDBRANCH   5   6
ENDBRANCH   3   5
BRANCH   1  15
HETATM   15  C   UNL     1     -42.608 -47.515  11.566  1.00  0.00     0.196 C 
HETATM   16  C   UNL     1     -43.456 -48.547  12.314  1.00  0.00     0.044 C 
BRANCH  15  17
HETATM   17  N   UNL     1     -43.196 -47.181  10.277  1.00  0.00    -0.273 N 
HETATM   18  C   UNL     1     -44.443 -47.458   9.810  1.00  0.00     0.202 A 
HETATM   19  N   UNL     1     -44.556 -47.016   8.577  1.00  0.00    -0.346 N 
HETATM   20  C   UNL     1     -43.327 -46.477   8.330  1.00  0.00     0.198 A 
ATOM     21  HN  UNL     1     -45.364 -47.065   7.956  1.00  0.00     0.167 HD
HETATM   22  N   UNL     1     -42.452 -46.565   9.334  1.00  0.00    -0.292 N 
ATOM     23  HN  UNL     1     -41.483 -46.252   9.377  1.00  0.00     0.188 HD
ENDBRANCH  15  17
ENDBRANCH   1  15
TORSDOF 6
ENDMDL
