MODEL 1
REMARK VINA RESULT:      -6.4      0.000      0.000
REMARK  4 active torsions:
REMARK  status: ('A' for Active; 'I' for Inactive)
REMARK    1  A    between atoms: C_5  and  C_6 
REMARK    2  A    between atoms: C_6  and  C_7 
REMARK    3  A    between atoms: C_7  and  N_8 
REMARK       I    between atoms: N_8  and  C_9 
REMARK       I    between atoms: C_9  and  N_11 
REMARK    4  A    between atoms: N_11  and  C_12 
ROOT
HETATM    1  N   UNL     1     -40.201 -49.835  10.641  1.00  0.00    -0.343 N 
HETATM    2  C   UNL     1     -41.123 -48.861  10.959  1.00  0.00     0.316 C 
HETATM    3  O   UNL     1     -41.244 -48.358  12.067  1.00  0.00    -0.247 OA
HETATM    4  N   UNL     1     -41.869 -48.514   9.857  1.00  0.00    -0.338 N 
HETATM    5  H   UNL     1     -40.490 -50.439   9.885  1.00  0.00     0.164 HD
HETATM    6  H   UNL     1     -41.409 -48.694   8.980  1.00  0.00     0.164 HD
ENDROOT
BRANCH   1   7
HETATM    7  C   UNL     1     -39.396 -50.429  11.696  1.00  0.00     0.129 C 
BRANCH   7   8
HETATM    8  C   UNL     1     -38.039 -49.737  11.856  1.00  0.00     0.060 C 
BRANCH   8   9
HETATM    9  C   UNL     1     -37.744 -49.412  13.295  1.00  0.00    -0.041 A 
HETATM   10  C   UNL     1     -37.828 -48.107  13.780  1.00  0.00     0.010 A 
HETATM   11  C   UNL     1     -37.621 -47.857  15.136  1.00  0.00     0.025 A 
HETATM   12  C   UNL     1     -37.330 -48.922  15.981  1.00  0.00     0.005 A 
HETATM   13  C   UNL     1     -37.174 -48.715  17.458  1.00  0.00     0.068 C 
HETATM   14  N   UNL     1     -37.222 -50.194  15.531  1.00  0.00    -0.369 N 
HETATM   15  C   UNL     1     -37.429 -50.410  14.212  1.00  0.00     0.095 A 
ATOM     16  HN  UNL     1     -36.994 -50.961  16.163  1.00  0.00     0.165 HD
ENDBRANCH   8   9
ENDBRANCH   7   8
ENDBRANCH   1   7
BRANCH   4  17
HETATM   17  C   UNL     1     -42.755 -47.366   9.895  1.00  0.00     0.090 C 
HETATM   18  C   UNL     1     -44.157 -47.638  10.487  1.00  0.00     0.030 C 
HETATM   19  C   UNL     1     -45.108 -47.075   9.407  1.00  0.00    -0.012 C 
HETATM   20  C   UNL     1     -45.142 -48.053   8.223  1.00  0.00     0.005 C 
HETATM   21  C   UNL     1     -44.297 -45.920   8.821  1.00  0.00     0.011 C 
HETATM   22  C   UNL     1     -43.745 -47.889   7.608  1.00  0.00     0.007 C 
HETATM   23  C   UNL     1     -43.097 -46.807   8.492  1.00  0.00     0.009 C 
ENDBRANCH   4  17
TORSDOF 4
ENDMDL
MODEL 2
REMARK VINA RESULT:      -6.4      2.543      3.949
REMARK  4 active torsions:
REMARK  status: ('A' for Active; 'I' for Inactive)
REMARK    1  A    between atoms: C_5  and  C_6 
REMARK    2  A    between atoms: C_6  and  C_7 
REMARK    3  A    between atoms: C_7  and  N_8 
REMARK       I    between atoms: N_8  and  C_9 
REMARK       I    between atoms: C_9  and  N_11 
REMARK    4  A    between atoms: N_11  and  C_12 
ROOT
HETATM    1  N   UNL     1     -40.287 -49.547  10.835  1.00  0.00    -0.343 N 
HETATM    2  C   UNL     1     -41.137 -48.486  11.063  1.00  0.00     0.316 C 
HETATM    3  O   UNL     1     -40.963 -47.631  11.918  1.00  0.00    -0.247 OA
HETATM    4  N   UNL     1     -42.194 -48.507  10.182  1.00  0.00    -0.338 N 
HETATM    5  H   UNL     1     -40.743 -50.361  10.449  1.00  0.00     0.164 HD
HETATM    6  H   UNL     1     -41.999 -48.995   9.322  1.00  0.00     0.164 HD
ENDROOT
BRANCH   1   7
HETATM    7  C   UNL     1     -39.172 -49.776  11.739  1.00  0.00     0.129 C 
BRANCH   7   8
HETATM    8  C   UNL     1     -39.274 -51.119  12.466  1.00  0.00     0.060 C 
BRANCH   8   9
HETATM    9  C   UNL     1     -40.704 -51.553  12.644  1.00  0.00    -0.041 A 
HETATM   10  C   UNL     1     -41.481 -51.086  13.704  1.00  0.00     0.010 A 
HETATM   11  C   UNL     1     -42.824 -51.451  13.791  1.00  0.00     0.025 A 
HETATM   12  C   UNL     1     -43.362 -52.282  12.814  1.00  0.00     0.005 A 
HETATM   13  C   UNL     1     -44.817 -52.640  12.823  1.00  0.00     0.068 C 
HETATM   14  N   UNL     1     -42.623 -52.764  11.788  1.00  0.00    -0.369 N 
HETATM   15  C   UNL     1     -41.323 -52.394  11.726  1.00  0.00     0.095 A 
ATOM     16  HN  UNL     1     -43.031 -53.384  11.089  1.00  0.00     0.165 HD
ENDBRANCH   8   9
ENDBRANCH   7   8
ENDBRANCH   1   7
BRANCH   4  17
HETATM   17  C   UNL     1     -43.103 -47.381  10.090  1.00  0.00     0.090 C 
HETATM   18  C   UNL     1     -44.575 -47.696  10.445  1.00  0.00     0.030 C 
HETATM   19  C   UNL     1     -45.354 -47.139   9.232  1.00  0.00    -0.012 C 
HETATM   20  C   UNL     1     -45.172 -48.098   8.047  1.00  0.00     0.005 C 
HETATM   21  C   UNL     1     -44.489 -45.955   8.799  1.00  0.00     0.011 C 
HETATM   22  C   UNL     1     -43.699 -47.892   7.667  1.00  0.00     0.007 C 
HETATM   23  C   UNL     1     -43.230 -46.808   8.657  1.00  0.00     0.009 C 
ENDBRANCH   4  17
TORSDOF 4
ENDMDL
MODEL 3
REMARK VINA RESULT:      -6.4      4.270      7.987
REMARK  4 active torsions:
REMARK  status: ('A' for Active; 'I' for Inactive)
REMARK    1  A    between atoms: C_5  and  C_6 
REMARK    2  A    between atoms: C_6  and  C_7 
REMARK    3  A    between atoms: C_7  and  N_8 
REMARK       I    between atoms: N_8  and  C_9 
REMARK       I    between atoms: C_9  and  N_11 
REMARK    4  A    between atoms: N_11  and  C_12 
ROOT
HETATM    1  N   UNL     1     -42.904 -48.655  11.279  1.00  0.00    -0.343 N 
HETATM    2  C   UNL     1     -43.209 -49.007  12.576  1.00  0.00     0.316 C 
HETATM    3  O   UNL     1     -43.159 -48.245  13.530  1.00  0.00    -0.247 OA
HETATM    4  N   UNL     1     -43.601 -50.324  12.647  1.00  0.00    -0.338 N 
HETATM    5  H   UNL     1     -42.568 -49.423  10.716  1.00  0.00     0.164 HD
HETATM    6  H   UNL     1     -43.972 -50.686  11.784  1.00  0.00     0.164 HD
ENDROOT
BRANCH   1   7
HETATM    7  C   UNL     1     -42.350 -47.339  11.008  1.00  0.00     0.129 C 
BRANCH   7   8
HETATM    8  C   UNL     1     -43.283 -46.476  10.154  1.00  0.00     0.060 C 
BRANCH   8   9
HETATM    9  C   UNL     1     -44.129 -47.310   9.230  1.00  0.00    -0.041 A 
HETATM   10  C   UNL     1     -45.468 -47.581   9.512  1.00  0.00     0.010 A 
HETATM   11  C   UNL     1     -46.238 -48.293   8.594  1.00  0.00     0.025 A 
HETATM   12  C   UNL     1     -45.650 -48.723   7.410  1.00  0.00     0.005 A 
HETATM   13  C   UNL     1     -46.455 -49.426   6.359  1.00  0.00     0.068 C 
HETATM   14  N   UNL     1     -44.348 -48.491   7.123  1.00  0.00    -0.369 N 
HETATM   15  C   UNL     1     -43.622 -47.797   8.029  1.00  0.00     0.095 A 
ATOM     16  HN  UNL     1     -43.929 -48.827   6.256  1.00  0.00     0.165 HD
ENDBRANCH   8   9
ENDBRANCH   7   8
ENDBRANCH   1   7
BRANCH   4  17
HETATM   17  C   UNL     1     -44.171 -50.862  13.868  1.00  0.00     0.090 C 
HETATM   18  C   UNL     1     -43.565 -52.204  14.339  1.00  0.00     0.030 C 
HETATM   19  C   UNL     1     -44.811 -53.094  14.551  1.00  0.00    -0.012 C 
HETATM   20  C   UNL     1     -45.346 -53.528  13.179  1.00  0.00     0.005 C 
HETATM   21  C   UNL     1     -45.871 -52.081  14.983  1.00  0.00     0.011 C 
HETATM   22  C   UNL     1     -45.917 -52.222  12.610  1.00  0.00     0.007 C 
HETATM   23  C   UNL     1     -45.674 -51.209  13.745  1.00  0.00     0.009 C 
ENDBRANCH   4  17
TORSDOF 4
ENDMDL
MODEL 4
REMARK VINA RESULT:      -6.2      5.077      6.631
REMARK  4 active torsions:
REMARK  status: ('A' for Active; 'I' for Inactive)
REMARK    1  A    between atoms: C_5  and  C_6 
REMARK    2  A    between atoms: C_6  and  C_7 
REMARK    3  A    between atoms: C_7  and  N_8 
REMARK       I    between atoms: N_8  and  C_9 
REMARK       I    between atoms: C_9  and  N_11 
REMARK    4  A    between atoms: N_11  and  C_12 
ROOT
HETATM    1  N   UNL     1     -42.964 -52.584  12.078  1.00  0.00    -0.343 N 
HETATM    2  C   UNL     1     -42.500 -51.459  12.727  1.00  0.00     0.316 C 
HETATM    3  O   UNL     1     -42.184 -51.422  13.906  1.00  0.00    -0.247 OA
HETATM    4  N   UNL     1     -42.419 -50.393  11.861  1.00  0.00    -0.338 N 
HETATM    5  H   UNL     1     -43.573 -52.383  11.298  1.00  0.00     0.164 HD
HETATM    6  H   UNL     1     -42.319 -50.658  10.895  1.00  0.00     0.164 HD
ENDROOT
BRANCH   1   7
HETATM    7  C   UNL     1     -43.239 -53.788  12.844  1.00  0.00     0.129 C 
BRANCH   7   8
HETATM    8  C   UNL     1     -44.731 -54.133  12.878  1.00  0.00     0.060 C 
BRANCH   8   9
HETATM    9  C   UNL     1     -45.476 -53.298  13.884  1.00  0.00    -0.041 A 
HETATM   10  C   UNL     1     -46.088 -52.097  13.526  1.00  0.00     0.010 A 
HETATM   11  C   UNL     1     -46.834 -51.391  14.468  1.00  0.00     0.025 A 
HETATM   12  C   UNL     1     -46.949 -51.902  15.757  1.00  0.00     0.005 A 
HETATM   13  C   UNL     1     -47.801 -51.220  16.784  1.00  0.00     0.068 C 
HETATM   14  N   UNL     1     -46.348 -53.055  16.134  1.00  0.00    -0.369 N 
HETATM   15  C   UNL     1     -45.632 -53.721  15.200  1.00  0.00     0.095 A 
ATOM     16  HN  UNL     1     -46.432 -53.407  17.087  1.00  0.00     0.165 HD
ENDBRANCH   8   9
ENDBRANCH   7   8
ENDBRANCH   1   7
BRANCH   4  17
HETATM   17  C   UNL     1     -41.762 -49.164  12.261  1.00  0.00     0.090 C 
HETATM   18  C   UNL     1     -42.677 -48.125  12.950  1.00  0.00     0.030 C 
HETATM   19  C   UNL     1     -42.403 -46.832  12.148  1.00  0.00    -0.012 C 
HETATM   20  C   UNL     1     -43.116 -46.934  10.791  1.00  0.00     0.005 C 
HETATM   21  C   UNL     1     -40.941 -47.003  11.735  1.00  0.00     0.011 C 
HETATM   22  C   UNL     1     -42.297 -48.005  10.058  1.00  0.00     0.007 C 
HETATM   23  C   UNL     1     -41.190 -48.355  11.071  1.00  0.00     0.009 C 
ENDBRANCH   4  17
TORSDOF 4
ENDMDL
MODEL 5
REMARK VINA RESULT:      -6.2      4.947      7.631
REMARK  4 active torsions:
REMARK  status: ('A' for Active; 'I' for Inactive)
REMARK    1  A    between atoms: C_5  and  C_6 
REMARK    2  A    between atoms: C_6  and  C_7 
REMARK    3  A    between atoms: C_7  and  N_8 
REMARK       I    between atoms: N_8  and  C_9 
REMARK       I    between atoms: C_9  and  N_11 
REMARK    4  A    between atoms: N_11  and  C_12 
ROOT
HETATM    1  N   UNL     1     -42.557 -52.737  11.874  1.00  0.00    -0.343 N 
HETATM    2  C   UNL     1     -42.099 -51.480  12.206  1.00  0.00     0.316 C 
HETATM    3  O   UNL     1     -42.734 -50.661  12.853  1.00  0.00    -0.247 OA
HETATM    4  N   UNL     1     -40.823 -51.282  11.732  1.00  0.00    -0.338 N 
HETATM    5  H   UNL     1     -42.159 -53.105  11.023  1.00  0.00     0.164 HD
HETATM    6  H   UNL     1     -40.304 -52.134  11.591  1.00  0.00     0.164 HD
ENDROOT
BRANCH   1   7
HETATM    7  C   UNL     1     -43.932 -53.100  12.177  1.00  0.00     0.129 C 
BRANCH   7   8
HETATM    8  C   UNL     1     -44.079 -53.736  13.562  1.00  0.00     0.060 C 
BRANCH   8   9
HETATM    9  C   UNL     1     -45.059 -52.985  14.422  1.00  0.00    -0.041 A 
HETATM   10  C   UNL     1     -45.880 -51.989  13.893  1.00  0.00     0.010 A 
HETATM   11  C   UNL     1     -46.829 -51.369  14.705  1.00  0.00     0.025 A 
HETATM   12  C   UNL     1     -46.935 -51.759  16.036  1.00  0.00     0.005 A 
HETATM   13  C   UNL     1     -47.989 -51.177  16.929  1.00  0.00     0.068 C 
HETATM   14  N   UNL     1     -46.136 -52.708  16.578  1.00  0.00    -0.369 N 
HETATM   15  C   UNL     1     -45.225 -53.294  15.768  1.00  0.00     0.095 A 
ATOM     16  HN  UNL     1     -46.218 -52.971  17.559  1.00  0.00     0.165 HD
ENDBRANCH   8   9
ENDBRANCH   7   8
ENDBRANCH   1   7
BRANCH   4  17
HETATM   17  C   UNL     1     -40.056 -50.120  12.135  1.00  0.00     0.090 C 
HETATM   18  C   UNL     1     -38.837 -49.796  11.240  1.00  0.00     0.030 C 
HETATM   19  C   UNL     1     -37.681 -49.667  12.258  1.00  0.00    -0.012 C 
HETATM   20  C   UNL     1     -37.279 -51.073  12.728  1.00  0.00     0.005 C 
HETATM   21  C   UNL     1     -38.391 -49.124  13.498  1.00  0.00     0.011 C 
HETATM   22  C   UNL     1     -38.480 -51.499  13.584  1.00  0.00     0.007 C 
HETATM   23  C   UNL     1     -39.404 -50.267  13.531  1.00  0.00     0.009 C 
ENDBRANCH   4  17
TORSDOF 4
ENDMDL
MODEL 6
REMARK VINA RESULT:      -6.1      4.549      6.387
REMARK  4 active torsions:
REMARK  status: ('A' for Active; 'I' for Inactive)
REMARK    1  A    between atoms: C_5  and  C_6 
REMARK    2  A    between atoms: C_6  and  C_7 
REMARK    3  A    between atoms: C_7  and  N_8 
REMARK       I    between atoms: N_8  and  C_9 
REMARK       I    between atoms: C_9  and  N_11 
REMARK    4  A    between atoms: N_11  and  C_12 
ROOT
HETATM    1  N   UNL     1     -42.198 -49.758  11.601  1.00  0.00    -0.343 N 
HETATM    2  C   UNL     1     -42.936 -49.699  12.765  1.00  0.00     0.316 C 
HETATM    3  O   UNL     1     -42.913 -48.765  13.552  1.00  0.00    -0.247 OA
HETATM    4  N   UNL     1     -43.718 -50.822  12.906  1.00  0.00    -0.338 N 
HETATM    5  H   UNL     1     -41.976 -50.697  11.306  1.00  0.00     0.164 HD
HETATM    6  H   UNL     1     -43.935 -51.280  12.036  1.00  0.00     0.164 HD
ENDROOT
BRANCH   1   7
HETATM    7  C   UNL     1     -41.214 -48.724  11.326  1.00  0.00     0.129 C 
BRANCH   7   8
HETATM    8  C   UNL     1     -41.719 -47.689  10.317  1.00  0.00     0.060 C 
BRANCH   8   9
HETATM    9  C   UNL     1     -41.382 -46.284  10.740  1.00  0.00    -0.041 A 
HETATM   10  C   UNL     1     -40.074 -45.803  10.698  1.00  0.00     0.010 A 
HETATM   11  C   UNL     1     -39.814 -44.473  11.025  1.00  0.00     0.025 A 
HETATM   12  C   UNL     1     -40.873 -43.650  11.392  1.00  0.00     0.005 A 
HETATM   13  C   UNL     1     -40.655 -42.195  11.679  1.00  0.00     0.068 C 
HETATM   14  N   UNL     1     -42.148 -44.098  11.461  1.00  0.00    -0.369 N 
HETATM   15  C   UNL     1     -42.373 -45.392  11.137  1.00  0.00     0.095 A 
ATOM     16  HN  UNL     1     -42.910 -43.484  11.746  1.00  0.00     0.165 HD
ENDBRANCH   8   9
ENDBRANCH   7   8
ENDBRANCH   1   7
BRANCH   4  17
HETATM   17  C   UNL     1     -44.733 -50.891  13.940  1.00  0.00     0.090 C 
HETATM   18  C   UNL     1     -44.458 -51.921  15.060  1.00  0.00     0.030 C 
HETATM   19  C   UNL     1     -45.771 -52.734  15.117  1.00  0.00    -0.012 C 
HETATM   20  C   UNL     1     -45.816 -53.683  13.910  1.00  0.00     0.005 C 
HETATM   21  C   UNL     1     -46.821 -51.695  14.723  1.00  0.00     0.011 C 
HETATM   22  C   UNL     1     -46.026 -52.722  12.731  1.00  0.00     0.007 C 
HETATM   23  C   UNL     1     -46.117 -51.344  13.414  1.00  0.00     0.009 C 
ENDBRANCH   4  17
TORSDOF 4
ENDMDL
MODEL 7
REMARK VINA RESULT:      -6.0      4.451      6.492
REMARK  4 active torsions:
REMARK  status: ('A' for Active; 'I' for Inactive)
REMARK    1  A    between atoms: C_5  and  C_6 
REMARK    2  A    between atoms: C_6  and  C_7 
REMARK    3  A    between atoms: C_7  and  N_8 
REMARK       I    between atoms: N_8  and  C_9 
REMARK       I    between atoms: C_9  and  N_11 
REMARK    4  A    between atoms: N_11  and  C_12 
ROOT
HETATM    1  N   UNL     1     -40.008 -52.010  14.180  1.00  0.00    -0.343 N 
HETATM    2  C   UNL     1     -40.854 -52.799  13.430  1.00  0.00     0.316 C 
HETATM    3  O   UNL     1     -40.559 -53.305  12.357  1.00  0.00    -0.247 OA
HETATM    4  N   UNL     1     -42.065 -52.959  14.063  1.00  0.00    -0.338 N 
HETATM    5  H   UNL     1     -40.486 -51.338  14.762  1.00  0.00     0.164 HD
HETATM    6  H   UNL     1     -42.021 -52.842  15.063  1.00  0.00     0.164 HD
ENDROOT
BRANCH   1   7
HETATM    7  C   UNL     1     -38.722 -51.618  13.629  1.00  0.00     0.129 C 
BRANCH   7   8
HETATM    8  C   UNL     1     -38.589 -50.101  13.474  1.00  0.00     0.060 C 
BRANCH   8   9
HETATM    9  C   UNL     1     -39.679 -49.530  12.607  1.00  0.00    -0.041 A 
HETATM   10  C   UNL     1     -40.539 -48.537  13.077  1.00  0.00     0.010 A 
HETATM   11  C   UNL     1     -41.487 -47.979  12.219  1.00  0.00     0.025 A 
HETATM   12  C   UNL     1     -41.555 -48.430  10.906  1.00  0.00     0.005 A 
HETATM   13  C   UNL     1     -42.505 -47.810   9.926  1.00  0.00     0.068 C 
HETATM   14  N   UNL     1     -40.746 -49.406  10.432  1.00  0.00    -0.369 N 
HETATM   15  C   UNL     1     -39.834 -49.930  11.284  1.00  0.00     0.095 A 
ATOM     16  HN  UNL     1     -40.820 -49.735   9.470  1.00  0.00     0.165 HD
ENDBRANCH   8   9
ENDBRANCH   7   8
ENDBRANCH   1   7
BRANCH   4  17
HETATM   17  C   UNL     1     -43.037 -53.916  13.570  1.00  0.00     0.090 C 
HETATM   18  C   UNL     1     -44.060 -53.349  12.558  1.00  0.00     0.030 C 
HETATM   19  C   UNL     1     -45.418 -53.787  13.151  1.00  0.00    -0.012 C 
HETATM   20  C   UNL     1     -45.740 -52.895  14.359  1.00  0.00     0.005 C 
HETATM   21  C   UNL     1     -45.069 -55.109  13.836  1.00  0.00     0.011 C 
HETATM   22  C   UNL     1     -44.714 -53.355  15.403  1.00  0.00     0.007 C 
HETATM   23  C   UNL     1     -43.957 -54.485  14.677  1.00  0.00     0.009 C 
ENDBRANCH   4  17
TORSDOF 4
ENDMDL
MODEL 8
REMARK VINA RESULT:      -6.0      4.602      7.846
REMARK  4 active torsions:
REMARK  status: ('A' for Active; 'I' for Inactive)
REMARK    1  A    between atoms: C_5  and  C_6 
REMARK    2  A    between atoms: C_6  and  C_7 
REMARK    3  A    between atoms: C_7  and  N_8 
REMARK       I    between atoms: N_8  and  C_9 
REMARK       I    between atoms: C_9  and  N_11 
REMARK    4  A    between atoms: N_11  and  C_12 
ROOT
HETATM    1  N   UNL     1     -40.946 -53.510  15.006  1.00  0.00    -0.343 N 
HETATM    2  C   UNL     1     -40.898 -52.149  14.790  1.00  0.00     0.316 C 
HETATM    3  O   UNL     1     -41.723 -51.353  15.211  1.00  0.00    -0.247 OA
HETATM    4  N   UNL     1     -39.785 -51.808  14.058  1.00  0.00    -0.338 N 
HETATM    5  H   UNL     1     -40.503 -54.055  14.281  1.00  0.00     0.164 HD
HETATM    6  H   UNL     1     -39.028 -52.469  14.134  1.00  0.00     0.164 HD
ENDROOT
BRANCH   1   7
HETATM    7  C   UNL     1     -42.110 -54.090  15.656  1.00  0.00     0.129 C 
BRANCH   7   8
HETATM    8  C   UNL     1     -42.929 -54.973  14.711  1.00  0.00     0.060 C 
BRANCH   8   9
HETATM    9  C   UNL     1     -44.013 -54.194  14.016  1.00  0.00    -0.041 A 
HETATM   10  C   UNL     1     -45.257 -53.984  14.611  1.00  0.00     0.010 A 
HETATM   11  C   UNL     1     -46.208 -53.193  13.969  1.00  0.00     0.025 A 
HETATM   12  C   UNL     1     -45.895 -52.628  12.737  1.00  0.00     0.005 A 
HETATM   13  C   UNL     1     -46.854 -51.709  12.043  1.00  0.00     0.068 C 
HETATM   14  N   UNL     1     -44.703 -52.833  12.130  1.00  0.00    -0.369 N 
HETATM   15  C   UNL     1     -43.797 -53.604  12.775  1.00  0.00     0.095 A 
ATOM     16  HN  UNL     1     -44.495 -52.423  11.220  1.00  0.00     0.165 HD
ENDBRANCH   8   9
ENDBRANCH   7   8
ENDBRANCH   1   7
BRANCH   4  17
HETATM   17  C   UNL     1     -39.410 -50.418  13.885  1.00  0.00     0.090 C 
HETATM   18  C   UNL     1     -39.812 -49.793  12.529  1.00  0.00     0.030 C 
HETATM   19  C   UNL     1     -38.490 -49.171  12.025  1.00  0.00    -0.012 C 
HETATM   20  C   UNL     1     -37.576 -50.298  11.521  1.00  0.00     0.005 C 
HETATM   21  C   UNL     1     -37.793 -48.776  13.327  1.00  0.00     0.011 C 
HETATM   22  C   UNL     1     -37.177 -51.016  12.817  1.00  0.00     0.007 C 
HETATM   23  C   UNL     1     -37.879 -50.186  13.909  1.00  0.00     0.009 C 
ENDBRANCH   4  17
TORSDOF 4
ENDMDL
MODEL 9
REMARK VINA RESULT:      -6.0      4.473      6.495
REMARK  4 active torsions:
REMARK  status: ('A' for Active; 'I' for Inactive)
REMARK    1  A    between atoms: C_5  and  C_6 
REMARK    2  A    between atoms: C_6  and  C_7 
REMARK    3  A    between atoms: C_7  and  N_8 
REMARK       I    between atoms: N_8  and  C_9 
REMARK       I    between atoms: C_9  and  N_11 
REMARK    4  A    between atoms: N_11  and  C_12 
ROOT
HETATM    1  N   UNL     1     -41.650 -50.495  11.648  1.00  0.00    -0.343 N 
HETATM    2  C   UNL     1     -41.575 -51.826  11.999  1.00  0.00     0.316 C 
HETATM    3  O   UNL     1     -40.540 -52.473  12.041  1.00  0.00    -0.247 OA
HETATM    4  N   UNL     1     -42.819 -52.319  12.318  1.00  0.00    -0.338 N 
HETATM    5  H   UNL     1     -42.535 -50.229  11.241  1.00  0.00     0.164 HD
HETATM    6  H   UNL     1     -43.471 -51.615  12.624  1.00  0.00     0.164 HD
ENDROOT
BRANCH   1   7
HETATM    7  C   UNL     1     -40.461 -49.818  11.157  1.00  0.00     0.129 C 
BRANCH   7   8
HETATM    8  C   UNL     1     -39.775 -48.981  12.240  1.00  0.00     0.060 C 
BRANCH   8   9
HETATM    9  C   UNL     1     -40.004 -47.507  12.037  1.00  0.00    -0.041 A 
HETATM   10  C   UNL     1     -39.537 -46.563  12.951  1.00  0.00     0.010 A 
HETATM   11  C   UNL     1     -39.702 -45.204  12.690  1.00  0.00     0.025 A 
HETATM   12  C   UNL     1     -40.337 -44.816  11.515  1.00  0.00     0.005 A 
HETATM   13  C   UNL     1     -40.471 -43.368  11.153  1.00  0.00     0.068 C 
HETATM   14  N   UNL     1     -40.817 -45.713  10.622  1.00  0.00    -0.369 N 
HETATM   15  C   UNL     1     -40.642 -47.025  10.899  1.00  0.00     0.095 A 
ATOM     16  HN  UNL     1     -41.293 -45.410   9.772  1.00  0.00     0.165 HD
ENDBRANCH   8   9
ENDBRANCH   7   8
ENDBRANCH   1   7
BRANCH   4  17
HETATM   17  C   UNL     1     -42.964 -53.632  12.918  1.00  0.00     0.090 C 
HETATM   18  C   UNL     1     -44.387 -54.232  12.848  1.00  0.00     0.030 C 
HETATM   19  C   UNL     1     -44.668 -54.635  14.314  1.00  0.00    -0.012 C 
HETATM   20  C   UNL     1     -44.971 -53.366  15.124  1.00  0.00     0.005 C 
HETATM   21  C   UNL     1     -43.276 -54.998  14.830  1.00  0.00     0.011 C 
HETATM   22  C   UNL     1     -43.604 -52.670  15.187  1.00  0.00     0.007 C 
HETATM   23  C   UNL     1     -42.678 -53.648  14.439  1.00  0.00     0.009 C 
ENDBRANCH   4  17
TORSDOF 4
ENDMDL
