MODEL 1
REMARK VINA RESULT:      -6.7      0.000      0.000
REMARK  4 active torsions:
REMARK  status: ('A' for Active; 'I' for Inactive)
REMARK    1  A    between atoms: C_2  and  C_5 
REMARK    2  A    between atoms: C_10  and  N_11 
REMARK       I    between atoms: N_11  and  C_12 
REMARK       I    between atoms: C_12  and  N_14 
REMARK    3  A    between atoms: N_14  and  C_15 
REMARK    4  A    between atoms: N_18  and  C_21 
ROOT
HETATM    1  N   UNL     1     -41.955 -47.628  10.862  1.00  0.00    -0.304 N 
HETATM    2  C   UNL     1     -41.728 -47.633  12.216  1.00  0.00     0.321 C 
HETATM    3  O   UNL     1     -42.528 -47.247  13.062  1.00  0.00    -0.247 OA
HETATM    4  N   UNL     1     -40.489 -48.123  12.561  1.00  0.00    -0.338 N 
HETATM    5  H   UNL     1     -41.405 -48.255  10.279  1.00  0.00     0.171 HD
HETATM    6  H   UNL     1     -39.992 -48.664  11.869  1.00  0.00     0.164 HD
ENDROOT
BRANCH   1   7
HETATM    7  C   UNL     1     -43.090 -47.121  10.256  1.00  0.00     0.105 A 
HETATM    8  C   UNL     1     -43.066 -45.668   9.861  1.00  0.00     0.272 A 
HETATM    9  N   UNL     1     -44.181 -45.203   9.203  1.00  0.00    -0.331 N 
HETATM   10  O   UNL     1     -42.089 -44.961  10.103  1.00  0.00    -0.266 OA
HETATM   11  C   UNL     1     -45.280 -45.975   8.908  1.00  0.00     0.107 A 
HETATM   12  H   UNL     1     -44.151 -44.230   8.919  1.00  0.00     0.168 HD
HETATM   13  C   UNL     1     -45.334 -47.267   9.275  1.00  0.00     0.065 A 
HETATM   14  C   UNL     1     -44.201 -47.828   9.989  1.00  0.00     0.052 A 
BRANCH  13  15
HETATM   15  C   UNL     1     -46.494 -48.165   8.950  1.00  0.00     0.418 C 
HETATM   16  F   UNL     1     -46.420 -48.721   7.713  1.00  0.00    -0.166 F 
HETATM   17  F   UNL     1     -47.672 -47.495   9.008  1.00  0.00    -0.166 F 
HETATM   18  F   UNL     1     -46.586 -49.194   9.832  1.00  0.00    -0.166 F 
ENDBRANCH  13  15
ENDBRANCH   1   7
BRANCH   4  19
HETATM   19  C   UNL     1     -40.216 -48.386  13.973  1.00  0.00     0.089 C 
HETATM   20  C   UNL     1     -39.362 -47.297  14.618  1.00  0.00     0.055 C 
HETATM   21  C   UNL     1     -37.877 -47.427  14.290  1.00  0.00     0.275 C 
HETATM   22  N   UNL     1     -37.332 -48.777  14.471  1.00  0.00     0.093 N 
HETATM   23  C   UNL     1     -38.121 -49.774  13.737  1.00  0.00     0.275 C 
HETATM   24  C   UNL     1     -39.596 -49.776  14.140  1.00  0.00     0.055 C 
BRANCH  22  25
HETATM   25  C   UNL     1     -37.117 -49.160  15.878  1.00  0.00     0.223 A 
HETATM   26  C   UNL     1     -36.264 -48.323  16.786  1.00  0.00     0.038 A 
HETATM   27  C   UNL     1     -35.739 -49.628  16.269  1.00  0.00     0.038 A 
ENDBRANCH  22  25
ENDBRANCH   4  19
TORSDOF 4
ENDMDL
MODEL 2
REMARK VINA RESULT:      -6.5      5.478      7.043
REMARK  4 active torsions:
REMARK  status: ('A' for Active; 'I' for Inactive)
REMARK    1  A    between atoms: C_2  and  C_5 
REMARK    2  A    between atoms: C_10  and  N_11 
REMARK       I    between atoms: N_11  and  C_12 
REMARK       I    between atoms: C_12  and  N_14 
REMARK    3  A    between atoms: N_14  and  C_15 
REMARK    4  A    between atoms: N_18  and  C_21 
ROOT
HETATM    1  N   UNL     1     -44.902 -50.823  12.829  1.00  0.00    -0.304 N 
HETATM    2  C   UNL     1     -43.702 -50.243  13.153  1.00  0.00     0.321 C 
HETATM    3  O   UNL     1     -43.104 -50.411  14.211  1.00  0.00    -0.247 OA
HETATM    4  N   UNL     1     -43.202 -49.428  12.162  1.00  0.00    -0.338 N 
HETATM    5  H   UNL     1     -45.149 -50.902  11.845  1.00  0.00     0.171 HD
HETATM    6  H   UNL     1     -43.584 -49.535  11.233  1.00  0.00     0.164 HD
ENDROOT
BRANCH   1   7
HETATM    7  C   UNL     1     -45.644 -51.624  13.678  1.00  0.00     0.105 A 
HETATM    8  C   UNL     1     -45.816 -53.068  13.282  1.00  0.00     0.272 A 
HETATM    9  N   UNL     1     -46.504 -53.859  14.173  1.00  0.00    -0.331 N 
HETATM   10  O   UNL     1     -45.344 -53.497  12.231  1.00  0.00    -0.266 OA
HETATM   11  C   UNL     1     -47.029 -53.407  15.360  1.00  0.00     0.107 A 
HETATM   12  H   UNL     1     -46.597 -54.835  13.914  1.00  0.00     0.168 HD
HETATM   13  C   UNL     1     -46.911 -52.117  15.721  1.00  0.00     0.065 A 
HETATM   14  C   UNL     1     -46.211 -51.213  14.825  1.00  0.00     0.052 A 
BRANCH  13  15
HETATM   15  C   UNL     1     -47.436 -51.576  17.020  1.00  0.00     0.418 C 
HETATM   16  F   UNL     1     -47.365 -52.464  18.045  1.00  0.00    -0.166 F 
HETATM   17  F   UNL     1     -48.736 -51.204  16.914  1.00  0.00    -0.166 F 
HETATM   18  F   UNL     1     -46.745 -50.475  17.414  1.00  0.00    -0.166 F 
ENDBRANCH  13  15
ENDBRANCH   1   7
BRANCH   4  19
HETATM   19  C   UNL     1     -41.833 -48.933  12.294  1.00  0.00     0.089 C 
HETATM   20  C   UNL     1     -41.756 -47.621  13.072  1.00  0.00     0.055 C 
HETATM   21  C   UNL     1     -42.133 -46.404  12.233  1.00  0.00     0.275 C 
HETATM   22  N   UNL     1     -41.473 -46.343  10.924  1.00  0.00     0.093 N 
HETATM   23  C   UNL     1     -41.674 -47.585  10.167  1.00  0.00     0.275 C 
HETATM   24  C   UNL     1     -41.177 -48.822  10.915  1.00  0.00     0.055 C 
BRANCH  22  25
HETATM   25  C   UNL     1     -40.055 -45.944  10.978  1.00  0.00     0.223 A 
HETATM   26  C   UNL     1     -39.636 -44.664  11.640  1.00  0.00     0.038 A 
HETATM   27  C   UNL     1     -39.633 -44.761  10.145  1.00  0.00     0.038 A 
ENDBRANCH  22  25
ENDBRANCH   4  19
TORSDOF 4
ENDMDL
MODEL 3
REMARK VINA RESULT:      -6.4      5.506      7.617
REMARK  4 active torsions:
REMARK  status: ('A' for Active; 'I' for Inactive)
REMARK    1  A    between atoms: C_2  and  C_5 
REMARK    2  A    between atoms: C_10  and  N_11 
REMARK       I    between atoms: N_11  and  C_12 
REMARK       I    between atoms: C_12  and  N_14 
REMARK    3  A    between atoms: N_14  and  C_15 
REMARK    4  A    between atoms: N_18  and  C_21 
ROOT
HETATM    1  N   UNL     1     -43.513 -51.657  12.466  1.00  0.00    -0.304 N 
HETATM    2  C   UNL     1     -43.379 -50.409  13.020  1.00  0.00     0.321 C 
HETATM    3  O   UNL     1     -43.539 -50.146  14.207  1.00  0.00    -0.247 OA
HETATM    4  N   UNL     1     -43.038 -49.438  12.105  1.00  0.00    -0.338 N 
HETATM    5  H   UNL     1     -43.049 -51.844  11.581  1.00  0.00     0.171 HD
HETATM    6  H   UNL     1     -42.663 -49.744  11.218  1.00  0.00     0.164 HD
ENDROOT
BRANCH   1   7
HETATM    7  C   UNL     1     -43.917 -52.785  13.157  1.00  0.00     0.105 A 
HETATM    8  C   UNL     1     -45.289 -53.325  12.847  1.00  0.00     0.272 A 
HETATM    9  N   UNL     1     -45.643 -54.483  13.500  1.00  0.00    -0.331 N 
HETATM   10  O   UNL     1     -46.024 -52.761  12.040  1.00  0.00    -0.266 OA
HETATM   11  C   UNL     1     -44.834 -55.141  14.396  1.00  0.00     0.107 A 
HETATM   12  H   UNL     1     -46.557 -54.855  13.271  1.00  0.00     0.168 HD
HETATM   13  C   UNL     1     -43.617 -54.662  14.708  1.00  0.00     0.065 A 
HETATM   14  C   UNL     1     -43.177 -53.434  14.073  1.00  0.00     0.052 A 
BRANCH  13  15
HETATM   15  C   UNL     1     -42.680 -55.357  15.655  1.00  0.00     0.418 C 
HETATM   16  F   UNL     1     -42.824 -56.707  15.667  1.00  0.00    -0.166 F 
HETATM   17  F   UNL     1     -42.859 -54.934  16.932  1.00  0.00    -0.166 F 
HETATM   18  F   UNL     1     -41.382 -55.109  15.339  1.00  0.00    -0.166 F 
ENDBRANCH  13  15
ENDBRANCH   1   7
BRANCH   4  19
HETATM   19  C   UNL     1     -42.650 -48.120  12.602  1.00  0.00     0.089 C 
HETATM   20  C   UNL     1     -43.110 -46.988  11.686  1.00  0.00     0.055 C 
HETATM   21  C   UNL     1     -42.216 -46.806  10.463  1.00  0.00     0.275 C 
HETATM   22  N   UNL     1     -40.780 -46.765  10.763  1.00  0.00     0.093 N 
HETATM   23  C   UNL     1     -40.365 -47.935  11.548  1.00  0.00     0.275 C 
HETATM   24  C   UNL     1     -41.141 -48.075  12.857  1.00  0.00     0.055 C 
BRANCH  22  25
HETATM   25  C   UNL     1     -40.322 -45.499  11.362  1.00  0.00     0.223 A 
HETATM   26  C   UNL     1     -40.914 -44.185  10.941  1.00  0.00     0.038 A 
HETATM   27  C   UNL     1     -39.537 -44.558  10.485  1.00  0.00     0.038 A 
ENDBRANCH  22  25
ENDBRANCH   4  19
TORSDOF 4
ENDMDL
MODEL 4
REMARK VINA RESULT:      -6.2      4.389      5.229
REMARK  4 active torsions:
REMARK  status: ('A' for Active; 'I' for Inactive)
REMARK    1  A    between atoms: C_2  and  C_5 
REMARK    2  A    between atoms: C_10  and  N_11 
REMARK       I    between atoms: N_11  and  C_12 
REMARK       I    between atoms: C_12  and  N_14 
REMARK    3  A    between atoms: N_14  and  C_15 
REMARK    4  A    between atoms: N_18  and  C_21 
ROOT
HETATM    1  N   UNL     1     -42.071 -49.091  10.894  1.00  0.00    -0.304 N 
HETATM    2  C   UNL     1     -42.087 -49.695  12.125  1.00  0.00     0.321 C 
HETATM    3  O   UNL     1     -42.194 -49.105  13.195  1.00  0.00    -0.247 OA
HETATM    4  N   UNL     1     -41.972 -51.066  12.064  1.00  0.00    -0.338 N 
HETATM    5  H   UNL     1     -42.316 -49.650  10.079  1.00  0.00     0.171 HD
HETATM    6  H   UNL     1     -42.156 -51.510  11.177  1.00  0.00     0.164 HD
ENDROOT
BRANCH   1   7
HETATM    7  C   UNL     1     -42.101 -47.724  10.687  1.00  0.00     0.105 A 
HETATM    8  C   UNL     1     -43.447 -47.099  10.423  1.00  0.00     0.272 A 
HETATM    9  N   UNL     1     -43.459 -45.731  10.283  1.00  0.00    -0.331 N 
HETATM   10  O   UNL     1     -44.464 -47.788  10.361  1.00  0.00    -0.266 OA
HETATM   11  C   UNL     1     -42.339 -44.938  10.362  1.00  0.00     0.107 A 
HETATM   12  H   UNL     1     -44.370 -45.313  10.129  1.00  0.00     0.168 HD
HETATM   13  C   UNL     1     -41.125 -45.476  10.569  1.00  0.00     0.065 A 
HETATM   14  C   UNL     1     -41.026 -46.918  10.711  1.00  0.00     0.052 A 
BRANCH  13  15
HETATM   15  C   UNL     1     -39.873 -44.655  10.696  1.00  0.00     0.418 C 
HETATM   16  F   UNL     1     -39.192 -44.879  11.849  1.00  0.00    -0.166 F 
HETATM   17  F   UNL     1     -40.144 -43.326  10.653  1.00  0.00    -0.166 F 
HETATM   18  F   UNL     1     -39.008 -44.910   9.680  1.00  0.00    -0.166 F 
ENDBRANCH  13  15
ENDBRANCH   1   7
BRANCH   4  19
HETATM   19  C   UNL     1     -42.198 -51.837  13.285  1.00  0.00     0.089 C 
HETATM   20  C   UNL     1     -41.170 -51.531  14.372  1.00  0.00     0.055 C 
HETATM   21  C   UNL     1     -39.837 -52.241  14.153  1.00  0.00     0.275 C 
HETATM   22  N   UNL     1     -39.956 -53.672  13.849  1.00  0.00     0.093 N 
HETATM   23  C   UNL     1     -40.866 -53.905  12.722  1.00  0.00     0.275 C 
HETATM   24  C   UNL     1     -42.263 -53.332  12.960  1.00  0.00     0.055 C 
BRANCH  22  25
HETATM   25  C   UNL     1     -40.281 -54.514  15.015  1.00  0.00     0.223 A 
HETATM   26  C   UNL     1     -39.748 -54.186  16.379  1.00  0.00     0.038 A 
HETATM   27  C   UNL     1     -39.169 -55.335  15.612  1.00  0.00     0.038 A 
ENDBRANCH  22  25
ENDBRANCH   4  19
TORSDOF 4
ENDMDL
MODEL 5
REMARK VINA RESULT:      -6.1      2.600      3.277
REMARK  4 active torsions:
REMARK  status: ('A' for Active; 'I' for Inactive)
REMARK    1  A    between atoms: C_2  and  C_5 
REMARK    2  A    between atoms: C_10  and  N_11 
REMARK       I    between atoms: N_11  and  C_12 
REMARK       I    between atoms: C_12  and  N_14 
REMARK    3  A    between atoms: N_14  and  C_15 
REMARK    4  A    between atoms: N_18  and  C_21 
ROOT
HETATM    1  N   UNL     1     -42.116 -48.203  12.092  1.00  0.00    -0.304 N 
HETATM    2  C   UNL     1     -41.264 -49.277  12.031  1.00  0.00     0.321 C 
HETATM    3  O   UNL     1     -40.888 -49.816  10.995  1.00  0.00    -0.247 OA
HETATM    4  N   UNL     1     -40.848 -49.717  13.267  1.00  0.00    -0.338 N 
HETATM    5  H   UNL     1     -42.105 -47.627  12.931  1.00  0.00     0.171 HD
HETATM    6  H   UNL     1     -40.964 -49.089  14.049  1.00  0.00     0.164 HD
ENDROOT
BRANCH   1   7
HETATM    7  C   UNL     1     -42.728 -47.620  10.998  1.00  0.00     0.105 A 
HETATM    8  C   UNL     1     -41.944 -46.575  10.248  1.00  0.00     0.272 A 
HETATM    9  N   UNL     1     -42.549 -46.055   9.127  1.00  0.00    -0.331 N 
HETATM   10  O   UNL     1     -40.823 -46.235  10.621  1.00  0.00    -0.266 OA
HETATM   11  C   UNL     1     -43.795 -46.427   8.682  1.00  0.00     0.107 A 
HETATM   12  H   UNL     1     -42.008 -45.370   8.613  1.00  0.00     0.168 HD
HETATM   13  C   UNL     1     -44.524 -47.339   9.350  1.00  0.00     0.065 A 
HETATM   14  C   UNL     1     -43.961 -47.922  10.554  1.00  0.00     0.052 A 
BRANCH  13  15
HETATM   15  C   UNL     1     -45.876 -47.805   8.891  1.00  0.00     0.418 C 
HETATM   16  F   UNL     1     -45.846 -48.474   7.709  1.00  0.00    -0.166 F 
HETATM   17  F   UNL     1     -46.733 -46.766   8.731  1.00  0.00    -0.166 F 
HETATM   18  F   UNL     1     -46.444 -48.645   9.796  1.00  0.00    -0.166 F 
ENDBRANCH  13  15
ENDBRANCH   1   7
BRANCH   4  19
HETATM   19  C   UNL     1     -39.772 -50.705  13.327  1.00  0.00     0.089 C 
HETATM   20  C   UNL     1     -40.263 -52.124  13.051  1.00  0.00     0.055 C 
HETATM   21  C   UNL     1     -40.941 -52.768  14.256  1.00  0.00     0.275 C 
HETATM   22  N   UNL     1     -40.191 -52.645  15.512  1.00  0.00     0.093 N 
HETATM   23  C   UNL     1     -39.843 -51.246  15.790  1.00  0.00     0.275 C 
HETATM   24  C   UNL     1     -39.035 -50.601  14.665  1.00  0.00     0.055 C 
BRANCH  22  25
HETATM   25  C   UNL     1     -39.026 -53.542  15.612  1.00  0.00     0.223 A 
HETATM   26  C   UNL     1     -39.102 -54.965  15.139  1.00  0.00     0.038 A 
HETATM   27  C   UNL     1     -39.101 -54.670  16.608  1.00  0.00     0.038 A 
ENDBRANCH  22  25
ENDBRANCH   4  19
TORSDOF 4
ENDMDL
MODEL 6
REMARK VINA RESULT:      -6.0      4.637      6.786
REMARK  4 active torsions:
REMARK  status: ('A' for Active; 'I' for Inactive)
REMARK    1  A    between atoms: C_2  and  C_5 
REMARK    2  A    between atoms: C_10  and  N_11 
REMARK       I    between atoms: N_11  and  C_12 
REMARK       I    between atoms: C_12  and  N_14 
REMARK    3  A    between atoms: N_14  and  C_15 
REMARK    4  A    between atoms: N_18  and  C_21 
ROOT
HETATM    1  N   UNL     1     -42.445 -51.193  12.133  1.00  0.00    -0.304 N 
HETATM    2  C   UNL     1     -42.887 -49.963  12.550  1.00  0.00     0.321 C 
HETATM    3  O   UNL     1     -43.485 -49.751  13.600  1.00  0.00    -0.247 OA
HETATM    4  N   UNL     1     -42.596 -48.948  11.667  1.00  0.00    -0.338 N 
HETATM    5  H   UNL     1     -41.693 -51.228  11.449  1.00  0.00     0.171 HD
HETATM    6  H   UNL     1     -41.886 -49.125  10.970  1.00  0.00     0.164 HD
ENDROOT
BRANCH   1   7
HETATM    7  C   UNL     1     -42.673 -52.381  12.804  1.00  0.00     0.105 A 
HETATM    8  C   UNL     1     -41.467 -53.114  13.330  1.00  0.00     0.272 A 
HETATM    9  N   UNL     1     -41.723 -54.260  14.047  1.00  0.00    -0.331 N 
HETATM   10  O   UNL     1     -40.331 -52.687  13.135  1.00  0.00    -0.266 OA
HETATM   11  C   UNL     1     -42.984 -54.752  14.290  1.00  0.00     0.107 A 
HETATM   12  H   UNL     1     -40.910 -54.737  14.419  1.00  0.00     0.168 HD
HETATM   13  C   UNL     1     -44.074 -54.128  13.807  1.00  0.00     0.065 A 
HETATM   14  C   UNL     1     -43.885 -52.920  13.025  1.00  0.00     0.052 A 
BRANCH  13  15
HETATM   15  C   UNL     1     -45.475 -54.603  14.069  1.00  0.00     0.418 C 
HETATM   16  F   UNL     1     -45.720 -55.852  13.595  1.00  0.00    -0.166 F 
HETATM   17  F   UNL     1     -46.393 -53.781  13.501  1.00  0.00    -0.166 F 
HETATM   18  F   UNL     1     -45.747 -54.634  15.399  1.00  0.00    -0.166 F 
ENDBRANCH  13  15
ENDBRANCH   1   7
BRANCH   4  19
HETATM   19  C   UNL     1     -42.814 -47.569  12.097  1.00  0.00     0.089 C 
HETATM   20  C   UNL     1     -42.654 -46.566  10.957  1.00  0.00     0.055 C 
HETATM   21  C   UNL     1     -41.196 -46.251  10.635  1.00  0.00     0.275 C 
HETATM   22  N   UNL     1     -40.372 -45.935  11.808  1.00  0.00     0.093 N 
HETATM   23  C   UNL     1     -40.470 -46.987  12.828  1.00  0.00     0.275 C 
HETATM   24  C   UNL     1     -41.907 -47.237  13.285  1.00  0.00     0.055 C 
BRANCH  22  25
HETATM   25  C   UNL     1     -40.603 -44.591  12.367  1.00  0.00     0.223 A 
HETATM   26  C   UNL     1     -40.406 -43.361  11.529  1.00  0.00     0.038 A 
HETATM   27  C   UNL     1     -39.399 -43.711  12.581  1.00  0.00     0.038 A 
ENDBRANCH  22  25
ENDBRANCH   4  19
TORSDOF 4
ENDMDL
MODEL 7
REMARK VINA RESULT:      -5.8      4.623      5.180
REMARK  4 active torsions:
REMARK  status: ('A' for Active; 'I' for Inactive)
REMARK    1  A    between atoms: C_2  and  C_5 
REMARK    2  A    between atoms: C_10  and  N_11 
REMARK       I    between atoms: N_11  and  C_12 
REMARK       I    between atoms: C_12  and  N_14 
REMARK    3  A    between atoms: N_14  and  C_15 
REMARK    4  A    between atoms: N_18  and  C_21 
ROOT
HETATM    1  N   UNL     1     -41.515 -50.448  13.651  1.00  0.00    -0.304 N 
HETATM    2  C   UNL     1     -40.617 -50.795  14.628  1.00  0.00     0.321 C 
HETATM    3  O   UNL     1     -40.632 -51.851  15.252  1.00  0.00    -0.247 OA
HETATM    4  N   UNL     1     -39.661 -49.832  14.860  1.00  0.00    -0.338 N 
HETATM    5  H   UNL     1     -41.242 -49.738  12.975  1.00  0.00     0.171 HD
HETATM    6  H   UNL     1     -39.533 -49.122  14.154  1.00  0.00     0.164 HD
ENDROOT
BRANCH   1   7
HETATM    7  C   UNL     1     -42.609 -51.208  13.281  1.00  0.00     0.105 A 
HETATM    8  C   UNL     1     -42.374 -52.304  12.275  1.00  0.00     0.272 A 
HETATM    9  N   UNL     1     -43.463 -53.087  11.970  1.00  0.00    -0.331 N 
HETATM   10  O   UNL     1     -41.262 -52.484  11.782  1.00  0.00    -0.266 OA
HETATM   11  C   UNL     1     -44.713 -52.915  12.516  1.00  0.00     0.107 A 
HETATM   12  H   UNL     1     -43.294 -53.838  11.310  1.00  0.00     0.168 HD
HETATM   13  C   UNL     1     -44.953 -51.927  13.396  1.00  0.00     0.065 A 
HETATM   14  C   UNL     1     -43.856 -51.046  13.756  1.00  0.00     0.052 A 
BRANCH  13  15
HETATM   15  C   UNL     1     -46.289 -51.714  14.047  1.00  0.00     0.418 C 
HETATM   16  F   UNL     1     -46.233 -50.930  15.154  1.00  0.00    -0.166 F 
HETATM   17  F   UNL     1     -46.850 -52.889  14.428  1.00  0.00    -0.166 F 
HETATM   18  F   UNL     1     -47.166 -51.120  13.196  1.00  0.00    -0.166 F 
ENDBRANCH  13  15
ENDBRANCH   1   7
BRANCH   4  19
HETATM   19  C   UNL     1     -38.524 -50.173  15.713  1.00  0.00     0.089 C 
HETATM   20  C   UNL     1     -38.659 -49.609  17.125  1.00  0.00     0.055 C 
HETATM   21  C   UNL     1     -38.303 -48.128  17.217  1.00  0.00     0.275 C 
HETATM   22  N   UNL     1     -37.038 -47.768  16.565  1.00  0.00     0.093 N 
HETATM   23  C   UNL     1     -37.004 -48.232  15.172  1.00  0.00     0.275 C 
HETATM   24  C   UNL     1     -37.215 -49.740  15.045  1.00  0.00     0.055 C 
BRANCH  22  25
HETATM   25  C   UNL     1     -35.834 -48.167  17.317  1.00  0.00     0.223 A 
HETATM   26  C   UNL     1     -35.776 -48.034  18.811  1.00  0.00     0.038 A 
HETATM   27  C   UNL     1     -35.016 -47.072  17.950  1.00  0.00     0.038 A 
ENDBRANCH  22  25
ENDBRANCH   4  19
TORSDOF 4
ENDMDL
MODEL 8
REMARK VINA RESULT:      -5.7      7.379      8.567
REMARK  4 active torsions:
REMARK  status: ('A' for Active; 'I' for Inactive)
REMARK    1  A    between atoms: C_2  and  C_5 
REMARK    2  A    between atoms: C_10  and  N_11 
REMARK       I    between atoms: N_11  and  C_12 
REMARK       I    between atoms: C_12  and  N_14 
REMARK    3  A    between atoms: N_14  and  C_15 
REMARK    4  A    between atoms: N_18  and  C_21 
ROOT
HETATM    1  N   UNL     1     -42.178 -53.891  15.552  1.00  0.00    -0.304 N 
HETATM    2  C   UNL     1     -42.236 -55.110  16.179  1.00  0.00     0.321 C 
HETATM    3  O   UNL     1     -43.034 -56.002  15.907  1.00  0.00    -0.247 OA
HETATM    4  N   UNL     1     -41.294 -55.261  17.172  1.00  0.00    -0.338 N 
HETATM    5  H   UNL     1     -41.308 -53.366  15.599  1.00  0.00     0.171 HD
HETATM    6  H   UNL     1     -40.511 -54.624  17.171  1.00  0.00     0.164 HD
ENDROOT
BRANCH   1   7
HETATM    7  C   UNL     1     -43.057 -53.467  14.572  1.00  0.00     0.105 A 
HETATM    8  C   UNL     1     -42.670 -53.735  13.141  1.00  0.00     0.272 A 
HETATM    9  N   UNL     1     -43.589 -53.360  12.187  1.00  0.00    -0.331 N 
HETATM   10  O   UNL     1     -41.601 -54.276  12.864  1.00  0.00    -0.266 OA
HETATM   11  C   UNL     1     -44.796 -52.767  12.472  1.00  0.00     0.107 A 
HETATM   12  H   UNL     1     -43.335 -53.564  11.228  1.00  0.00     0.168 HD
HETATM   13  C   UNL     1     -45.150 -52.494  13.740  1.00  0.00     0.065 A 
HETATM   14  C   UNL     1     -44.225 -52.844  14.803  1.00  0.00     0.052 A 
BRANCH  13  15
HETATM   15  C   UNL     1     -46.469 -51.876  14.109  1.00  0.00     0.418 C 
HETATM   16  F   UNL     1     -46.378 -50.964  15.111  1.00  0.00    -0.166 F 
HETATM   17  F   UNL     1     -47.361 -52.814  14.514  1.00  0.00    -0.166 F 
HETATM   18  F   UNL     1     -47.029 -51.234  13.051  1.00  0.00    -0.166 F 
ENDBRANCH  13  15
ENDBRANCH   1   7
BRANCH   4  19
HETATM   19  C   UNL     1     -41.109 -56.587  17.758  1.00  0.00     0.089 C 
HETATM   20  C   UNL     1     -40.954 -56.540  19.277  1.00  0.00     0.055 C 
HETATM   21  C   UNL     1     -39.554 -56.130  19.724  1.00  0.00     0.275 C 
HETATM   22  N   UNL     1     -38.467 -56.850  19.049  1.00  0.00     0.093 N 
HETATM   23  C   UNL     1     -38.598 -56.766  17.589  1.00  0.00     0.275 C 
HETATM   24  C   UNL     1     -39.936 -57.303  17.082  1.00  0.00     0.055 C 
BRANCH  22  25
HETATM   25  C   UNL     1     -38.276 -58.235  19.516  1.00  0.00     0.223 A 
HETATM   26  C   UNL     1     -38.217 -58.556  20.981  1.00  0.00     0.038 A 
HETATM   27  C   UNL     1     -36.960 -58.574  20.166  1.00  0.00     0.038 A 
ENDBRANCH  22  25
ENDBRANCH   4  19
TORSDOF 4
ENDMDL
MODEL 9
REMARK VINA RESULT:      -5.6     13.661     16.151
REMARK  4 active torsions:
REMARK  status: ('A' for Active; 'I' for Inactive)
REMARK    1  A    between atoms: C_2  and  C_5 
REMARK    2  A    between atoms: C_10  and  N_11 
REMARK       I    between atoms: N_11  and  C_12 
REMARK       I    between atoms: C_12  and  N_14 
REMARK    3  A    between atoms: N_14  and  C_15 
REMARK    4  A    between atoms: N_18  and  C_21 
ROOT
HETATM    1  N   UNL     1     -50.747 -48.587  -0.052  1.00  0.00    -0.304 N 
HETATM    2  C   UNL     1     -50.325 -49.829   0.348  1.00  0.00     0.321 C 
HETATM    3  O   UNL     1     -50.147 -50.168   1.514  1.00  0.00    -0.247 OA
HETATM    4  N   UNL     1     -50.110 -50.698  -0.698  1.00  0.00    -0.338 N 
HETATM    5  H   UNL     1     -51.181 -48.497  -0.968  1.00  0.00     0.171 HD
HETATM    6  H   UNL     1     -50.520 -50.463  -1.590  1.00  0.00     0.164 HD
ENDROOT
BRANCH   1   7
HETATM    7  C   UNL     1     -50.964 -47.517   0.798  1.00  0.00     0.105 A 
HETATM    8  C   UNL     1     -52.345 -47.372   1.380  1.00  0.00     0.272 A 
HETATM    9  N   UNL     1     -52.520 -46.338   2.271  1.00  0.00    -0.331 N 
HETATM   10  O   UNL     1     -53.245 -48.155   1.080  1.00  0.00    -0.266 OA
HETATM   11  C   UNL     1     -51.527 -45.458   2.633  1.00  0.00     0.107 A 
HETATM   12  H   UNL     1     -53.444 -46.259   2.677  1.00  0.00     0.168 HD
HETATM   13  C   UNL     1     -50.294 -45.552   2.106  1.00  0.00     0.065 A 
HETATM   14  C   UNL     1     -50.035 -46.609   1.144  1.00  0.00     0.052 A 
BRANCH  13  15
HETATM   15  C   UNL     1     -49.165 -44.639   2.490  1.00  0.00     0.418 C 
HETATM   16  F   UNL     1     -48.354 -45.154   3.450  1.00  0.00    -0.166 F 
HETATM   17  F   UNL     1     -49.623 -43.452   2.961  1.00  0.00    -0.166 F 
HETATM   18  F   UNL     1     -48.371 -44.356   1.424  1.00  0.00    -0.166 F 
ENDBRANCH  13  15
ENDBRANCH   1   7
BRANCH   4  19
HETATM   19  C   UNL     1     -49.876 -52.108  -0.393  1.00  0.00     0.089 C 
HETATM   20  C   UNL     1     -48.676 -52.680  -1.146  1.00  0.00     0.055 C 
HETATM   21  C   UNL     1     -48.991 -53.030  -2.597  1.00  0.00     0.275 C 
HETATM   22  N   UNL     1     -50.219 -53.813  -2.779  1.00  0.00     0.093 N 
HETATM   23  C   UNL     1     -51.367 -53.162  -2.135  1.00  0.00     0.275 C 
HETATM   24  C   UNL     1     -51.150 -52.920  -0.641  1.00  0.00     0.055 C 
BRANCH  22  25
HETATM   25  C   UNL     1     -50.096 -55.232  -2.400  1.00  0.00     0.223 A 
HETATM   26  C   UNL     1     -48.938 -56.061  -2.876  1.00  0.00     0.038 A 
HETATM   27  C   UNL     1     -50.294 -56.260  -3.482  1.00  0.00     0.038 A 
ENDBRANCH  22  25
ENDBRANCH   4  19
TORSDOF 4
ENDMDL
