MODEL 1
REMARK VINA RESULT:      -5.8      0.000      0.000
REMARK  2 active torsions:
REMARK  status: ('A' for Active; 'I' for Inactive)
REMARK       I    between atoms: N_8  and  C_9 
REMARK       I    between atoms: C_9  and  N_11 
REMARK    1  A    between atoms: N_11  and  C_12 
REMARK    2  A    between atoms: C_15  and  O_16 
ROOT
HETATM    1  C   UNL     1     -43.830 -54.548  13.714  1.00  0.00     0.078 C 
HETATM    2  C   UNL     1     -42.949 -53.572  13.032  1.00  0.00     0.066 A 
HETATM    3  N   UNL     1     -43.390 -52.577  12.294  1.00  0.00    -0.296 N 
ATOM      4  HN  UNL     1     -44.375 -52.408  12.090  1.00  0.00     0.187 HD
HETATM    5  N   UNL     1     -42.364 -51.795  11.832  1.00  0.00    -0.279 N 
ATOM      6  HN  UNL     1     -42.498 -50.972  11.244  1.00  0.00     0.189 HD
HETATM    7  C   UNL     1     -41.191 -52.221  12.229  1.00  0.00     0.169 A 
HETATM    8  N   UNL     1     -39.977 -51.642  12.007  1.00  0.00    -0.288 N 
HETATM    9  C   UNL     1     -39.815 -50.385  11.488  1.00  0.00     0.322 C 
HETATM   10  O   UNL     1     -38.681 -49.914  11.374  1.00  0.00    -0.247 OA
HETATM   11  N   UNL     1     -40.952 -49.692  11.190  1.00  0.00    -0.338 N 
HETATM   12  S   UNL     1     -41.229 -53.643  13.167  1.00  0.00    -0.038 SA
HETATM   13  H   UNL     1     -39.142 -52.102  12.337  1.00  0.00     0.172 HD
HETATM   14  H   UNL     1     -41.827 -50.207  11.180  1.00  0.00     0.164 HD
ENDROOT
BRANCH  11  15
HETATM   15  C   UNL     1     -40.987 -48.281  10.855  1.00  0.00     0.086 C 
HETATM   16  C   UNL     1     -40.705 -47.436  12.107  1.00  0.00     0.028 C 
HETATM   17  C   UNL     1     -41.922 -47.235  13.014  1.00  0.00     0.034 C 
HETATM   18  C   UNL     1     -43.139 -46.732  12.246  1.00  0.00     0.118 C 
HETATM   19  C   UNL     1     -43.478 -47.662  11.083  1.00  0.00     0.034 C 
HETATM   20  C   UNL     1     -42.292 -47.904  10.144  1.00  0.00     0.028 C 
BRANCH  18  21
HETATM   21  O   UNL     1     -42.917 -45.404  11.778  1.00  0.00    -0.396 OA
HETATM   22  H   UNL     1     -42.088 -45.374  11.275  1.00  0.00     0.210 HD
ENDBRANCH  18  21
ENDBRANCH  11  15
TORSDOF 2
ENDMDL
MODEL 2
REMARK VINA RESULT:      -5.8      3.876      5.946
REMARK  2 active torsions:
REMARK  status: ('A' for Active; 'I' for Inactive)
REMARK       I    between atoms: N_8  and  C_9 
REMARK       I    between atoms: C_9  and  N_11 
REMARK    1  A    between atoms: N_11  and  C_12 
REMARK    2  A    between atoms: C_15  and  O_16 
ROOT
HETATM    1  C   UNL     1     -43.457 -46.291   8.750  1.00  0.00     0.078 C 
HETATM    2  C   UNL     1     -43.242 -47.235   9.870  1.00  0.00     0.066 A 
HETATM    3  N   UNL     1     -44.216 -47.841  10.515  1.00  0.00    -0.296 N 
ATOM      4  HN  UNL     1     -45.207 -47.687  10.332  1.00  0.00     0.187 HD
HETATM    5  N   UNL     1     -43.733 -48.704  11.464  1.00  0.00    -0.279 N 
ATOM      6  HN  UNL     1     -44.327 -49.271  12.069  1.00  0.00     0.189 HD
HETATM    7  C   UNL     1     -42.425 -48.721  11.507  1.00  0.00     0.169 A 
HETATM    8  N   UNL     1     -41.629 -49.511  12.284  1.00  0.00    -0.288 N 
HETATM    9  C   UNL     1     -42.089 -50.575  13.012  1.00  0.00     0.322 C 
HETATM   10  O   UNL     1     -41.290 -51.273  13.641  1.00  0.00    -0.247 OA
HETATM   11  N   UNL     1     -43.424 -50.842  12.935  1.00  0.00    -0.338 N 
HETATM   12  S   UNL     1     -41.661 -47.651  10.424  1.00  0.00    -0.038 SA
HETATM   13  H   UNL     1     -40.628 -49.391  12.248  1.00  0.00     0.172 HD
HETATM   14  H   UNL     1     -44.021 -50.136  12.514  1.00  0.00     0.164 HD
ENDROOT
BRANCH  11  15
HETATM   15  C   UNL     1     -44.050 -52.048  13.444  1.00  0.00     0.086 C 
HETATM   16  C   UNL     1     -45.289 -52.391  12.603  1.00  0.00     0.028 C 
HETATM   17  C   UNL     1     -46.543 -51.600  12.984  1.00  0.00     0.034 C 
HETATM   18  C   UNL     1     -46.831 -51.657  14.480  1.00  0.00     0.118 C 
HETATM   19  C   UNL     1     -45.627 -51.186  15.290  1.00  0.00     0.034 C 
HETATM   20  C   UNL     1     -44.339 -51.941  14.945  1.00  0.00     0.028 C 
BRANCH  18  21
HETATM   21  O   UNL     1     -47.209 -52.978  14.862  1.00  0.00    -0.396 OA
HETATM   22  H   UNL     1     -48.159 -53.099  14.706  1.00  0.00     0.210 HD
ENDBRANCH  18  21
ENDBRANCH  11  15
TORSDOF 2
ENDMDL
MODEL 3
REMARK VINA RESULT:      -5.8      3.118      6.017
REMARK  2 active torsions:
REMARK  status: ('A' for Active; 'I' for Inactive)
REMARK       I    between atoms: N_8  and  C_9 
REMARK       I    between atoms: C_9  and  N_11 
REMARK    1  A    between atoms: N_11  and  C_12 
REMARK    2  A    between atoms: C_15  and  O_16 
ROOT
HETATM    1  C   UNL     1     -42.159 -47.320  10.282  1.00  0.00     0.078 C 
HETATM    2  C   UNL     1     -41.918 -48.585  11.013  1.00  0.00     0.066 A 
HETATM    3  N   UNL     1     -42.832 -49.207  11.725  1.00  0.00    -0.296 N 
ATOM      4  HN  UNL     1     -43.778 -48.856  11.875  1.00  0.00     0.187 HD
HETATM    5  N   UNL     1     -42.357 -50.383  12.244  1.00  0.00    -0.279 N 
ATOM      6  HN  UNL     1     -42.912 -51.013  12.823  1.00  0.00     0.189 HD
HETATM    7  C   UNL     1     -41.111 -50.609  11.912  1.00  0.00     0.169 A 
HETATM    8  N   UNL     1     -40.360 -51.710  12.202  1.00  0.00    -0.288 N 
HETATM    9  C   UNL     1     -40.873 -52.866  12.729  1.00  0.00     0.322 C 
HETATM   10  O   UNL     1     -40.133 -53.835  12.906  1.00  0.00    -0.247 OA
HETATM   11  N   UNL     1     -42.216 -52.891  12.964  1.00  0.00    -0.338 N 
HETATM   12  S   UNL     1     -40.388 -49.385  10.973  1.00  0.00    -0.038 SA
HETATM   13  H   UNL     1     -39.392 -51.738  11.919  1.00  0.00     0.172 HD
HETATM   14  H   UNL     1     -42.717 -52.008  12.925  1.00  0.00     0.164 HD
ENDROOT
BRANCH  11  15
HETATM   15  C   UNL     1     -42.968 -54.087  13.297  1.00  0.00     0.086 C 
HETATM   16  C   UNL     1     -44.337 -54.058  12.600  1.00  0.00     0.028 C 
HETATM   17  C   UNL     1     -45.390 -53.214  13.322  1.00  0.00     0.034 C 
HETATM   18  C   UNL     1     -45.506 -53.574  14.799  1.00  0.00     0.118 C 
HETATM   19  C   UNL     1     -44.154 -53.468  15.499  1.00  0.00     0.034 C 
HETATM   20  C   UNL     1     -43.058 -54.289  14.814  1.00  0.00     0.028 C 
BRANCH  18  21
HETATM   21  O   UNL     1     -46.048 -54.884  14.950  1.00  0.00    -0.396 OA
HETATM   22  H   UNL     1     -45.347 -55.540  14.808  1.00  0.00     0.210 HD
ENDBRANCH  18  21
ENDBRANCH  11  15
TORSDOF 2
ENDMDL
MODEL 4
REMARK VINA RESULT:      -5.7      3.747      5.518
REMARK  2 active torsions:
REMARK  status: ('A' for Active; 'I' for Inactive)
REMARK       I    between atoms: N_8  and  C_9 
REMARK       I    between atoms: C_9  and  N_11 
REMARK    1  A    between atoms: N_11  and  C_12 
REMARK    2  A    between atoms: C_15  and  O_16 
ROOT
HETATM    1  C   UNL     1     -46.445 -47.736   8.891  1.00  0.00     0.078 C 
HETATM    2  C   UNL     1     -45.117 -47.418   9.464  1.00  0.00     0.066 A 
HETATM    3  N   UNL     1     -44.555 -48.104  10.436  1.00  0.00    -0.296 N 
ATOM      4  HN  UNL     1     -44.996 -48.891  10.912  1.00  0.00     0.187 HD
HETATM    5  N   UNL     1     -43.303 -47.631  10.731  1.00  0.00    -0.279 N 
ATOM      6  HN  UNL     1     -42.702 -48.028  11.453  1.00  0.00     0.189 HD
HETATM    7  C   UNL     1     -42.963 -46.612   9.983  1.00  0.00     0.169 A 
HETATM    8  N   UNL     1     -41.770 -45.951   9.970  1.00  0.00    -0.288 N 
HETATM    9  C   UNL     1     -40.647 -46.393  10.616  1.00  0.00     0.322 C 
HETATM   10  O   UNL     1     -39.593 -45.764  10.504  1.00  0.00    -0.247 OA
HETATM   11  N   UNL     1     -40.754 -47.567  11.302  1.00  0.00    -0.338 N 
HETATM   12  S   UNL     1     -44.159 -46.107   8.879  1.00  0.00    -0.038 SA
HETATM   13  H   UNL     1     -41.656 -45.149   9.367  1.00  0.00     0.172 HD
HETATM   14  H   UNL     1     -41.687 -47.936  11.459  1.00  0.00     0.164 HD
ENDROOT
BRANCH  11  15
HETATM   15  C   UNL     1     -39.629 -48.302  11.849  1.00  0.00     0.086 C 
HETATM   16  C   UNL     1     -39.714 -49.779  11.433  1.00  0.00     0.028 C 
HETATM   17  C   UNL     1     -40.661 -50.618  12.295  1.00  0.00     0.034 C 
HETATM   18  C   UNL     1     -40.383 -50.457  13.785  1.00  0.00     0.118 C 
HETATM   19  C   UNL     1     -40.432 -48.989  14.199  1.00  0.00     0.034 C 
HETATM   20  C   UNL     1     -39.507 -48.099  13.364  1.00  0.00     0.028 C 
BRANCH  18  21
HETATM   21  O   UNL     1     -39.121 -51.030  14.119  1.00  0.00    -0.396 OA
HETATM   22  H   UNL     1     -39.195 -51.503  14.963  1.00  0.00     0.210 HD
ENDBRANCH  18  21
ENDBRANCH  11  15
TORSDOF 2
ENDMDL
MODEL 5
REMARK VINA RESULT:      -5.4      3.118      3.874
REMARK  2 active torsions:
REMARK  status: ('A' for Active; 'I' for Inactive)
REMARK       I    between atoms: N_8  and  C_9 
REMARK       I    between atoms: C_9  and  N_11 
REMARK    1  A    between atoms: N_11  and  C_12 
REMARK    2  A    between atoms: C_15  and  O_16 
ROOT
HETATM    1  C   UNL     1     -46.588 -51.600  12.967  1.00  0.00     0.078 C 
HETATM    2  C   UNL     1     -45.145 -51.904  12.836  1.00  0.00     0.066 A 
HETATM    3  N   UNL     1     -44.207 -50.986  12.738  1.00  0.00    -0.296 N 
ATOM      4  HN  UNL     1     -44.389 -49.983  12.703  1.00  0.00     0.187 HD
HETATM    5  N   UNL     1     -42.956 -51.544  12.690  1.00  0.00    -0.279 N 
ATOM      6  HN  UNL     1     -42.096 -51.000  12.616  1.00  0.00     0.189 HD
HETATM    7  C   UNL     1     -42.987 -52.851  12.748  1.00  0.00     0.169 A 
HETATM    8  N   UNL     1     -41.926 -53.707  12.791  1.00  0.00    -0.288 N 
HETATM    9  C   UNL     1     -40.631 -53.307  12.983  1.00  0.00     0.322 C 
HETATM   10  O   UNL     1     -39.738 -54.153  13.067  1.00  0.00    -0.247 OA
HETATM   11  N   UNL     1     -40.418 -51.969  13.144  1.00  0.00    -0.338 N 
HETATM   12  S   UNL     1     -44.550 -53.525  12.824  1.00  0.00    -0.038 SA
HETATM   13  H   UNL     1     -42.093 -54.702  12.793  1.00  0.00     0.172 HD
HETATM   14  H   UNL     1     -41.184 -51.341  12.918  1.00  0.00     0.164 HD
ENDROOT
BRANCH  11  15
HETATM   15  C   UNL     1     -39.164 -51.385  13.583  1.00  0.00     0.086 C 
HETATM   16  C   UNL     1     -39.414 -50.426  14.757  1.00  0.00     0.028 C 
HETATM   17  C   UNL     1     -39.896 -49.036  14.337  1.00  0.00     0.034 C 
HETATM   18  C   UNL     1     -39.006 -48.412  13.268  1.00  0.00     0.118 C 
HETATM   19  C   UNL     1     -38.880 -49.330  12.055  1.00  0.00     0.034 C 
HETATM   20  C   UNL     1     -38.405 -50.741  12.417  1.00  0.00     0.028 C 
BRANCH  18  21
HETATM   21  O   UNL     1     -37.721 -48.111  13.805  1.00  0.00    -0.396 OA
HETATM   22  H   UNL     1     -37.377 -47.306  13.385  1.00  0.00     0.210 HD
ENDBRANCH  18  21
ENDBRANCH  11  15
TORSDOF 2
ENDMDL
MODEL 6
REMARK VINA RESULT:      -5.4      4.665      5.399
REMARK  2 active torsions:
REMARK  status: ('A' for Active; 'I' for Inactive)
REMARK       I    between atoms: N_8  and  C_9 
REMARK       I    between atoms: C_9  and  N_11 
REMARK    1  A    between atoms: N_11  and  C_12 
REMARK    2  A    between atoms: C_15  and  O_16 
ROOT
HETATM    1  C   UNL     1     -46.351 -48.480   8.333  1.00  0.00     0.078 C 
HETATM    2  C   UNL     1     -45.216 -47.735   8.925  1.00  0.00     0.066 A 
HETATM    3  N   UNL     1     -45.261 -47.140  10.098  1.00  0.00    -0.296 N 
ATOM      4  HN  UNL     1     -46.091 -47.101  10.689  1.00  0.00     0.187 HD
HETATM    5  N   UNL     1     -44.055 -46.578  10.427  1.00  0.00    -0.279 N 
ATOM      6  HN  UNL     1     -43.884 -46.073  11.296  1.00  0.00     0.189 HD
HETATM    7  C   UNL     1     -43.148 -46.761   9.501  1.00  0.00     0.169 A 
HETATM    8  N   UNL     1     -41.835 -46.393   9.539  1.00  0.00    -0.288 N 
HETATM    9  C   UNL     1     -41.203 -45.939  10.666  1.00  0.00     0.322 C 
HETATM   10  O   UNL     1     -39.998 -45.683  10.627  1.00  0.00    -0.247 OA
HETATM   11  N   UNL     1     -41.952 -45.865  11.804  1.00  0.00    -0.338 N 
HETATM   12  S   UNL     1     -43.694 -47.599   8.122  1.00  0.00    -0.038 SA
HETATM   13  H   UNL     1     -41.251 -46.560   8.734  1.00  0.00     0.172 HD
HETATM   14  H   UNL     1     -42.959 -45.956  11.710  1.00  0.00     0.164 HD
ENDROOT
BRANCH  11  15
HETATM   15  C   UNL     1     -41.409 -45.632  13.129  1.00  0.00     0.086 C 
HETATM   16  C   UNL     1     -40.974 -46.963  13.760  1.00  0.00     0.028 C 
HETATM   17  C   UNL     1     -42.119 -47.762  14.387  1.00  0.00     0.034 C 
HETATM   18  C   UNL     1     -42.956 -46.921  15.344  1.00  0.00     0.118 C 
HETATM   19  C   UNL     1     -43.486 -45.666  14.654  1.00  0.00     0.034 C 
HETATM   20  C   UNL     1     -42.381 -44.829  14.001  1.00  0.00     0.028 C 
BRANCH  18  21
HETATM   21  O   UNL     1     -42.193 -46.575  16.498  1.00  0.00    -0.396 OA
HETATM   22  H   UNL     1     -42.789 -46.461  17.255  1.00  0.00     0.210 HD
ENDBRANCH  18  21
ENDBRANCH  11  15
TORSDOF 2
ENDMDL
MODEL 7
REMARK VINA RESULT:      -5.3      3.063      5.555
REMARK  2 active torsions:
REMARK  status: ('A' for Active; 'I' for Inactive)
REMARK       I    between atoms: N_8  and  C_9 
REMARK       I    between atoms: C_9  and  N_11 
REMARK    1  A    between atoms: N_11  and  C_12 
REMARK    2  A    between atoms: C_15  and  O_16 
ROOT
HETATM    1  C   UNL     1     -45.625 -46.761   8.957  1.00  0.00     0.078 C 
HETATM    2  C   UNL     1     -44.432 -47.213   9.709  1.00  0.00     0.066 A 
HETATM    3  N   UNL     1     -44.439 -48.217  10.559  1.00  0.00    -0.296 N 
ATOM      4  HN  UNL     1     -45.271 -48.752  10.808  1.00  0.00     0.187 HD
HETATM    5  N   UNL     1     -43.190 -48.458  11.068  1.00  0.00    -0.279 N 
ATOM      6  HN  UNL     1     -42.984 -49.196  11.742  1.00  0.00     0.189 HD
HETATM    7  C   UNL     1     -42.289 -47.634  10.595  1.00  0.00     0.169 A 
HETATM    8  N   UNL     1     -40.947 -47.640  10.841  1.00  0.00    -0.288 N 
HETATM    9  C   UNL     1     -40.293 -48.658  11.481  1.00  0.00     0.322 C 
HETATM   10  O   UNL     1     -39.068 -48.609  11.609  1.00  0.00    -0.247 OA
HETATM   11  N   UNL     1     -41.051 -49.719  11.882  1.00  0.00    -0.338 N 
HETATM   12  S   UNL     1     -42.890 -46.460   9.517  1.00  0.00    -0.038 SA
HETATM   13  H   UNL     1     -40.368 -46.916  10.441  1.00  0.00     0.172 HD
HETATM   14  H   UNL     1     -42.060 -49.609  11.865  1.00  0.00     0.164 HD
ENDROOT
BRANCH  11  15
HETATM   15  C   UNL     1     -40.510 -50.977  12.362  1.00  0.00     0.086 C 
HETATM   16  C   UNL     1     -41.315 -52.150  11.782  1.00  0.00     0.028 C 
HETATM   17  C   UNL     1     -42.619 -52.444  12.527  1.00  0.00     0.034 C 
HETATM   18  C   UNL     1     -42.408 -52.583  14.031  1.00  0.00     0.118 C 
HETATM   19  C   UNL     1     -41.722 -51.346  14.606  1.00  0.00     0.034 C 
HETATM   20  C   UNL     1     -40.412 -51.000  13.892  1.00  0.00     0.028 C 
BRANCH  18  21
HETATM   21  O   UNL     1     -41.651 -53.756  14.320  1.00  0.00    -0.396 OA
HETATM   22  H   UNL     1     -42.244 -54.447  14.656  1.00  0.00     0.210 HD
ENDBRANCH  18  21
ENDBRANCH  11  15
TORSDOF 2
ENDMDL
MODEL 8
REMARK VINA RESULT:      -5.3      5.380      6.338
REMARK  2 active torsions:
REMARK  status: ('A' for Active; 'I' for Inactive)
REMARK       I    between atoms: N_8  and  C_9 
REMARK       I    between atoms: C_9  and  N_11 
REMARK    1  A    between atoms: N_11  and  C_12 
REMARK    2  A    between atoms: C_15  and  O_16 
ROOT
HETATM    1  C   UNL     1     -46.446 -47.405   8.753  1.00  0.00     0.078 C 
HETATM    2  C   UNL     1     -45.145 -46.764   9.051  1.00  0.00     0.066 A 
HETATM    3  N   UNL     1     -44.997 -45.477   9.279  1.00  0.00    -0.296 N 
ATOM      4  HN  UNL     1     -45.755 -44.796   9.232  1.00  0.00     0.187 HD
HETATM    5  N   UNL     1     -43.699 -45.163   9.586  1.00  0.00    -0.279 N 
ATOM      6  HN  UNL     1     -43.379 -44.217   9.798  1.00  0.00     0.189 HD
HETATM    7  C   UNL     1     -42.915 -46.211   9.578  1.00  0.00     0.169 A 
HETATM    8  N   UNL     1     -41.591 -46.261   9.902  1.00  0.00    -0.288 N 
HETATM    9  C   UNL     1     -40.910 -45.229  10.493  1.00  0.00     0.322 C 
HETATM   10  O   UNL     1     -39.728 -45.380  10.806  1.00  0.00    -0.247 OA
HETATM   11  N   UNL     1     -41.624 -44.099  10.766  1.00  0.00    -0.338 N 
HETATM   12  S   UNL     1     -43.679 -47.672   9.151  1.00  0.00    -0.038 SA
HETATM   13  H   UNL     1     -41.092 -47.134   9.812  1.00  0.00     0.172 HD
HETATM   14  H   UNL     1     -42.544 -44.012  10.346  1.00  0.00     0.164 HD
ENDROOT
BRANCH  11  15
HETATM   15  C   UNL     1     -41.142 -43.004  11.587  1.00  0.00     0.086 C 
HETATM   16  C   UNL     1     -41.331 -43.339  13.074  1.00  0.00     0.028 C 
HETATM   17  C   UNL     1     -42.747 -43.087  13.597  1.00  0.00     0.034 C 
HETATM   18  C   UNL     1     -43.250 -41.689  13.257  1.00  0.00     0.118 C 
HETATM   19  C   UNL     1     -43.173 -41.427  11.755  1.00  0.00     0.034 C 
HETATM   20  C   UNL     1     -41.776 -41.671  11.174  1.00  0.00     0.028 C 
BRANCH  18  21
HETATM   21  O   UNL     1     -42.508 -40.706  13.976  1.00  0.00    -0.396 OA
HETATM   22  H   UNL     1     -42.693 -39.828  13.605  1.00  0.00     0.210 HD
ENDBRANCH  18  21
ENDBRANCH  11  15
TORSDOF 2
ENDMDL
MODEL 9
REMARK VINA RESULT:      -5.2      4.357      6.388
REMARK  2 active torsions:
REMARK  status: ('A' for Active; 'I' for Inactive)
REMARK       I    between atoms: N_8  and  C_9 
REMARK       I    between atoms: C_9  and  N_11 
REMARK    1  A    between atoms: N_11  and  C_12 
REMARK    2  A    between atoms: C_15  and  O_16 
ROOT
HETATM    1  C   UNL     1     -46.259 -50.224  18.755  1.00  0.00     0.078 C 
HETATM    2  C   UNL     1     -46.016 -50.595  17.343  1.00  0.00     0.066 A 
HETATM    3  N   UNL     1     -44.842 -50.517  16.755  1.00  0.00    -0.296 N 
ATOM      4  HN  UNL     1     -43.999 -50.157  17.204  1.00  0.00     0.187 HD
HETATM    5  N   UNL     1     -44.889 -50.979  15.466  1.00  0.00    -0.279 N 
ATOM      6  HN  UNL     1     -44.082 -51.004  14.843  1.00  0.00     0.189 HD
HETATM    7  C   UNL     1     -46.085 -51.383  15.122  1.00  0.00     0.169 A 
HETATM    8  N   UNL     1     -46.462 -51.957  13.943  1.00  0.00    -0.288 N 
HETATM    9  C   UNL     1     -45.580 -52.389  12.989  1.00  0.00     0.322 C 
HETATM   10  O   UNL     1     -46.005 -52.951  11.977  1.00  0.00    -0.247 OA
HETATM   11  N   UNL     1     -44.253 -52.229  13.261  1.00  0.00    -0.338 N 
HETATM   12  S   UNL     1     -47.276 -51.197  16.326  1.00  0.00    -0.038 SA
HETATM   13  H   UNL     1     -47.434 -52.185  13.793  1.00  0.00     0.172 HD
HETATM   14  H   UNL     1     -44.003 -51.633  14.044  1.00  0.00     0.164 HD
ENDROOT
BRANCH  11  15
HETATM   15  C   UNL     1     -43.180 -52.826  12.488  1.00  0.00     0.086 C 
HETATM   16  C   UNL     1     -42.741 -54.150  13.133  1.00  0.00     0.028 C 
HETATM   17  C   UNL     1     -41.779 -53.983  14.311  1.00  0.00     0.034 C 
HETATM   18  C   UNL     1     -40.590 -53.092  13.966  1.00  0.00     0.118 C 
HETATM   19  C   UNL     1     -41.054 -51.733  13.449  1.00  0.00     0.034 C 
HETATM   20  C   UNL     1     -42.027 -51.839  12.271  1.00  0.00     0.028 C 
BRANCH  18  21
HETATM   21  O   UNL     1     -39.751 -53.734  13.009  1.00  0.00    -0.396 OA
HETATM   22  H   UNL     1     -40.065 -54.640  12.862  1.00  0.00     0.210 HD
ENDBRANCH  18  21
ENDBRANCH  11  15
TORSDOF 2
ENDMDL
