MODEL 1
REMARK VINA RESULT:      -5.7      0.000      0.000
REMARK  8 active torsions:
REMARK  status: ('A' for Active; 'I' for Inactive)
REMARK    1  A    between atoms: C_2  and  C_3 
REMARK    2  A    between atoms: C_3  and  C_4 
REMARK    3  A    between atoms: C_4  and  N_5 
REMARK       I    between atoms: N_5  and  C_6 
REMARK    4  A    between atoms: N_5  and  C_13 
REMARK    5  A    between atoms: C_6  and  C_8 
REMARK    6  A    between atoms: C_14  and  N_15 
REMARK    7  A    between atoms: N_16  and  C_17 
REMARK    8  A    between atoms: C_17  and  C_18 
ROOT
HETATM    1  C   UNL     1     -42.690 -51.571  13.123  1.00  0.00     0.144 C 
HETATM    2  C   UNL     1     -41.707 -51.371  12.213  1.00  0.00     0.117 C 
HETATM    3  N   UNL     1     -41.066 -50.136  12.157  1.00  0.00    -0.288 N 
HETATM    4  C   UNL     1     -41.483 -49.041  12.911  1.00  0.00     0.330 C 
HETATM    5  O   UNL     1     -40.938 -47.940  12.888  1.00  0.00    -0.246 OA
HETATM    6  N   UNL     1     -42.548 -49.243  13.736  1.00  0.00    -0.273 N 
HETATM    7  C   UNL     1     -43.141 -50.440  13.986  1.00  0.00     0.279 C 
HETATM    8  O   UNL     1     -43.969 -50.573  14.881  1.00  0.00    -0.265 OA
HETATM    9  H   UNL     1     -42.830 -48.466  14.313  1.00  0.00     0.173 HD
ENDROOT
BRANCH   1  10
HETATM   10  N   UNL     1     -43.286 -52.815  13.293  1.00  0.00    -0.308 N 
HETATM   11  C   UNL     1     -42.738 -53.812  14.100  1.00  0.00     0.253 C 
HETATM   12  O   UNL     1     -43.269 -54.924  14.190  1.00  0.00    -0.270 OA
BRANCH  10  13
HETATM   13  C   UNL     1     -44.440 -53.129  12.413  1.00  0.00     0.132 C 
BRANCH  13  14
HETATM   14  C   UNL     1     -45.805 -52.919  13.086  1.00  0.00     0.020 C 
BRANCH  14  15
HETATM   15  C   UNL     1     -46.496 -51.610  12.681  1.00  0.00    -0.003 C 
HETATM   16  C   UNL     1     -47.178 -51.755  11.324  1.00  0.00     0.005 C 
ENDBRANCH  14  15
ENDBRANCH  13  14
ENDBRANCH  10  13
BRANCH  11  17
HETATM   17  C   UNL     1     -41.467 -53.508  14.970  1.00  0.00     0.213 C 
HETATM   18  C   UNL     1     -40.226 -54.170  14.362  1.00  0.00     0.044 C 
HETATM   19  C   UNL     1     -39.446 -54.729  15.531  1.00  0.00     0.029 C 
HETATM   20  C   UNL     1     -40.092 -54.102  16.738  1.00  0.00     0.168 C 
HETATM   21  O   UNL     1     -41.436 -53.808  16.361  1.00  0.00    -0.376 OA
ENDBRANCH  11  17
ENDBRANCH   1  10
BRANCH   2  22
HETATM   22  N   UNL     1     -41.365 -52.402  11.337  1.00  0.00    -0.286 NA
HETATM   23  H   UNL     1     -42.169 -52.711  10.791  1.00  0.00     0.125 HD
HETATM   24  H   UNL     1     -40.943 -53.189  11.817  1.00  0.00     0.125 HD
ENDBRANCH   2  22
BRANCH   3  25
HETATM   25  C   UNL     1     -39.888 -49.930  11.308  1.00  0.00     0.135 C 
BRANCH  25  26
HETATM   26  C   UNL     1     -38.542 -50.177  11.994  1.00  0.00     0.016 C 
HETATM   27  C   UNL     1     -37.343 -50.004  11.078  1.00  0.00     0.006 C 
ENDBRANCH  25  26
ENDBRANCH   3  25
TORSDOF 8
ENDMDL
MODEL 2
REMARK VINA RESULT:      -5.7      2.350      6.750
REMARK  8 active torsions:
REMARK  status: ('A' for Active; 'I' for Inactive)
REMARK    1  A    between atoms: C_2  and  C_3 
REMARK    2  A    between atoms: C_3  and  C_4 
REMARK    3  A    between atoms: C_4  and  N_5 
REMARK       I    between atoms: N_5  and  C_6 
REMARK    4  A    between atoms: N_5  and  C_13 
REMARK    5  A    between atoms: C_6  and  C_8 
REMARK    6  A    between atoms: C_14  and  N_15 
REMARK    7  A    between atoms: N_16  and  C_17 
REMARK    8  A    between atoms: C_17  and  C_18 
ROOT
HETATM    1  C   UNL     1     -42.265 -51.346  13.263  1.00  0.00     0.144 C 
HETATM    2  C   UNL     1     -43.373 -51.425  14.040  1.00  0.00     0.117 C 
HETATM    3  N   UNL     1     -44.290 -52.450  13.823  1.00  0.00    -0.288 N 
HETATM    4  C   UNL     1     -44.189 -53.329  12.746  1.00  0.00     0.330 C 
HETATM    5  O   UNL     1     -44.979 -54.246  12.528  1.00  0.00    -0.246 OA
HETATM    6  N   UNL     1     -43.123 -53.154  11.917  1.00  0.00    -0.273 N 
HETATM    7  C   UNL     1     -42.090 -52.295  12.126  1.00  0.00     0.279 C 
HETATM    8  O   UNL     1     -41.077 -52.329  11.435  1.00  0.00    -0.265 OA
HETATM    9  H   UNL     1     -43.023 -53.811  11.159  1.00  0.00     0.173 HD
ENDROOT
BRANCH   1  10
HETATM   10  N   UNL     1     -41.268 -50.409  13.508  1.00  0.00    -0.308 N 
HETATM   11  C   UNL     1     -41.094 -49.268  12.724  1.00  0.00     0.253 C 
HETATM   12  O   UNL     1     -40.167 -48.481  12.941  1.00  0.00    -0.270 OA
BRANCH  10  13
HETATM   13  C   UNL     1     -40.247 -50.770  14.523  1.00  0.00     0.132 C 
BRANCH  13  14
HETATM   14  C   UNL     1     -39.095 -51.622  13.966  1.00  0.00     0.020 C 
BRANCH  14  15
HETATM   15  C   UNL     1     -37.803 -50.830  13.729  1.00  0.00    -0.003 C 
HETATM   16  C   UNL     1     -37.492 -50.734  12.237  1.00  0.00     0.005 C 
ENDBRANCH  14  15
ENDBRANCH  13  14
ENDBRANCH  10  13
BRANCH  11  17
HETATM   17  C   UNL     1     -42.127 -48.927  11.593  1.00  0.00     0.213 C 
HETATM   18  C   UNL     1     -41.465 -48.091  10.492  1.00  0.00     0.044 C 
HETATM   19  C   UNL     1     -42.481 -47.037  10.112  1.00  0.00     0.029 C 
HETATM   20  C   UNL     1     -43.756 -47.503  10.765  1.00  0.00     0.168 C 
HETATM   21  O   UNL     1     -43.363 -48.287  11.889  1.00  0.00    -0.376 OA
ENDBRANCH  11  17
ENDBRANCH   1  10
BRANCH   2  22
HETATM   22  N   UNL     1     -43.582 -50.468  15.033  1.00  0.00    -0.286 NA
HETATM   23  H   UNL     1     -43.771 -49.549  14.633  1.00  0.00     0.125 HD
HETATM   24  H   UNL     1     -42.807 -50.415  15.685  1.00  0.00     0.125 HD
ENDBRANCH   2  22
BRANCH   3  25
HETATM   25  C   UNL     1     -45.410 -52.674  14.742  1.00  0.00     0.135 C 
BRANCH  25  26
HETATM   26  C   UNL     1     -46.639 -51.795  14.493  1.00  0.00     0.016 C 
HETATM   27  C   UNL     1     -47.315 -51.307  15.763  1.00  0.00     0.006 C 
ENDBRANCH  25  26
ENDBRANCH   3  25
TORSDOF 8
ENDMDL
MODEL 3
REMARK VINA RESULT:      -5.6      2.525      5.173
REMARK  8 active torsions:
REMARK  status: ('A' for Active; 'I' for Inactive)
REMARK    1  A    between atoms: C_2  and  C_3 
REMARK    2  A    between atoms: C_3  and  C_4 
REMARK    3  A    between atoms: C_4  and  N_5 
REMARK       I    between atoms: N_5  and  C_6 
REMARK    4  A    between atoms: N_5  and  C_13 
REMARK    5  A    between atoms: C_6  and  C_8 
REMARK    6  A    between atoms: C_14  and  N_15 
REMARK    7  A    between atoms: N_16  and  C_17 
REMARK    8  A    between atoms: C_17  and  C_18 
ROOT
HETATM    1  C   UNL     1     -40.202 -49.605  12.854  1.00  0.00     0.144 C 
HETATM    2  C   UNL     1     -40.693 -49.206  11.655  1.00  0.00     0.117 C 
HETATM    3  N   UNL     1     -41.362 -47.988  11.561  1.00  0.00    -0.288 N 
HETATM    4  C   UNL     1     -41.670 -47.214  12.679  1.00  0.00     0.330 C 
HETATM    5  O   UNL     1     -42.256 -46.135  12.630  1.00  0.00    -0.246 OA
HETATM    6  N   UNL     1     -41.260 -47.698  13.884  1.00  0.00    -0.273 N 
HETATM    7  C   UNL     1     -40.467 -48.786  14.072  1.00  0.00     0.279 C 
HETATM    8  O   UNL     1     -39.986 -49.048  15.170  1.00  0.00    -0.265 OA
HETATM    9  H   UNL     1     -41.446 -47.124  14.691  1.00  0.00     0.173 HD
ENDROOT
BRANCH   1  10
HETATM   10  N   UNL     1     -39.434 -50.757  12.981  1.00  0.00    -0.308 N 
HETATM   11  C   UNL     1     -39.989 -52.008  13.255  1.00  0.00     0.253 C 
HETATM   12  O   UNL     1     -39.272 -53.002  13.409  1.00  0.00    -0.270 OA
BRANCH  10  13
HETATM   13  C   UNL     1     -37.961 -50.577  13.016  1.00  0.00     0.132 C 
BRANCH  13  14
HETATM   14  C   UNL     1     -37.258 -50.985  11.712  1.00  0.00     0.020 C 
BRANCH  14  15
HETATM   15  C   UNL     1     -37.099 -49.833  10.712  1.00  0.00    -0.003 C 
HETATM   16  C   UNL     1     -36.469 -50.326   9.412  1.00  0.00     0.005 C 
ENDBRANCH  14  15
ENDBRANCH  13  14
ENDBRANCH  10  13
BRANCH  11  17
HETATM   17  C   UNL     1     -41.547 -52.184  13.301  1.00  0.00     0.213 C 
HETATM   18  C   UNL     1     -41.930 -53.371  14.190  1.00  0.00     0.044 C 
HETATM   19  C   UNL     1     -43.051 -54.082  13.464  1.00  0.00     0.029 C 
HETATM   20  C   UNL     1     -43.460 -53.115  12.384  1.00  0.00     0.168 C 
HETATM   21  O   UNL     1     -42.310 -52.319  12.107  1.00  0.00    -0.376 OA
ENDBRANCH  11  17
ENDBRANCH   1  10
BRANCH   2  22
HETATM   22  N   UNL     1     -40.534 -50.030  10.541  1.00  0.00    -0.286 NA
HETATM   23  H   UNL     1     -40.871 -49.579   9.691  1.00  0.00     0.125 HD
HETATM   24  H   UNL     1     -40.984 -50.931  10.663  1.00  0.00     0.125 HD
ENDBRANCH   2  22
BRANCH   3  25
HETATM   25  C   UNL     1     -41.761 -47.439  10.261  1.00  0.00     0.135 C 
BRANCH  25  26
HETATM   26  C   UNL     1     -43.221 -47.689   9.871  1.00  0.00     0.016 C 
HETATM   27  C   UNL     1     -43.787 -46.656   8.912  1.00  0.00     0.006 C 
ENDBRANCH  25  26
ENDBRANCH   3  25
TORSDOF 8
ENDMDL
MODEL 4
REMARK VINA RESULT:      -5.3      2.599      5.664
REMARK  8 active torsions:
REMARK  status: ('A' for Active; 'I' for Inactive)
REMARK    1  A    between atoms: C_2  and  C_3 
REMARK    2  A    between atoms: C_3  and  C_4 
REMARK    3  A    between atoms: C_4  and  N_5 
REMARK       I    between atoms: N_5  and  C_6 
REMARK    4  A    between atoms: N_5  and  C_13 
REMARK    5  A    between atoms: C_6  and  C_8 
REMARK    6  A    between atoms: C_14  and  N_15 
REMARK    7  A    between atoms: N_16  and  C_17 
REMARK    8  A    between atoms: C_17  and  C_18 
ROOT
HETATM    1  C   UNL     1     -41.342 -53.127  14.450  1.00  0.00     0.144 C 
HETATM    2  C   UNL     1     -42.536 -52.814  15.010  1.00  0.00     0.117 C 
HETATM    3  N   UNL     1     -43.713 -53.172  14.357  1.00  0.00    -0.288 N 
HETATM    4  C   UNL     1     -43.721 -53.724  13.078  1.00  0.00     0.330 C 
HETATM    5  O   UNL     1     -44.741 -54.054  12.476  1.00  0.00    -0.246 OA
HETATM    6  N   UNL     1     -42.507 -53.925  12.495  1.00  0.00    -0.273 N 
HETATM    7  C   UNL     1     -41.301 -53.762  13.101  1.00  0.00     0.279 C 
HETATM    8  O   UNL     1     -40.261 -54.142  12.573  1.00  0.00    -0.265 OA
HETATM    9  H   UNL     1     -42.505 -54.360  11.586  1.00  0.00     0.173 HD
ENDROOT
BRANCH   1  10
HETATM   10  N   UNL     1     -40.142 -52.889  15.110  1.00  0.00    -0.308 N 
HETATM   11  C   UNL     1     -39.600 -53.780  16.037  1.00  0.00     0.253 C 
HETATM   12  O   UNL     1     -38.555 -53.515  16.641  1.00  0.00    -0.270 OA
BRANCH  10  13
HETATM   13  C   UNL     1     -39.545 -51.540  14.946  1.00  0.00     0.132 C 
BRANCH  13  14
HETATM   14  C   UNL     1     -38.420 -51.486  13.900  1.00  0.00     0.020 C 
BRANCH  14  15
HETATM   15  C   UNL     1     -38.838 -50.823  12.581  1.00  0.00    -0.003 C 
HETATM   16  C   UNL     1     -37.621 -50.275  11.840  1.00  0.00     0.005 C 
ENDBRANCH  14  15
ENDBRANCH  13  14
ENDBRANCH  10  13
BRANCH  11  17
HETATM   17  C   UNL     1     -40.277 -55.176  16.275  1.00  0.00     0.213 C 
HETATM   18  C   UNL     1     -41.052 -55.182  17.596  1.00  0.00     0.044 C 
HETATM   19  C   UNL     1     -40.773 -56.528  18.228  1.00  0.00     0.029 C 
HETATM   20  C   UNL     1     -40.131 -57.326  17.125  1.00  0.00     0.168 C 
HETATM   21  O   UNL     1     -39.516 -56.379  16.255  1.00  0.00    -0.376 OA
ENDBRANCH  11  17
ENDBRANCH   1  10
BRANCH   2  22
HETATM   22  N   UNL     1     -42.564 -52.123  16.222  1.00  0.00    -0.286 NA
HETATM   23  H   UNL     1     -41.984 -52.579  16.926  1.00  0.00     0.125 HD
HETATM   24  H   UNL     1     -43.508 -51.999  16.571  1.00  0.00     0.125 HD
ENDBRANCH   2  22
BRANCH   3  25
HETATM   25  C   UNL     1     -45.019 -53.005  15.002  1.00  0.00     0.135 C 
BRANCH  25  26
HETATM   26  C   UNL     1     -45.632 -51.607  14.874  1.00  0.00     0.016 C 
HETATM   27  C   UNL     1     -46.651 -51.482  13.754  1.00  0.00     0.006 C 
ENDBRANCH  25  26
ENDBRANCH   3  25
TORSDOF 8
ENDMDL
MODEL 5
REMARK VINA RESULT:      -5.3      1.301      4.360
REMARK  8 active torsions:
REMARK  status: ('A' for Active; 'I' for Inactive)
REMARK    1  A    between atoms: C_2  and  C_3 
REMARK    2  A    between atoms: C_3  and  C_4 
REMARK    3  A    between atoms: C_4  and  N_5 
REMARK       I    between atoms: N_5  and  C_6 
REMARK    4  A    between atoms: N_5  and  C_13 
REMARK    5  A    between atoms: C_6  and  C_8 
REMARK    6  A    between atoms: C_14  and  N_15 
REMARK    7  A    between atoms: N_16  and  C_17 
REMARK    8  A    between atoms: C_17  and  C_18 
ROOT
HETATM    1  C   UNL     1     -41.782 -51.919  13.714  1.00  0.00     0.144 C 
HETATM    2  C   UNL     1     -41.223 -51.502  12.552  1.00  0.00     0.117 C 
HETATM    3  N   UNL     1     -40.639 -50.240  12.488  1.00  0.00    -0.288 N 
HETATM    4  C   UNL     1     -40.720 -49.323  13.535  1.00  0.00     0.330 C 
HETATM    5  O   UNL     1     -40.213 -48.203  13.512  1.00  0.00    -0.246 OA
HETATM    6  N   UNL     1     -41.386 -49.732  14.650  1.00  0.00    -0.273 N 
HETATM    7  C   UNL     1     -41.851 -50.989  14.878  1.00  0.00     0.279 C 
HETATM    8  O   UNL     1     -42.271 -51.328  15.980  1.00  0.00    -0.265 OA
HETATM    9  H   UNL     1     -41.414 -49.088  15.425  1.00  0.00     0.173 HD
ENDROOT
BRANCH   1  10
HETATM   10  N   UNL     1     -42.281 -53.208  13.863  1.00  0.00    -0.308 N 
HETATM   11  C   UNL     1     -43.611 -53.538  13.600  1.00  0.00     0.253 C 
HETATM   12  O   UNL     1     -44.032 -54.685  13.788  1.00  0.00    -0.270 OA
BRANCH  10  13
HETATM   13  C   UNL     1     -41.389 -54.199  14.515  1.00  0.00     0.132 C 
BRANCH  13  14
HETATM   14  C   UNL     1     -40.017 -54.337  13.835  1.00  0.00     0.020 C 
BRANCH  14  15
HETATM   15  C   UNL     1     -38.908 -54.816  14.779  1.00  0.00    -0.003 C 
HETATM   16  C   UNL     1     -39.375 -54.772  16.231  1.00  0.00     0.005 C 
ENDBRANCH  14  15
ENDBRANCH  13  14
ENDBRANCH  10  13
BRANCH  11  17
HETATM   17  C   UNL     1     -44.580 -52.467  12.987  1.00  0.00     0.213 C 
HETATM   18  C   UNL     1     -45.283 -51.678  14.096  1.00  0.00     0.044 C 
HETATM   19  C   UNL     1     -46.717 -51.520  13.640  1.00  0.00     0.029 C 
HETATM   20  C   UNL     1     -46.690 -51.934  12.192  1.00  0.00     0.168 C 
HETATM   21  O   UNL     1     -45.594 -52.835  12.057  1.00  0.00    -0.376 OA
ENDBRANCH  11  17
ENDBRANCH   1  10
BRANCH   2  22
HETATM   22  N   UNL     1     -41.259 -52.338  11.436  1.00  0.00    -0.286 NA
HETATM   23  H   UNL     1     -41.143 -51.812  10.570  1.00  0.00     0.125 HD
HETATM   24  H   UNL     1     -42.107 -52.893  11.399  1.00  0.00     0.125 HD
ENDBRANCH   2  22
BRANCH   3  25
HETATM   25  C   UNL     1     -39.878 -49.814  11.309  1.00  0.00     0.135 C 
BRANCH  25  26
HETATM   26  C   UNL     1     -38.371 -49.656  11.532  1.00  0.00     0.016 C 
HETATM   27  C   UNL     1     -37.737 -50.806  12.295  1.00  0.00     0.006 C 
ENDBRANCH  25  26
ENDBRANCH   3  25
TORSDOF 8
ENDMDL
MODEL 6
REMARK VINA RESULT:      -5.3      2.474      3.555
REMARK  8 active torsions:
REMARK  status: ('A' for Active; 'I' for Inactive)
REMARK    1  A    between atoms: C_2  and  C_3 
REMARK    2  A    between atoms: C_3  and  C_4 
REMARK    3  A    between atoms: C_4  and  N_5 
REMARK       I    between atoms: N_5  and  C_6 
REMARK    4  A    between atoms: N_5  and  C_13 
REMARK    5  A    between atoms: C_6  and  C_8 
REMARK    6  A    between atoms: C_14  and  N_15 
REMARK    7  A    between atoms: N_16  and  C_17 
REMARK    8  A    between atoms: C_17  and  C_18 
ROOT
HETATM    1  C   UNL     1     -41.494 -50.423  12.709  1.00  0.00     0.144 C 
HETATM    2  C   UNL     1     -41.256 -49.623  11.641  1.00  0.00     0.117 C 
HETATM    3  N   UNL     1     -41.852 -48.366  11.581  1.00  0.00    -0.288 N 
HETATM    4  C   UNL     1     -42.797 -47.940  12.513  1.00  0.00     0.330 C 
HETATM    5  O   UNL     1     -43.338 -46.837  12.491  1.00  0.00    -0.246 OA
HETATM    6  N   UNL     1     -43.098 -48.812  13.514  1.00  0.00    -0.273 N 
HETATM    7  C   UNL     1     -42.463 -49.990  13.757  1.00  0.00     0.279 C 
HETATM    8  O   UNL     1     -42.664 -50.628  14.785  1.00  0.00    -0.265 OA
HETATM    9  H   UNL     1     -43.751 -48.494  14.213  1.00  0.00     0.173 HD
ENDROOT
BRANCH   1  10
HETATM   10  N   UNL     1     -40.841 -51.640  12.869  1.00  0.00    -0.308 N 
HETATM   11  C   UNL     1     -39.558 -51.743  13.408  1.00  0.00     0.253 C 
HETATM   12  O   UNL     1     -38.988 -52.836  13.492  1.00  0.00    -0.270 OA
BRANCH  10  13
HETATM   13  C   UNL     1     -41.480 -52.828  12.251  1.00  0.00     0.132 C 
BRANCH  13  14
HETATM   14  C   UNL     1     -42.131 -53.778  13.269  1.00  0.00     0.020 C 
BRANCH  14  15
HETATM   15  C   UNL     1     -43.581 -54.146  12.928  1.00  0.00    -0.003 C 
HETATM   16  C   UNL     1     -44.370 -52.908  12.509  1.00  0.00     0.005 C 
ENDBRANCH  14  15
ENDBRANCH  13  14
ENDBRANCH  10  13
BRANCH  11  17
HETATM   17  C   UNL     1     -38.844 -50.471  13.988  1.00  0.00     0.213 C 
HETATM   18  C   UNL     1     -37.321 -50.631  13.922  1.00  0.00     0.044 C 
HETATM   19  C   UNL     1     -36.795 -50.075  15.227  1.00  0.00     0.029 C 
HETATM   20  C   UNL     1     -37.976 -49.354  15.823  1.00  0.00     0.168 C 
HETATM   21  O   UNL     1     -39.137 -49.991  15.295  1.00  0.00    -0.376 OA
ENDBRANCH  11  17
ENDBRANCH   1  10
BRANCH   2  22
HETATM   22  N   UNL     1     -40.432 -50.081  10.613  1.00  0.00    -0.286 NA
HETATM   23  H   UNL     1     -40.575 -51.074  10.432  1.00  0.00     0.125 HD
HETATM   24  H   UNL     1     -39.452 -49.894  10.794  1.00  0.00     0.125 HD
ENDBRANCH   2  22
BRANCH   3  25
HETATM   25  C   UNL     1     -41.493 -47.405  10.534  1.00  0.00     0.135 C 
BRANCH  25  26
HETATM   26  C   UNL     1     -40.295 -46.508  10.858  1.00  0.00     0.016 C 
HETATM   27  C   UNL     1     -40.533 -45.035  10.570  1.00  0.00     0.006 C 
ENDBRANCH  25  26
ENDBRANCH   3  25
TORSDOF 8
ENDMDL
MODEL 7
REMARK VINA RESULT:      -5.3      2.809      5.523
REMARK  8 active torsions:
REMARK  status: ('A' for Active; 'I' for Inactive)
REMARK    1  A    between atoms: C_2  and  C_3 
REMARK    2  A    between atoms: C_3  and  C_4 
REMARK    3  A    between atoms: C_4  and  N_5 
REMARK       I    between atoms: N_5  and  C_6 
REMARK    4  A    between atoms: N_5  and  C_13 
REMARK    5  A    between atoms: C_6  and  C_8 
REMARK    6  A    between atoms: C_14  and  N_15 
REMARK    7  A    between atoms: N_16  and  C_17 
REMARK    8  A    between atoms: C_17  and  C_18 
ROOT
HETATM    1  C   UNL     1     -40.203 -53.508  14.717  1.00  0.00     0.144 C 
HETATM    2  C   UNL     1     -39.251 -54.446  14.943  1.00  0.00     0.117 C 
HETATM    3  N   UNL     1     -38.719 -54.587  16.223  1.00  0.00    -0.288 N 
HETATM    4  C   UNL     1     -39.025 -53.710  17.261  1.00  0.00     0.330 C 
HETATM    5  O   UNL     1     -38.576 -53.807  18.401  1.00  0.00    -0.246 OA
HETATM    6  N   UNL     1     -39.901 -52.708  16.972  1.00  0.00    -0.273 N 
HETATM    7  C   UNL     1     -40.597 -52.575  15.812  1.00  0.00     0.279 C 
HETATM    8  O   UNL     1     -41.505 -51.758  15.698  1.00  0.00    -0.265 OA
HETATM    9  H   UNL     1     -40.156 -52.094  17.730  1.00  0.00     0.173 HD
ENDROOT
BRANCH   1  10
HETATM   10  N   UNL     1     -40.842 -53.399  13.487  1.00  0.00    -0.308 N 
HETATM   11  C   UNL     1     -40.572 -52.372  12.583  1.00  0.00     0.253 C 
HETATM   12  O   UNL     1     -41.194 -52.280  11.520  1.00  0.00    -0.270 OA
BRANCH  10  13
HETATM   13  C   UNL     1     -41.989 -54.311  13.249  1.00  0.00     0.132 C 
BRANCH  13  14
HETATM   14  C   UNL     1     -43.331 -53.761  13.757  1.00  0.00     0.020 C 
BRANCH  14  15
HETATM   15  C   UNL     1     -44.156 -54.785  14.548  1.00  0.00    -0.003 C 
HETATM   16  C   UNL     1     -45.435 -55.147  13.798  1.00  0.00     0.005 C 
ENDBRANCH  14  15
ENDBRANCH  13  14
ENDBRANCH  10  13
BRANCH  11  17
HETATM   17  C   UNL     1     -39.413 -51.355  12.873  1.00  0.00     0.213 C 
HETATM   18  C   UNL     1     -39.507 -50.148  11.934  1.00  0.00     0.044 C 
HETATM   19  C   UNL     1     -38.085 -49.841  11.518  1.00  0.00     0.029 C 
HETATM   20  C   UNL     1     -37.242 -50.659  12.460  1.00  0.00     0.168 C 
HETATM   21  O   UNL     1     -38.049 -51.764  12.858  1.00  0.00    -0.376 OA
ENDBRANCH  11  17
ENDBRANCH   1  10
BRANCH   2  22
HETATM   22  N   UNL     1     -38.810 -55.243  13.887  1.00  0.00    -0.286 NA
HETATM   23  H   UNL     1     -39.176 -56.192  13.956  1.00  0.00     0.125 HD
HETATM   24  H   UNL     1     -37.798 -55.261  13.816  1.00  0.00     0.125 HD
ENDBRANCH   2  22
BRANCH   3  25
HETATM   25  C   UNL     1     -37.815 -55.693  16.552  1.00  0.00     0.135 C 
BRANCH  25  26
HETATM   26  C   UNL     1     -38.418 -56.779  17.448  1.00  0.00     0.016 C 
HETATM   27  C   UNL     1     -39.840 -57.162  17.079  1.00  0.00     0.006 C 
ENDBRANCH  25  26
ENDBRANCH   3  25
TORSDOF 8
ENDMDL
MODEL 8
REMARK VINA RESULT:      -5.2      2.076      5.981
REMARK  8 active torsions:
REMARK  status: ('A' for Active; 'I' for Inactive)
REMARK    1  A    between atoms: C_2  and  C_3 
REMARK    2  A    between atoms: C_3  and  C_4 
REMARK    3  A    between atoms: C_4  and  N_5 
REMARK       I    between atoms: N_5  and  C_6 
REMARK    4  A    between atoms: N_5  and  C_13 
REMARK    5  A    between atoms: C_6  and  C_8 
REMARK    6  A    between atoms: C_14  and  N_15 
REMARK    7  A    between atoms: N_16  and  C_17 
REMARK    8  A    between atoms: C_17  and  C_18 
ROOT
HETATM    1  C   UNL     1     -42.381 -52.804  14.048  1.00  0.00     0.144 C 
HETATM    2  C   UNL     1     -43.499 -52.988  13.305  1.00  0.00     0.117 C 
HETATM    3  N   UNL     1     -44.747 -52.930  13.920  1.00  0.00    -0.288 N 
HETATM    4  C   UNL     1     -44.897 -52.824  15.301  1.00  0.00     0.330 C 
HETATM    5  O   UNL     1     -45.983 -52.767  15.875  1.00  0.00    -0.246 OA
HETATM    6  N   UNL     1     -43.750 -52.752  16.033  1.00  0.00    -0.273 N 
HETATM    7  C   UNL     1     -42.494 -52.639  15.526  1.00  0.00     0.279 C 
HETATM    8  O   UNL     1     -41.532 -52.390  16.246  1.00  0.00    -0.265 OA
HETATM    9  H   UNL     1     -43.853 -52.635  17.029  1.00  0.00     0.173 HD
ENDROOT
BRANCH   1  10
HETATM   10  N   UNL     1     -41.120 -52.744  13.467  1.00  0.00    -0.308 N 
HETATM   11  C   UNL     1     -40.593 -51.572  12.923  1.00  0.00     0.253 C 
HETATM   12  O   UNL     1     -39.488 -51.566  12.371  1.00  0.00    -0.270 OA
BRANCH  10  13
HETATM   13  C   UNL     1     -40.420 -54.036  13.256  1.00  0.00     0.132 C 
BRANCH  13  14
HETATM   14  C   UNL     1     -39.220 -54.248  14.193  1.00  0.00     0.020 C 
BRANCH  14  15
HETATM   15  C   UNL     1     -39.539 -55.119  15.414  1.00  0.00    -0.003 C 
HETATM   16  C   UNL     1     -38.257 -55.611  16.080  1.00  0.00     0.005 C 
ENDBRANCH  14  15
ENDBRANCH  13  14
ENDBRANCH  10  13
BRANCH  11  17
HETATM   17  C   UNL     1     -41.371 -50.217  13.072  1.00  0.00     0.213 C 
HETATM   18  C   UNL     1     -41.566 -49.554  11.705  1.00  0.00     0.044 C 
HETATM   19  C   UNL     1     -41.318 -48.078  11.927  1.00  0.00     0.029 C 
HETATM   20  C   UNL     1     -41.309 -47.928  13.426  1.00  0.00     0.168 C 
HETATM   21  O   UNL     1     -40.913 -49.194  13.949  1.00  0.00    -0.376 OA
ENDBRANCH  11  17
ENDBRANCH   1  10
BRANCH   2  22
HETATM   22  N   UNL     1     -43.378 -53.249  11.940  1.00  0.00    -0.286 NA
HETATM   23  H   UNL     1     -44.291 -53.362  11.498  1.00  0.00     0.125 HD
HETATM   24  H   UNL     1     -42.796 -54.058  11.754  1.00  0.00     0.125 HD
ENDBRANCH   2  22
BRANCH   3  25
HETATM   25  C   UNL     1     -45.984 -52.956  13.132  1.00  0.00     0.135 C 
BRANCH  25  26
HETATM   26  C   UNL     1     -46.460 -51.591  12.628  1.00  0.00     0.016 C 
HETATM   27  C   UNL     1     -47.218 -51.650  11.313  1.00  0.00     0.006 C 
ENDBRANCH  25  26
ENDBRANCH   3  25
TORSDOF 8
ENDMDL
MODEL 9
REMARK VINA RESULT:      -5.2      2.928      7.101
REMARK  8 active torsions:
REMARK  status: ('A' for Active; 'I' for Inactive)
REMARK    1  A    between atoms: C_2  and  C_3 
REMARK    2  A    between atoms: C_3  and  C_4 
REMARK    3  A    between atoms: C_4  and  N_5 
REMARK       I    between atoms: N_5  and  C_6 
REMARK    4  A    between atoms: N_5  and  C_13 
REMARK    5  A    between atoms: C_6  and  C_8 
REMARK    6  A    between atoms: C_14  and  N_15 
REMARK    7  A    between atoms: N_16  and  C_17 
REMARK    8  A    between atoms: C_17  and  C_18 
ROOT
HETATM    1  C   UNL     1     -41.836 -49.435  12.552  1.00  0.00     0.144 C 
HETATM    2  C   UNL     1     -42.615 -50.445  13.010  1.00  0.00     0.117 C 
HETATM    3  N   UNL     1     -42.234 -51.764  12.774  1.00  0.00    -0.288 N 
HETATM    4  C   UNL     1     -41.149 -52.097  11.966  1.00  0.00     0.330 C 
HETATM    5  O   UNL     1     -40.784 -53.249  11.741  1.00  0.00    -0.246 OA
HETATM    6  N   UNL     1     -40.451 -51.058  11.429  1.00  0.00    -0.273 N 
HETATM    7  C   UNL     1     -40.637 -49.743  11.721  1.00  0.00     0.279 C 
HETATM    8  O   UNL     1     -39.848 -48.884  11.343  1.00  0.00    -0.265 OA
HETATM    9  H   UNL     1     -39.641 -51.292  10.876  1.00  0.00     0.173 HD
ENDROOT
BRANCH   1  10
HETATM   10  N   UNL     1     -42.114 -48.106  12.853  1.00  0.00    -0.308 N 
HETATM   11  C   UNL     1     -42.803 -47.262  11.982  1.00  0.00     0.253 C 
HETATM   12  O   UNL     1     -42.991 -46.074  12.261  1.00  0.00    -0.270 OA
BRANCH  10  13
HETATM   13  C   UNL     1     -41.465 -47.546  14.065  1.00  0.00     0.132 C 
BRANCH  13  14
HETATM   14  C   UNL     1     -40.103 -46.888  13.788  1.00  0.00     0.020 C 
BRANCH  14  15
HETATM   15  C   UNL     1     -40.070 -45.387  14.102  1.00  0.00    -0.003 C 
HETATM   16  C   UNL     1     -39.046 -44.672  13.224  1.00  0.00     0.005 C 
ENDBRANCH  14  15
ENDBRANCH  13  14
ENDBRANCH  10  13
BRANCH  11  17
HETATM   17  C   UNL     1     -43.420 -47.835  10.657  1.00  0.00     0.213 C 
HETATM   18  C   UNL     1     -42.567 -47.434   9.448  1.00  0.00     0.044 C 
HETATM   19  C   UNL     1     -43.550 -47.066   8.359  1.00  0.00     0.029 C 
HETATM   20  C   UNL     1     -44.875 -47.564   8.874  1.00  0.00     0.168 C 
HETATM   21  O   UNL     1     -44.771 -47.569  10.296  1.00  0.00    -0.376 OA
ENDBRANCH  11  17
ENDBRANCH   1  10
BRANCH   2  22
HETATM   22  N   UNL     1     -43.793 -50.146  13.694  1.00  0.00    -0.286 NA
HETATM   23  H   UNL     1     -43.950 -50.790  14.469  1.00  0.00     0.125 HD
HETATM   24  H   UNL     1     -44.601 -50.132  13.080  1.00  0.00     0.125 HD
ENDBRANCH   2  22
BRANCH   3  25
HETATM   25  C   UNL     1     -42.952 -52.884  13.391  1.00  0.00     0.135 C 
BRANCH  25  26
HETATM   26  C   UNL     1     -44.071 -53.487  12.538  1.00  0.00     0.016 C 
HETATM   27  C   UNL     1     -45.443 -53.426  13.188  1.00  0.00     0.006 C 
ENDBRANCH  25  26
ENDBRANCH   3  25
TORSDOF 8
ENDMDL
