MODEL 1
REMARK VINA RESULT:      -6.6      0.000      0.000
REMARK  5 active torsions:
REMARK  status: ('A' for Active; 'I' for Inactive)
REMARK    1  A    between atoms: C_4  and  N_5 
REMARK       I    between atoms: N_5  and  C_6 
REMARK       I    between atoms: C_6  and  N_8 
REMARK    2  A    between atoms: N_8  and  C_9 
REMARK    3  A    between atoms: C_9  and  C_10 
REMARK    4  A    between atoms: C_10  and  C_11 
REMARK    5  A    between atoms: C_11  and  N_12 
ROOT
HETATM    1  N   UNL     1     -40.868 -51.026  11.142  1.00  0.00    -0.293 N 
HETATM    2  C   UNL     1     -40.890 -51.840  12.310  1.00  0.00     0.321 C 
HETATM    3  O   UNL     1     -40.669 -51.411  13.427  1.00  0.00    -0.247 OA
HETATM    4  N   UNL     1     -41.182 -53.135  12.015  1.00  0.00    -0.343 N 
HETATM    5  H   UNL     1     -41.053 -51.452  10.250  1.00  0.00     0.172 HD
HETATM    6  H   UNL     1     -41.378 -53.451  11.078  1.00  0.00     0.164 HD
ENDROOT
BRANCH   1   7
HETATM    7  C   UNL     1     -40.597 -49.659  11.193  1.00  0.00     0.127 A 
HETATM    8  C   UNL     1     -41.486 -48.621  11.013  1.00  0.00     0.076 A 
HETATM    9  C   UNL     1     -40.739 -47.436  11.155  1.00  0.00     0.025 A 
HETATM   10  C   UNL     1     -41.243 -46.046  11.043  1.00  0.00     0.070 C 
HETATM   11  N   UNL     1     -39.454 -47.696  11.411  1.00  0.00    -0.302 N 
HETATM   12  N   UNL     1     -39.388 -49.044  11.432  1.00  0.00    -0.281 N 
ATOM     13  HN  UNL     1     -38.696 -47.029  11.557  1.00  0.00     0.186 HD
HETATM   14  C   UNL     1     -38.102 -49.645  11.691  1.00  0.00     0.179 C 
ENDBRANCH   1   7
BRANCH   4  15
HETATM   15  C   UNL     1     -41.247 -54.081  13.115  1.00  0.00     0.126 C 
BRANCH  15  16
HETATM   16  C   UNL     1     -42.645 -54.176  13.698  1.00  0.00     0.050 C 
BRANCH  16  17
HETATM   17  C   UNL     1     -43.715 -54.094  12.600  1.00  0.00     0.274 C 
BRANCH  17  18
HETATM   18  N   UNL     1     -45.021 -53.584  13.075  1.00  0.00     0.088 N 
HETATM   19  C   UNL     1     -44.914 -52.128  13.302  1.00  0.00     0.272 C 
HETATM   20  C   UNL     1     -46.270 -51.425  13.389  1.00  0.00     0.030 C 
HETATM   21  C   UNL     1     -46.891 -51.371  14.782  1.00  0.00     0.002 C 
HETATM   22  C   UNL     1     -46.724 -52.614  15.642  1.00  0.00     0.002 C 
HETATM   23  C   UNL     1     -46.828 -53.912  14.859  1.00  0.00     0.030 C 
HETATM   24  C   UNL     1     -45.494 -54.337  14.245  1.00  0.00     0.272 C 
ENDBRANCH  17  18
ENDBRANCH  16  17
ENDBRANCH  15  16
ENDBRANCH   4  15
TORSDOF 5
ENDMDL
MODEL 2
REMARK VINA RESULT:      -6.6      2.700      3.849
REMARK  5 active torsions:
REMARK  status: ('A' for Active; 'I' for Inactive)
REMARK    1  A    between atoms: C_4  and  N_5 
REMARK       I    between atoms: N_5  and  C_6 
REMARK       I    between atoms: C_6  and  N_8 
REMARK    2  A    between atoms: N_8  and  C_9 
REMARK    3  A    between atoms: C_9  and  C_10 
REMARK    4  A    between atoms: C_10  and  C_11 
REMARK    5  A    between atoms: C_11  and  N_12 
ROOT
HETATM    1  N   UNL     1     -41.800 -48.366   9.637  1.00  0.00    -0.293 N 
HETATM    2  C   UNL     1     -41.451 -48.970  10.878  1.00  0.00     0.321 C 
HETATM    3  O   UNL     1     -42.027 -48.728  11.923  1.00  0.00    -0.247 OA
HETATM    4  N   UNL     1     -40.409 -49.833  10.744  1.00  0.00    -0.343 N 
HETATM    5  H   UNL     1     -41.273 -48.610   8.815  1.00  0.00     0.172 HD
HETATM    6  H   UNL     1     -39.968 -50.022   9.857  1.00  0.00     0.164 HD
ENDROOT
BRANCH   1   7
HETATM    7  C   UNL     1     -42.844 -47.450   9.522  1.00  0.00     0.127 A 
HETATM    8  C   UNL     1     -44.110 -47.678   9.029  1.00  0.00     0.076 A 
HETATM    9  C   UNL     1     -44.793 -46.450   9.115  1.00  0.00     0.025 A 
HETATM   10  C   UNL     1     -46.190 -46.177   8.701  1.00  0.00     0.070 C 
HETATM   11  N   UNL     1     -44.016 -45.495   9.633  1.00  0.00    -0.302 N 
HETATM   12  N   UNL     1     -42.844 -46.117   9.874  1.00  0.00    -0.281 N 
ATOM     13  HN  UNL     1     -44.254 -44.518   9.806  1.00  0.00     0.186 HD
HETATM   14  C   UNL     1     -41.777 -45.333  10.449  1.00  0.00     0.179 C 
ENDBRANCH   1   7
BRANCH   4  15
HETATM   15  C   UNL     1     -39.950 -50.530  11.932  1.00  0.00     0.126 C 
BRANCH  15  16
HETATM   16  C   UNL     1     -40.697 -51.833  12.148  1.00  0.00     0.050 C 
BRANCH  16  17
HETATM   17  C   UNL     1     -41.138 -51.987  13.612  1.00  0.00     0.274 C 
BRANCH  17  18
HETATM   18  N   UNL     1     -42.580 -52.280  13.773  1.00  0.00     0.088 N 
HETATM   19  C   UNL     1     -43.102 -52.834  12.507  1.00  0.00     0.272 C 
HETATM   20  C   UNL     1     -44.444 -53.552  12.665  1.00  0.00     0.030 C 
HETATM   21  C   UNL     1     -45.680 -52.668  12.528  1.00  0.00     0.002 C 
HETATM   22  C   UNL     1     -45.586 -51.279  13.143  1.00  0.00     0.002 C 
HETATM   23  C   UNL     1     -44.822 -51.248  14.456  1.00  0.00     0.030 C 
HETATM   24  C   UNL     1     -43.314 -51.101  14.255  1.00  0.00     0.272 C 
ENDBRANCH  17  18
ENDBRANCH  16  17
ENDBRANCH  15  16
ENDBRANCH   4  15
TORSDOF 5
ENDMDL
MODEL 3
REMARK VINA RESULT:      -6.6      1.791      2.422
REMARK  5 active torsions:
REMARK  status: ('A' for Active; 'I' for Inactive)
REMARK    1  A    between atoms: C_4  and  N_5 
REMARK       I    between atoms: N_5  and  C_6 
REMARK       I    between atoms: C_6  and  N_8 
REMARK    2  A    between atoms: N_8  and  C_9 
REMARK    3  A    between atoms: C_9  and  C_10 
REMARK    4  A    between atoms: C_10  and  C_11 
REMARK    5  A    between atoms: C_11  and  N_12 
ROOT
HETATM    1  N   UNL     1     -41.014 -49.271  10.442  1.00  0.00    -0.293 N 
HETATM    2  C   UNL     1     -41.116 -49.985  11.670  1.00  0.00     0.321 C 
HETATM    3  O   UNL     1     -41.745 -49.577  12.629  1.00  0.00    -0.247 OA
HETATM    4  N   UNL     1     -40.427 -51.157  11.630  1.00  0.00    -0.343 N 
HETATM    5  H   UNL     1     -40.469 -49.668   9.695  1.00  0.00     0.172 HD
HETATM    6  H   UNL     1     -39.931 -51.471  10.810  1.00  0.00     0.164 HD
ENDROOT
BRANCH   1   7
HETATM    7  C   UNL     1     -41.642 -48.043  10.241  1.00  0.00     0.127 A 
HETATM    8  C   UNL     1     -42.818 -47.805   9.564  1.00  0.00     0.076 A 
HETATM    9  C   UNL     1     -43.034 -46.415   9.631  1.00  0.00     0.025 A 
HETATM   10  C   UNL     1     -44.168 -45.661   9.045  1.00  0.00     0.070 C 
HETATM   11  N   UNL     1     -42.060 -45.801  10.308  1.00  0.00    -0.302 N 
HETATM   12  N   UNL     1     -41.230 -46.801  10.671  1.00  0.00    -0.281 N 
ATOM     13  HN  UNL     1     -41.966 -44.805  10.506  1.00  0.00     0.186 HD
HETATM   14  C   UNL     1     -40.056 -46.450  11.434  1.00  0.00     0.179 C 
ENDBRANCH   1   7
BRANCH   4  15
HETATM   15  C   UNL     1     -40.450 -51.996  12.815  1.00  0.00     0.126 C 
BRANCH  15  16
HETATM   16  C   UNL     1     -41.081 -53.348  12.540  1.00  0.00     0.050 C 
BRANCH  16  17
HETATM   17  C   UNL     1     -42.217 -53.646  13.530  1.00  0.00     0.274 C 
BRANCH  17  18
HETATM   18  N   UNL     1     -43.390 -52.756  13.378  1.00  0.00     0.088 N 
HETATM   19  C   UNL     1     -43.755 -52.212  14.702  1.00  0.00     0.272 C 
HETATM   20  C   UNL     1     -44.664 -50.983  14.624  1.00  0.00     0.030 C 
HETATM   21  C   UNL     1     -46.160 -51.277  14.581  1.00  0.00     0.002 C 
HETATM   22  C   UNL     1     -46.587 -52.479  13.752  1.00  0.00     0.002 C 
HETATM   23  C   UNL     1     -45.783 -52.650  12.474  1.00  0.00     0.030 C 
HETATM   24  C   UNL     1     -44.494 -53.441  12.690  1.00  0.00     0.272 C 
ENDBRANCH  17  18
ENDBRANCH  16  17
ENDBRANCH  15  16
ENDBRANCH   4  15
TORSDOF 5
ENDMDL
MODEL 4
REMARK VINA RESULT:      -6.4      1.906      2.855
REMARK  5 active torsions:
REMARK  status: ('A' for Active; 'I' for Inactive)
REMARK    1  A    between atoms: C_4  and  N_5 
REMARK       I    between atoms: N_5  and  C_6 
REMARK       I    between atoms: C_6  and  N_8 
REMARK    2  A    between atoms: N_8  and  C_9 
REMARK    3  A    between atoms: C_9  and  C_10 
REMARK    4  A    between atoms: C_10  and  C_11 
REMARK    5  A    between atoms: C_11  and  N_12 
ROOT
HETATM    1  N   UNL     1     -41.257 -48.869  10.450  1.00  0.00    -0.293 N 
HETATM    2  C   UNL     1     -41.116 -49.739  11.569  1.00  0.00     0.321 C 
HETATM    3  O   UNL     1     -41.233 -49.368  12.722  1.00  0.00    -0.247 OA
HETATM    4  N   UNL     1     -40.834 -51.013  11.184  1.00  0.00    -0.343 N 
HETATM    5  H   UNL     1     -41.138 -49.246   9.525  1.00  0.00     0.172 HD
HETATM    6  H   UNL     1     -40.762 -51.287  10.217  1.00  0.00     0.164 HD
ENDROOT
BRANCH   1   7
HETATM    7  C   UNL     1     -41.553 -47.515  10.594  1.00  0.00     0.127 A 
HETATM    8  C   UNL     1     -40.670 -46.484  10.830  1.00  0.00     0.076 A 
HETATM    9  C   UNL     1     -41.445 -45.311  10.900  1.00  0.00     0.025 A 
HETATM   10  C   UNL     1     -40.955 -43.933  11.145  1.00  0.00     0.070 C 
HETATM   11  N   UNL     1     -42.743 -45.571  10.719  1.00  0.00    -0.302 N 
HETATM   12  N   UNL     1     -42.789 -46.907  10.534  1.00  0.00    -0.281 N 
ATOM     13  HN  UNL     1     -43.521 -44.912  10.721  1.00  0.00     0.186 HD
HETATM   14  C   UNL     1     -44.082 -47.505  10.306  1.00  0.00     0.179 C 
ENDBRANCH   1   7
BRANCH   4  15
HETATM   15  C   UNL     1     -40.670 -52.013  12.224  1.00  0.00     0.126 C 
BRANCH  15  16
HETATM   16  C   UNL     1     -41.968 -52.743  12.516  1.00  0.00     0.050 C 
BRANCH  16  17
HETATM   17  C   UNL     1     -42.393 -52.561  13.981  1.00  0.00     0.274 C 
BRANCH  17  18
HETATM   18  N   UNL     1     -43.645 -51.790  14.149  1.00  0.00     0.088 N 
HETATM   19  C   UNL     1     -44.135 -51.961  15.532  1.00  0.00     0.272 C 
HETATM   20  C   UNL     1     -45.164 -50.908  15.946  1.00  0.00     0.030 C 
HETATM   21  C   UNL     1     -46.616 -51.252  15.629  1.00  0.00     0.002 C 
HETATM   22  C   UNL     1     -46.869 -51.948  14.300  1.00  0.00     0.002 C 
HETATM   23  C   UNL     1     -45.987 -51.439  13.172  1.00  0.00     0.030 C 
HETATM   24  C   UNL     1     -44.633 -52.146  13.119  1.00  0.00     0.272 C 
ENDBRANCH  17  18
ENDBRANCH  16  17
ENDBRANCH  15  16
ENDBRANCH   4  15
TORSDOF 5
ENDMDL
MODEL 5
REMARK VINA RESULT:      -6.0      1.867      2.772
REMARK  5 active torsions:
REMARK  status: ('A' for Active; 'I' for Inactive)
REMARK    1  A    between atoms: C_4  and  N_5 
REMARK       I    between atoms: N_5  and  C_6 
REMARK       I    between atoms: C_6  and  N_8 
REMARK    2  A    between atoms: N_8  and  C_9 
REMARK    3  A    between atoms: C_9  and  C_10 
REMARK    4  A    between atoms: C_10  and  C_11 
REMARK    5  A    between atoms: C_11  and  N_12 
ROOT
HETATM    1  N   UNL     1     -40.225 -51.600  14.377  1.00  0.00    -0.293 N 
HETATM    2  C   UNL     1     -40.728 -52.932  14.401  1.00  0.00     0.321 C 
HETATM    3  O   UNL     1     -40.737 -53.659  13.425  1.00  0.00    -0.247 OA
HETATM    4  N   UNL     1     -41.190 -53.274  15.633  1.00  0.00    -0.343 N 
HETATM    5  H   UNL     1     -40.257 -51.055  15.222  1.00  0.00     0.172 HD
HETATM    6  H   UNL     1     -41.149 -52.650  16.424  1.00  0.00     0.164 HD
ENDROOT
BRANCH   1   7
HETATM    7  C   UNL     1     -39.692 -51.027  13.224  1.00  0.00     0.127 A 
HETATM    8  C   UNL     1     -38.364 -50.950  12.863  1.00  0.00     0.076 A 
HETATM    9  C   UNL     1     -38.332 -50.281  11.624  1.00  0.00     0.025 A 
HETATM   10  C   UNL     1     -37.130 -49.948  10.823  1.00  0.00     0.070 C 
HETATM   11  N   UNL     1     -39.560 -49.951  11.216  1.00  0.00    -0.302 N 
HETATM   12  N   UNL     1     -40.368 -50.411  12.193  1.00  0.00    -0.281 N 
ATOM     13  HN  UNL     1     -39.826 -49.463  10.360  1.00  0.00     0.186 HD
HETATM   14  C   UNL     1     -41.788 -50.203  12.039  1.00  0.00     0.179 C 
ENDBRANCH   1   7
BRANCH   4  15
HETATM   15  C   UNL     1     -41.727 -54.612  15.807  1.00  0.00     0.126 C 
BRANCH  15  16
HETATM   16  C   UNL     1     -43.243 -54.610  15.871  1.00  0.00     0.050 C 
BRANCH  16  17
HETATM   17  C   UNL     1     -43.859 -55.034  14.530  1.00  0.00     0.274 C 
BRANCH  17  18
HETATM   18  N   UNL     1     -45.054 -54.249  14.147  1.00  0.00     0.088 N 
HETATM   19  C   UNL     1     -44.666 -53.245  13.135  1.00  0.00     0.272 C 
HETATM   20  C   UNL     1     -45.855 -52.665  12.367  1.00  0.00     0.030 C 
HETATM   21  C   UNL     1     -46.511 -51.443  13.003  1.00  0.00     0.002 C 
HETATM   22  C   UNL     1     -46.635 -51.456  14.519  1.00  0.00     0.002 C 
HETATM   23  C   UNL     1     -46.964 -52.826  15.088  1.00  0.00     0.030 C 
HETATM   24  C   UNL     1     -45.719 -53.679  15.328  1.00  0.00     0.272 C 
ENDBRANCH  17  18
ENDBRANCH  16  17
ENDBRANCH  15  16
ENDBRANCH   4  15
TORSDOF 5
ENDMDL
MODEL 6
REMARK VINA RESULT:      -5.9      1.508      7.182
REMARK  5 active torsions:
REMARK  status: ('A' for Active; 'I' for Inactive)
REMARK    1  A    between atoms: C_4  and  N_5 
REMARK       I    between atoms: N_5  and  C_6 
REMARK       I    between atoms: C_6  and  N_8 
REMARK    2  A    between atoms: N_8  and  C_9 
REMARK    3  A    between atoms: C_9  and  C_10 
REMARK    4  A    between atoms: C_10  and  C_11 
REMARK    5  A    between atoms: C_11  and  N_12 
ROOT
HETATM    1  N   UNL     1     -44.318 -52.100  12.707  1.00  0.00    -0.293 N 
HETATM    2  C   UNL     1     -42.925 -52.186  12.987  1.00  0.00     0.321 C 
HETATM    3  O   UNL     1     -42.480 -52.425  14.094  1.00  0.00    -0.247 OA
HETATM    4  N   UNL     1     -42.173 -51.965  11.875  1.00  0.00    -0.343 N 
HETATM    5  H   UNL     1     -44.612 -51.890  11.768  1.00  0.00     0.172 HD
HETATM    6  H   UNL     1     -42.578 -51.787  10.969  1.00  0.00     0.164 HD
ENDROOT
BRANCH   1   7
HETATM    7  C   UNL     1     -45.288 -52.295  13.690  1.00  0.00     0.127 A 
HETATM    8  C   UNL     1     -45.955 -51.330  14.413  1.00  0.00     0.076 A 
HETATM    9  C   UNL     1     -46.824 -52.020  15.279  1.00  0.00     0.025 A 
HETATM   10  C   UNL     1     -47.756 -51.424  16.267  1.00  0.00     0.070 C 
HETATM   11  N   UNL     1     -46.723 -53.343  15.121  1.00  0.00    -0.302 N 
HETATM   12  N   UNL     1     -45.792 -53.489  14.156  1.00  0.00    -0.281 N 
ATOM     13  HN  UNL     1     -47.233 -54.074  15.617  1.00  0.00     0.186 HD
HETATM   14  C   UNL     1     -45.455 -54.834  13.753  1.00  0.00     0.179 C 
ENDBRANCH   1   7
BRANCH   4  15
HETATM   15  C   UNL     1     -40.729 -52.030  12.011  1.00  0.00     0.126 C 
BRANCH  15  16
HETATM   16  C   UNL     1     -40.112 -50.652  12.166  1.00  0.00     0.050 C 
BRANCH  16  17
HETATM   17  C   UNL     1     -40.466 -49.745  10.978  1.00  0.00     0.274 C 
BRANCH  17  18
HETATM   18  N   UNL     1     -41.015 -48.429  11.374  1.00  0.00     0.088 N 
HETATM   19  C   UNL     1     -42.028 -48.013  10.382  1.00  0.00     0.272 C 
HETATM   20  C   UNL     1     -42.948 -46.899  10.886  1.00  0.00     0.030 C 
HETATM   21  C   UNL     1     -42.451 -45.478  10.642  1.00  0.00     0.002 C 
HETATM   22  C   UNL     1     -40.958 -45.247  10.824  1.00  0.00     0.002 C 
HETATM   23  C   UNL     1     -40.360 -46.029  11.981  1.00  0.00     0.030 C 
HETATM   24  C   UNL     1     -39.944 -47.444  11.581  1.00  0.00     0.272 C 
ENDBRANCH  17  18
ENDBRANCH  16  17
ENDBRANCH  15  16
ENDBRANCH   4  15
TORSDOF 5
ENDMDL
MODEL 7
REMARK VINA RESULT:      -5.8      1.898      6.702
REMARK  5 active torsions:
REMARK  status: ('A' for Active; 'I' for Inactive)
REMARK    1  A    between atoms: C_4  and  N_5 
REMARK       I    between atoms: N_5  and  C_6 
REMARK       I    between atoms: C_6  and  N_8 
REMARK    2  A    between atoms: N_8  and  C_9 
REMARK    3  A    between atoms: C_9  and  C_10 
REMARK    4  A    between atoms: C_10  and  C_11 
REMARK    5  A    between atoms: C_11  and  N_12 
ROOT
HETATM    1  N   UNL     1     -41.225 -51.895  11.567  1.00  0.00    -0.293 N 
HETATM    2  C   UNL     1     -40.592 -50.777  12.182  1.00  0.00     0.321 C 
HETATM    3  O   UNL     1     -40.687 -50.526  13.369  1.00  0.00    -0.247 OA
HETATM    4  N   UNL     1     -39.886 -50.040  11.283  1.00  0.00    -0.343 N 
HETATM    5  H   UNL     1     -41.107 -52.034  10.577  1.00  0.00     0.172 HD
HETATM    6  H   UNL     1     -39.815 -50.290  10.309  1.00  0.00     0.164 HD
ENDROOT
BRANCH   1   7
HETATM    7  C   UNL     1     -42.000 -52.801  12.289  1.00  0.00     0.127 A 
HETATM    8  C   UNL     1     -43.375 -52.899  12.307  1.00  0.00     0.076 A 
HETATM    9  C   UNL     1     -43.680 -53.957  13.184  1.00  0.00     0.025 A 
HETATM   10  C   UNL     1     -45.030 -54.452  13.546  1.00  0.00     0.070 C 
HETATM   11  N   UNL     1     -42.573 -54.504  13.695  1.00  0.00    -0.302 N 
HETATM   12  N   UNL     1     -41.569 -53.794  13.141  1.00  0.00    -0.281 N 
ATOM     13  HN  UNL     1     -42.504 -55.281  14.352  1.00  0.00     0.186 HD
HETATM   14  C   UNL     1     -40.219 -54.154  13.502  1.00  0.00     0.179 C 
ENDBRANCH   1   7
BRANCH   4  15
HETATM   15  C   UNL     1     -39.180 -48.870  11.773  1.00  0.00     0.126 C 
BRANCH  15  16
HETATM   16  C   UNL     1     -39.830 -47.580  11.307  1.00  0.00     0.050 C 
BRANCH  16  17
HETATM   17  C   UNL     1     -40.971 -47.159  12.245  1.00  0.00     0.274 C 
BRANCH  17  18
HETATM   18  N   UNL     1     -42.213 -46.774  11.539  1.00  0.00     0.088 N 
HETATM   19  C   UNL     1     -42.820 -47.981  10.941  1.00  0.00     0.272 C 
HETATM   20  C   UNL     1     -44.287 -47.794  10.551  1.00  0.00     0.030 C 
HETATM   21  C   UNL     1     -44.527 -47.250   9.146  1.00  0.00     0.002 C 
HETATM   22  C   UNL     1     -43.565 -46.174   8.667  1.00  0.00     0.002 C 
HETATM   23  C   UNL     1     -43.158 -45.196   9.756  1.00  0.00     0.030 C 
HETATM   24  C   UNL     1     -41.966 -45.691  10.575  1.00  0.00     0.272 C 
ENDBRANCH  17  18
ENDBRANCH  16  17
ENDBRANCH  15  16
ENDBRANCH   4  15
TORSDOF 5
ENDMDL
MODEL 8
REMARK VINA RESULT:      -5.7      1.921      7.575
REMARK  5 active torsions:
REMARK  status: ('A' for Active; 'I' for Inactive)
REMARK    1  A    between atoms: C_4  and  N_5 
REMARK       I    between atoms: N_5  and  C_6 
REMARK       I    between atoms: C_6  and  N_8 
REMARK    2  A    between atoms: N_8  and  C_9 
REMARK    3  A    between atoms: C_9  and  C_10 
REMARK    4  A    between atoms: C_10  and  C_11 
REMARK    5  A    between atoms: C_11  and  N_12 
ROOT
HETATM    1  N   UNL     1     -42.119 -52.461  11.680  1.00  0.00    -0.293 N 
HETATM    2  C   UNL     1     -41.635 -51.181  12.072  1.00  0.00     0.321 C 
HETATM    3  O   UNL     1     -41.821 -50.708  13.178  1.00  0.00    -0.247 OA
HETATM    4  N   UNL     1     -40.956 -50.570  11.065  1.00  0.00    -0.343 N 
HETATM    5  H   UNL     1     -41.934 -52.784  10.745  1.00  0.00     0.172 HD
HETATM    6  H   UNL     1     -40.806 -51.001  10.167  1.00  0.00     0.164 HD
ENDROOT
BRANCH   1   7
HETATM    7  C   UNL     1     -42.842 -53.281  12.546  1.00  0.00     0.127 A 
HETATM    8  C   UNL     1     -44.198 -53.523  12.534  1.00  0.00     0.076 A 
HETATM    9  C   UNL     1     -44.448 -54.408  13.601  1.00  0.00     0.025 A 
HETATM   10  C   UNL     1     -45.760 -54.964  14.008  1.00  0.00     0.070 C 
HETATM   11  N   UNL     1     -43.323 -54.715  14.254  1.00  0.00    -0.302 N 
HETATM   12  N   UNL     1     -42.364 -54.027  13.601  1.00  0.00    -0.281 N 
ATOM     13  HN  UNL     1     -43.215 -55.329  15.061  1.00  0.00     0.186 HD
HETATM   14  C   UNL     1     -41.008 -54.156  14.079  1.00  0.00     0.179 C 
ENDBRANCH   1   7
BRANCH   4  15
HETATM   15  C   UNL     1     -40.396 -49.256  11.327  1.00  0.00     0.126 C 
BRANCH  15  16
HETATM   16  C   UNL     1     -41.249 -48.148  10.736  1.00  0.00     0.050 C 
BRANCH  16  17
HETATM   17  C   UNL     1     -42.044 -47.414  11.826  1.00  0.00     0.274 C 
BRANCH  17  18
HETATM   18  N   UNL     1     -41.956 -45.939  11.737  1.00  0.00     0.088 N 
HETATM   19  C   UNL     1     -40.555 -45.556  11.468  1.00  0.00     0.272 C 
HETATM   20  C   UNL     1     -40.406 -44.124  10.950  1.00  0.00     0.030 C 
HETATM   21  C   UNL     1     -40.257 -43.051  12.025  1.00  0.00     0.002 C 
HETATM   22  C   UNL     1     -41.109 -43.226  13.273  1.00  0.00     0.002 C 
HETATM   23  C   UNL     1     -42.498 -43.771  12.988  1.00  0.00     0.030 C 
HETATM   24  C   UNL     1     -42.531 -45.298  12.929  1.00  0.00     0.272 C 
ENDBRANCH  17  18
ENDBRANCH  16  17
ENDBRANCH  15  16
ENDBRANCH   4  15
TORSDOF 5
ENDMDL
MODEL 9
REMARK VINA RESULT:      -5.7      1.757      3.556
REMARK  5 active torsions:
REMARK  status: ('A' for Active; 'I' for Inactive)
REMARK    1  A    between atoms: C_4  and  N_5 
REMARK       I    between atoms: N_5  and  C_6 
REMARK       I    between atoms: C_6  and  N_8 
REMARK    2  A    between atoms: N_8  and  C_9 
REMARK    3  A    between atoms: C_9  and  C_10 
REMARK    4  A    between atoms: C_10  and  C_11 
REMARK    5  A    between atoms: C_11  and  N_12 
ROOT
HETATM    1  N   UNL     1     -42.691 -49.142  11.401  1.00  0.00    -0.293 N 
HETATM    2  C   UNL     1     -43.152 -49.529  12.692  1.00  0.00     0.321 C 
HETATM    3  O   UNL     1     -42.674 -49.101  13.726  1.00  0.00    -0.247 OA
HETATM    4  N   UNL     1     -44.172 -50.424  12.615  1.00  0.00    -0.343 N 
HETATM    5  H   UNL     1     -43.130 -49.544  10.589  1.00  0.00     0.172 HD
HETATM    6  H   UNL     1     -44.555 -50.742  11.738  1.00  0.00     0.164 HD
ENDROOT
BRANCH   1   7
HETATM    7  C   UNL     1     -41.654 -48.228  11.224  1.00  0.00     0.127 A 
HETATM    8  C   UNL     1     -41.760 -46.892  10.900  1.00  0.00     0.076 A 
HETATM    9  C   UNL     1     -40.443 -46.400  10.830  1.00  0.00     0.025 A 
HETATM   10  C   UNL     1     -40.026 -45.014  10.508  1.00  0.00     0.070 C 
HETATM   11  N   UNL     1     -39.549 -47.357  11.095  1.00  0.00    -0.302 N 
HETATM   12  N   UNL     1     -40.299 -48.453  11.331  1.00  0.00    -0.281 N 
ATOM     13  HN  UNL     1     -38.532 -47.277  11.113  1.00  0.00     0.186 HD
HETATM   14  C   UNL     1     -39.608 -49.678  11.654  1.00  0.00     0.179 C 
ENDBRANCH   1   7
BRANCH   4  15
HETATM   15  C   UNL     1     -44.748 -50.901  13.860  1.00  0.00     0.126 C 
BRANCH  15  16
HETATM   16  C   UNL     1     -45.292 -52.312  13.728  1.00  0.00     0.050 C 
BRANCH  16  17
HETATM   17  C   UNL     1     -44.523 -53.110  12.663  1.00  0.00     0.274 C 
BRANCH  17  18
HETATM   18  N   UNL     1     -43.454 -53.970  13.218  1.00  0.00     0.088 N 
HETATM   19  C   UNL     1     -43.709 -54.187  14.657  1.00  0.00     0.272 C 
HETATM   20  C   UNL     1     -42.932 -55.368  15.240  1.00  0.00     0.030 C 
HETATM   21  C   UNL     1     -41.538 -55.040  15.766  1.00  0.00     0.002 C 
HETATM   22  C   UNL     1     -40.728 -54.044  14.950  1.00  0.00     0.002 C 
HETATM   23  C   UNL     1     -40.913 -54.195  13.450  1.00  0.00     0.030 C 
HETATM   24  C   UNL     1     -42.122 -53.421  12.925  1.00  0.00     0.272 C 
ENDBRANCH  17  18
ENDBRANCH  16  17
ENDBRANCH  15  16
ENDBRANCH   4  15
TORSDOF 5
ENDMDL
