MODEL 1
REMARK VINA RESULT:      -7.1      0.000      0.000
REMARK  6 active torsions:
REMARK  status: ('A' for Active; 'I' for Inactive)
REMARK    1  A    between atoms: N_1  and  C_3 
REMARK    2  A    between atoms: N_4  and  C_19 
REMARK    3  A    between atoms: C_8  and  C_16 
REMARK       I    between atoms: C_16  and  N_23 
REMARK    4  A    between atoms: C_18  and  C_19 
REMARK    5  A    between atoms: C_18  and  C_26 
REMARK    6  A    between atoms: C_26  and  O_29 
ROOT
HETATM    1  C   UNL     1     -41.785 -50.200  12.191  1.00  0.00     0.122 A 
HETATM    2  C   UNL     1     -41.243 -49.009  11.648  1.00  0.00     0.136 A 
HETATM    3  N   UNL     1     -41.702 -52.293  12.842  1.00  0.00    -0.326 N 
HETATM    4  C   UNL     1     -40.915 -51.263  12.395  1.00  0.00     0.140 A 
HETATM    5  N   UNL     1     -43.073 -50.565  12.543  1.00  0.00    -0.346 N 
ATOM      6  HN  UNL     1     -43.910 -49.984  12.515  1.00  0.00     0.167 HD
HETATM    7  C   UNL     1     -42.985 -51.821  12.921  1.00  0.00     0.185 A 
HETATM    8  N   UNL     1     -39.911 -49.022  11.357  1.00  0.00    -0.337 N 
ATOM      9  HN  UNL     1     -39.472 -48.208  10.926  1.00  0.00     0.168 HD
HETATM   10  N   UNL     1     -39.594 -51.290  12.158  1.00  0.00    -0.336 N 
ATOM     11  HN  UNL     1     -38.989 -52.090  12.342  1.00  0.00     0.168 HD
HETATM   12  C   UNL     1     -39.177 -50.118  11.645  1.00  0.00     0.183 A 
ENDROOT
BRANCH   2  13
HETATM   13  N   UNL     1     -41.981 -47.890  11.345  1.00  0.00    -0.351 N 
HETATM   14  C   UNL     1     -41.953 -47.243  10.032  1.00  0.00     0.182 C 
HETATM   15  C   UNL     1     -41.824 -45.752  10.355  1.00  0.00     0.023 C 
HETATM   16  C   UNL     1     -40.363 -45.270  10.411  1.00  0.00     0.007 C 
HETATM   17  C   UNL     1     -42.384 -45.584  11.781  1.00  0.00     0.010 C 
HETATM   18  C   UNL     1     -40.032 -45.095  11.885  1.00  0.00     0.001 C 
HETATM   19  C   UNL     1     -41.364 -44.698  12.500  1.00  0.00     0.007 C 
HETATM   20  C   UNL     1     -42.474 -46.997  12.384  1.00  0.00     0.130 C 
BRANCH  14  21
HETATM   21  C   UNL     1     -43.260 -47.571   9.268  1.00  0.00     0.238 C 
HETATM   22  O   UNL     1     -44.378 -47.611   9.768  1.00  0.00    -0.271 OA
HETATM   23  N   UNL     1     -43.095 -47.778   7.923  1.00  0.00    -0.368 N 
HETATM   24  H   UNL     1     -42.166 -48.012   7.592  1.00  0.00     0.159 HD
HETATM   25  H   UNL     1     -43.895 -48.119   7.411  1.00  0.00     0.159 HD
ENDBRANCH  14  21
ENDBRANCH   2  13
BRANCH   3  26
HETATM   26  C   UNL     1     -41.303 -53.689  12.978  1.00  0.00     0.147 C 
BRANCH  26  27
HETATM   27  C   UNL     1     -40.854 -54.129  14.368  1.00  0.00     0.040 C 
HETATM   28  C   UNL     1     -41.896 -54.878  15.221  1.00  0.00     0.183 C 
HETATM   29  O   UNL     1     -41.786 -53.902  16.284  1.00  0.00    -0.389 OA
HETATM   30  C   UNL     1     -41.040 -53.013  15.422  1.00  0.00     0.183 C 
BRANCH  27  31
HETATM   31  C   UNL     1     -39.428 -54.661  14.450  1.00  0.00     0.179 C 
BRANCH  31  32
HETATM   32  O   UNL     1     -38.652 -54.187  13.362  1.00  0.00    -0.400 OA
HETATM   33  H   UNL     1     -38.915 -53.270  13.168  1.00  0.00     0.209 HD
ENDBRANCH  31  32
ENDBRANCH  27  31
ENDBRANCH  26  27
ENDBRANCH   3  26
TORSDOF 6
ENDMDL
MODEL 2
REMARK VINA RESULT:      -6.8      2.709      4.408
REMARK  6 active torsions:
REMARK  status: ('A' for Active; 'I' for Inactive)
REMARK    1  A    between atoms: N_1  and  C_3 
REMARK    2  A    between atoms: N_4  and  C_19 
REMARK    3  A    between atoms: C_8  and  C_16 
REMARK       I    between atoms: C_16  and  N_23 
REMARK    4  A    between atoms: C_18  and  C_19 
REMARK    5  A    between atoms: C_18  and  C_26 
REMARK    6  A    between atoms: C_26  and  O_29 
ROOT
HETATM    1  C   UNL     1     -42.596 -50.972  12.995  1.00  0.00     0.122 A 
HETATM    2  C   UNL     1     -41.282 -50.848  12.478  1.00  0.00     0.136 A 
HETATM    3  N   UNL     1     -44.506 -52.000  13.313  1.00  0.00    -0.326 N 
HETATM    4  C   UNL     1     -43.251 -52.179  12.793  1.00  0.00     0.140 A 
HETATM    5  N   UNL     1     -43.425 -50.085  13.659  1.00  0.00    -0.346 N 
ATOM      6  HN  UNL     1     -43.205 -49.135  13.954  1.00  0.00     0.167 HD
HETATM    7  C   UNL     1     -44.558 -50.731  13.826  1.00  0.00     0.185 A 
HETATM    8  N   UNL     1     -40.785 -51.928  11.809  1.00  0.00    -0.337 N 
ATOM      9  HN  UNL     1     -39.862 -51.885  11.378  1.00  0.00     0.168 HD
HETATM   10  N   UNL     1     -42.771 -53.271  12.177  1.00  0.00    -0.336 N 
ATOM     11  HN  UNL     1     -43.283 -54.147  12.069  1.00  0.00     0.168 HD
HETATM   12  C   UNL     1     -41.524 -53.055  11.722  1.00  0.00     0.183 A 
ENDROOT
BRANCH   2  13
HETATM   13  N   UNL     1     -40.524 -49.704  12.554  1.00  0.00    -0.351 N 
HETATM   14  C   UNL     1     -39.937 -49.053  11.381  1.00  0.00     0.182 C 
HETATM   15  C   UNL     1     -38.499 -48.745  11.809  1.00  0.00     0.023 C 
HETATM   16  C   UNL     1     -37.507 -49.864  11.446  1.00  0.00     0.007 C 
HETATM   17  C   UNL     1     -38.527 -48.681  13.349  1.00  0.00     0.010 C 
HETATM   18  C   UNL     1     -37.195 -50.590  12.746  1.00  0.00     0.001 C 
HETATM   19  C   UNL     1     -37.312 -49.498  13.796  1.00  0.00     0.007 C 
HETATM   20  C   UNL     1     -39.861 -49.310  13.788  1.00  0.00     0.130 C 
BRANCH  14  21
HETATM   21  C   UNL     1     -40.741 -47.772  11.047  1.00  0.00     0.238 C 
HETATM   22  O   UNL     1     -41.957 -47.656  11.149  1.00  0.00    -0.271 OA
HETATM   23  N   UNL     1     -39.973 -46.706  10.655  1.00  0.00    -0.368 N 
HETATM   24  H   UNL     1     -39.037 -46.898  10.317  1.00  0.00     0.159 HD
HETATM   25  H   UNL     1     -40.462 -45.895  10.306  1.00  0.00     0.159 HD
ENDBRANCH  14  21
ENDBRANCH   2  13
BRANCH   3  26
HETATM   26  C   UNL     1     -45.648 -52.892  13.142  1.00  0.00     0.147 C 
BRANCH  26  27
HETATM   27  C   UNL     1     -45.797 -54.001  14.178  1.00  0.00     0.040 C 
HETATM   28  C   UNL     1     -44.647 -54.153  15.192  1.00  0.00     0.183 C 
HETATM   29  O   UNL     1     -44.436 -55.532  14.805  1.00  0.00    -0.389 OA
HETATM   30  C   UNL     1     -45.291 -55.363  13.652  1.00  0.00     0.183 C 
BRANCH  27  31
HETATM   31  C   UNL     1     -47.202 -54.173  14.744  1.00  0.00     0.179 C 
BRANCH  31  32
HETATM   32  O   UNL     1     -47.582 -55.539  14.738  1.00  0.00    -0.400 OA
HETATM   33  H   UNL     1     -48.109 -55.719  15.537  1.00  0.00     0.209 HD
ENDBRANCH  31  32
ENDBRANCH  27  31
ENDBRANCH  26  27
ENDBRANCH   3  26
TORSDOF 6
ENDMDL
MODEL 3
REMARK VINA RESULT:      -6.8      3.733      6.795
REMARK  6 active torsions:
REMARK  status: ('A' for Active; 'I' for Inactive)
REMARK    1  A    between atoms: N_1  and  C_3 
REMARK    2  A    between atoms: N_4  and  C_19 
REMARK    3  A    between atoms: C_8  and  C_16 
REMARK       I    between atoms: C_16  and  N_23 
REMARK    4  A    between atoms: C_18  and  C_19 
REMARK    5  A    between atoms: C_18  and  C_26 
REMARK    6  A    between atoms: C_26  and  O_29 
ROOT
HETATM    1  C   UNL     1     -42.339 -51.777  13.781  1.00  0.00     0.122 A 
HETATM    2  C   UNL     1     -43.351 -51.648  14.764  1.00  0.00     0.136 A 
HETATM    3  N   UNL     1     -40.686 -51.048  12.538  1.00  0.00    -0.326 N 
HETATM    4  C   UNL     1     -41.502 -50.687  13.578  1.00  0.00     0.140 A 
HETATM    5  N   UNL     1     -42.013 -52.796  12.904  1.00  0.00    -0.346 N 
ATOM      6  HN  UNL     1     -42.445 -53.718  12.838  1.00  0.00     0.167 HD
HETATM    7  C   UNL     1     -41.027 -52.323  12.175  1.00  0.00     0.185 A 
HETATM    8  N   UNL     1     -43.423 -50.451  15.413  1.00  0.00    -0.337 N 
ATOM      9  HN  UNL     1     -44.156 -50.283  16.101  1.00  0.00     0.168 HD
HETATM   10  N   UNL     1     -41.523 -49.514  14.230  1.00  0.00    -0.336 N 
ATOM     11  HN  UNL     1     -40.874 -48.746  14.061  1.00  0.00     0.168 HD
HETATM   12  C   UNL     1     -42.515 -49.489  15.138  1.00  0.00     0.183 A 
ENDROOT
BRANCH   2  13
HETATM   13  N   UNL     1     -44.284 -52.617  15.047  1.00  0.00    -0.351 N 
HETATM   14  C   UNL     1     -45.470 -52.853  14.222  1.00  0.00     0.182 C 
HETATM   15  C   UNL     1     -46.609 -52.982  15.237  1.00  0.00     0.023 C 
HETATM   16  C   UNL     1     -47.313 -51.645  15.530  1.00  0.00     0.007 C 
HETATM   17  C   UNL     1     -45.942 -53.413  16.559  1.00  0.00     0.010 C 
HETATM   18  C   UNL     1     -46.826 -51.203  16.901  1.00  0.00     0.001 C 
HETATM   19  C   UNL     1     -46.574 -52.515  17.625  1.00  0.00     0.007 C 
HETATM   20  C   UNL     1     -44.433 -53.163  16.388  1.00  0.00     0.130 C 
BRANCH  14  21
HETATM   21  C   UNL     1     -45.271 -54.144  13.389  1.00  0.00     0.238 C 
HETATM   22  O   UNL     1     -44.514 -54.256  12.432  1.00  0.00    -0.271 OA
HETATM   23  N   UNL     1     -45.989 -55.223  13.835  1.00  0.00    -0.368 N 
HETATM   24  H   UNL     1     -46.791 -55.044  14.429  1.00  0.00     0.159 HD
HETATM   25  H   UNL     1     -45.989 -56.045  13.251  1.00  0.00     0.159 HD
ENDBRANCH  14  21
ENDBRANCH   2  13
BRANCH   3  26
HETATM   26  C   UNL     1     -39.791 -50.166  11.796  1.00  0.00     0.147 C 
BRANCH  26  27
HETATM   27  C   UNL     1     -38.359 -50.073  12.310  1.00  0.00     0.040 C 
HETATM   28  C   UNL     1     -37.259 -50.625  11.382  1.00  0.00     0.183 C 
HETATM   29  O   UNL     1     -36.801 -51.541  12.405  1.00  0.00    -0.389 OA
HETATM   30  C   UNL     1     -37.979 -51.278  13.201  1.00  0.00     0.183 C 
BRANCH  27  31
HETATM   31  C   UNL     1     -38.016 -48.781  13.043  1.00  0.00     0.179 C 
BRANCH  31  32
HETATM   32  O   UNL     1     -38.739 -48.687  14.260  1.00  0.00    -0.400 OA
HETATM   33  H   UNL     1     -39.001 -49.584  14.535  1.00  0.00     0.209 HD
ENDBRANCH  31  32
ENDBRANCH  27  31
ENDBRANCH  26  27
ENDBRANCH   3  26
TORSDOF 6
ENDMDL
MODEL 4
REMARK VINA RESULT:      -6.7      2.060      7.112
REMARK  6 active torsions:
REMARK  status: ('A' for Active; 'I' for Inactive)
REMARK    1  A    between atoms: N_1  and  C_3 
REMARK    2  A    between atoms: N_4  and  C_19 
REMARK    3  A    between atoms: C_8  and  C_16 
REMARK       I    between atoms: C_16  and  N_23 
REMARK    4  A    between atoms: C_18  and  C_19 
REMARK    5  A    between atoms: C_18  and  C_26 
REMARK    6  A    between atoms: C_26  and  O_29 
ROOT
HETATM    1  C   UNL     1     -41.774 -49.004  11.875  1.00  0.00     0.122 A 
HETATM    2  C   UNL     1     -40.868 -49.884  12.518  1.00  0.00     0.136 A 
HETATM    3  N   UNL     1     -42.315 -47.209  10.738  1.00  0.00    -0.326 N 
HETATM    4  C   UNL     1     -41.236 -47.927  11.184  1.00  0.00     0.140 A 
HETATM    5  N   UNL     1     -43.156 -48.963  11.819  1.00  0.00    -0.346 N 
ATOM      6  HN  UNL     1     -43.811 -49.633  12.220  1.00  0.00     0.167 HD
HETATM    7  C   UNL     1     -43.442 -47.876  11.138  1.00  0.00     0.185 A 
HETATM    8  N   UNL     1     -39.543 -49.580  12.413  1.00  0.00    -0.337 N 
ATOM      9  HN  UNL     1     -38.846 -50.152  12.889  1.00  0.00     0.168 HD
HETATM   10  N   UNL     1     -39.936 -47.627  11.029  1.00  0.00    -0.336 N 
ATOM     11  HN  UNL     1     -39.585 -46.833  10.494  1.00  0.00     0.168 HD
HETATM   12  C   UNL     1     -39.161 -48.517  11.674  1.00  0.00     0.183 A 
ENDROOT
BRANCH   2  13
HETATM   13  N   UNL     1     -41.246 -50.965  13.279  1.00  0.00    -0.351 N 
HETATM   14  C   UNL     1     -41.732 -52.220  12.701  1.00  0.00     0.182 C 
HETATM   15  C   UNL     1     -42.965 -52.562  13.542  1.00  0.00     0.023 C 
HETATM   16  C   UNL     1     -44.273 -52.006  12.952  1.00  0.00     0.007 C 
HETATM   17  C   UNL     1     -42.763 -51.841  14.891  1.00  0.00     0.010 C 
HETATM   18  C   UNL     1     -44.651 -50.811  13.815  1.00  0.00     0.001 C 
HETATM   19  C   UNL     1     -44.112 -51.182  15.186  1.00  0.00     0.007 C 
HETATM   20  C   UNL     1     -41.635 -50.818  14.673  1.00  0.00     0.130 C 
BRANCH  14  21
HETATM   21  C   UNL     1     -40.626 -53.299  12.807  1.00  0.00     0.238 C 
HETATM   22  O   UNL     1     -39.520 -53.128  13.307  1.00  0.00    -0.271 OA
HETATM   23  N   UNL     1     -40.988 -54.531  12.328  1.00  0.00    -0.368 N 
HETATM   24  H   UNL     1     -41.771 -54.577  11.687  1.00  0.00     0.159 HD
HETATM   25  H   UNL     1     -40.260 -55.227  12.259  1.00  0.00     0.159 HD
ENDBRANCH  14  21
ENDBRANCH   2  13
BRANCH   3  26
HETATM   26  C   UNL     1     -42.283 -45.870  10.159  1.00  0.00     0.147 C 
BRANCH  26  27
HETATM   27  C   UNL     1     -41.788 -44.754  11.073  1.00  0.00     0.040 C 
HETATM   28  C   UNL     1     -42.178 -44.860  12.560  1.00  0.00     0.183 C 
HETATM   29  O   UNL     1     -42.819 -43.563  12.524  1.00  0.00    -0.389 OA
HETATM   30  C   UNL     1     -42.743 -43.539  11.081  1.00  0.00     0.183 C 
BRANCH  27  31
HETATM   31  C   UNL     1     -40.368 -44.273  10.796  1.00  0.00     0.179 C 
BRANCH  31  32
HETATM   32  O   UNL     1     -39.853 -44.877   9.621  1.00  0.00    -0.400 OA
HETATM   33  H   UNL     1     -38.892 -44.723   9.588  1.00  0.00     0.209 HD
ENDBRANCH  31  32
ENDBRANCH  27  31
ENDBRANCH  26  27
ENDBRANCH   3  26
TORSDOF 6
ENDMDL
MODEL 5
REMARK VINA RESULT:      -6.7      2.972      4.856
REMARK  6 active torsions:
REMARK  status: ('A' for Active; 'I' for Inactive)
REMARK    1  A    between atoms: N_1  and  C_3 
REMARK    2  A    between atoms: N_4  and  C_19 
REMARK    3  A    between atoms: C_8  and  C_16 
REMARK       I    between atoms: C_16  and  N_23 
REMARK    4  A    between atoms: C_18  and  C_19 
REMARK    5  A    between atoms: C_18  and  C_26 
REMARK    6  A    between atoms: C_26  and  O_29 
ROOT
HETATM    1  C   UNL     1     -42.180 -51.395  12.612  1.00  0.00     0.122 A 
HETATM    2  C   UNL     1     -40.828 -51.572  12.225  1.00  0.00     0.136 A 
HETATM    3  N   UNL     1     -44.192 -52.089  13.140  1.00  0.00    -0.326 N 
HETATM    4  C   UNL     1     -42.924 -52.538  12.872  1.00  0.00     0.140 A 
HETATM    5  N   UNL     1     -42.970 -50.269  12.755  1.00  0.00    -0.346 N 
ATOM      6  HN  UNL     1     -42.687 -49.296  12.644  1.00  0.00     0.167 HD
HETATM    7  C   UNL     1     -44.165 -50.722  13.064  1.00  0.00     0.185 A 
HETATM    8  N   UNL     1     -40.385 -52.858  12.126  1.00  0.00    -0.337 N 
ATOM      9  HN  UNL     1     -39.434 -53.051  11.812  1.00  0.00     0.168 HD
HETATM   10  N   UNL     1     -42.503 -53.812  12.824  1.00  0.00    -0.336 N 
ATOM     11  HN  UNL     1     -43.083 -54.622  13.043  1.00  0.00     0.168 HD
HETATM   12  C   UNL     1     -41.214 -53.875  12.448  1.00  0.00     0.183 A 
ENDROOT
BRANCH   2  13
HETATM   13  N   UNL     1     -39.977 -50.546  11.888  1.00  0.00    -0.351 N 
HETATM   14  C   UNL     1     -38.744 -50.256  12.621  1.00  0.00     0.182 C 
HETATM   15  C   UNL     1     -38.770 -48.736  12.805  1.00  0.00     0.023 C 
HETATM   16  C   UNL     1     -39.431 -48.298  14.124  1.00  0.00     0.007 C 
HETATM   17  C   UNL     1     -39.670 -48.195  11.675  1.00  0.00     0.010 C 
HETATM   18  C   UNL     1     -40.805 -47.763  13.751  1.00  0.00     0.001 C 
HETATM   19  C   UNL     1     -40.592 -47.185  12.361  1.00  0.00     0.007 C 
HETATM   20  C   UNL     1     -40.431 -49.405  11.106  1.00  0.00     0.130 C 
BRANCH  14  21
HETATM   21  C   UNL     1     -37.526 -50.730  11.789  1.00  0.00     0.238 C 
HETATM   22  O   UNL     1     -36.798 -51.673  12.078  1.00  0.00    -0.271 OA
HETATM   23  N   UNL     1     -37.326 -50.029  10.627  1.00  0.00    -0.368 N 
HETATM   24  H   UNL     1     -37.748 -49.111  10.551  1.00  0.00     0.159 HD
HETATM   25  H   UNL     1     -36.474 -50.219  10.121  1.00  0.00     0.159 HD
ENDBRANCH  14  21
ENDBRANCH   2  13
BRANCH   3  26
HETATM   26  C   UNL     1     -45.394 -52.909  13.247  1.00  0.00     0.147 C 
BRANCH  26  27
HETATM   27  C   UNL     1     -45.983 -53.061  14.645  1.00  0.00     0.040 C 
HETATM   28  C   UNL     1     -45.004 -53.469  15.762  1.00  0.00     0.183 C 
HETATM   29  O   UNL     1     -45.798 -54.635  16.086  1.00  0.00    -0.389 OA
HETATM   30  C   UNL     1     -46.576 -54.469  14.879  1.00  0.00     0.183 C 
BRANCH  27  31
HETATM   31  C   UNL     1     -47.020 -52.012  15.028  1.00  0.00     0.179 C 
BRANCH  31  32
HETATM   32  O   UNL     1     -47.251 -52.019  16.427  1.00  0.00    -0.400 OA
HETATM   33  H   UNL     1     -48.189 -51.818  16.589  1.00  0.00     0.209 HD
ENDBRANCH  31  32
ENDBRANCH  27  31
ENDBRANCH  26  27
ENDBRANCH   3  26
TORSDOF 6
ENDMDL
MODEL 6
REMARK VINA RESULT:      -6.7      1.962      7.458
REMARK  6 active torsions:
REMARK  status: ('A' for Active; 'I' for Inactive)
REMARK    1  A    between atoms: N_1  and  C_3 
REMARK    2  A    between atoms: N_4  and  C_19 
REMARK    3  A    between atoms: C_8  and  C_16 
REMARK       I    between atoms: C_16  and  N_23 
REMARK    4  A    between atoms: C_18  and  C_19 
REMARK    5  A    between atoms: C_18  and  C_26 
REMARK    6  A    between atoms: C_26  and  O_29 
ROOT
HETATM    1  C   UNL     1     -41.953 -49.982  12.273  1.00  0.00     0.122 A 
HETATM    2  C   UNL     1     -40.858 -50.833  12.564  1.00  0.00     0.136 A 
HETATM    3  N   UNL     1     -42.923 -48.270  11.305  1.00  0.00    -0.326 N 
HETATM    4  C   UNL     1     -41.751 -48.980  11.332  1.00  0.00     0.140 A 
HETATM    5  N   UNL     1     -43.237 -49.905  12.782  1.00  0.00    -0.346 N 
ATOM      6  HN  UNL     1     -43.667 -50.520  13.472  1.00  0.00     0.167 HD
HETATM    7  C   UNL     1     -43.784 -48.868  12.186  1.00  0.00     0.185 A 
HETATM    8  N   UNL     1     -39.693 -50.578  11.901  1.00  0.00    -0.337 N 
ATOM      9  HN  UNL     1     -38.859 -51.130  12.099  1.00  0.00     0.168 HD
HETATM   10  N   UNL     1     -40.631 -48.733  10.635  1.00  0.00    -0.336 N 
ATOM     11  HN  UNL     1     -40.534 -47.996   9.937  1.00  0.00     0.168 HD
HETATM   12  C   UNL     1     -39.653 -49.590  10.982  1.00  0.00     0.183 A 
ENDROOT
BRANCH   2  13
HETATM   13  N   UNL     1     -40.885 -51.837  13.502  1.00  0.00    -0.351 N 
HETATM   14  C   UNL     1     -40.702 -53.251  13.167  1.00  0.00     0.182 C 
HETATM   15  C   UNL     1     -41.812 -53.963  13.946  1.00  0.00     0.023 C 
HETATM   16  C   UNL     1     -43.108 -54.134  13.132  1.00  0.00     0.007 C 
HETATM   17  C   UNL     1     -42.165 -53.026  15.119  1.00  0.00     0.010 C 
HETATM   18  C   UNL     1     -44.088 -53.107  13.677  1.00  0.00     0.001 C 
HETATM   19  C   UNL     1     -43.695 -52.986  15.140  1.00  0.00     0.007 C 
HETATM   20  C   UNL     1     -41.539 -51.660  14.790  1.00  0.00     0.130 C 
BRANCH  14  21
HETATM   21  C   UNL     1     -39.288 -53.706  13.605  1.00  0.00     0.238 C 
HETATM   22  O   UNL     1     -38.361 -52.955  13.886  1.00  0.00    -0.271 OA
HETATM   23  N   UNL     1     -39.137 -55.064  13.712  1.00  0.00    -0.368 N 
HETATM   24  H   UNL     1     -39.800 -55.653  13.222  1.00  0.00     0.159 HD
HETATM   25  H   UNL     1     -38.201 -55.409  13.869  1.00  0.00     0.159 HD
ENDBRANCH  14  21
ENDBRANCH   2  13
BRANCH   3  26
HETATM   26  C   UNL     1     -43.139 -46.984  10.651  1.00  0.00     0.147 C 
BRANCH  26  27
HETATM   27  C   UNL     1     -43.931 -47.015   9.348  1.00  0.00     0.040 C 
HETATM   28  C   UNL     1     -44.613 -45.700   8.927  1.00  0.00     0.183 C 
HETATM   29  O   UNL     1     -45.911 -46.339   8.889  1.00  0.00    -0.389 OA
HETATM   30  C   UNL     1     -45.381 -47.506   9.559  1.00  0.00     0.183 C 
BRANCH  27  31
HETATM   31  C   UNL     1     -43.290 -47.817   8.221  1.00  0.00     0.179 C 
BRANCH  31  32
HETATM   32  O   UNL     1     -44.268 -48.233   7.281  1.00  0.00    -0.400 OA
HETATM   33  H   UNL     1     -45.041 -47.645   7.356  1.00  0.00     0.209 HD
ENDBRANCH  31  32
ENDBRANCH  27  31
ENDBRANCH  26  27
ENDBRANCH   3  26
TORSDOF 6
ENDMDL
MODEL 7
REMARK VINA RESULT:      -6.6      2.437      7.524
REMARK  6 active torsions:
REMARK  status: ('A' for Active; 'I' for Inactive)
REMARK    1  A    between atoms: N_1  and  C_3 
REMARK    2  A    between atoms: N_4  and  C_19 
REMARK    3  A    between atoms: C_8  and  C_16 
REMARK       I    between atoms: C_16  and  N_23 
REMARK    4  A    between atoms: C_18  and  C_19 
REMARK    5  A    between atoms: C_18  and  C_26 
REMARK    6  A    between atoms: C_26  and  O_29 
ROOT
HETATM    1  C   UNL     1     -40.528 -47.415  11.761  1.00  0.00     0.122 A 
HETATM    2  C   UNL     1     -40.816 -48.751  11.385  1.00  0.00     0.136 A 
HETATM    3  N   UNL     1     -40.730 -45.236  11.625  1.00  0.00    -0.326 N 
HETATM    4  C   UNL     1     -41.259 -46.407  11.147  1.00  0.00     0.140 A 
HETATM    5  N   UNL     1     -39.596 -46.869  12.625  1.00  0.00    -0.346 N 
ATOM      6  HN  UNL     1     -38.937 -47.369  13.221  1.00  0.00     0.167 HD
HETATM    7  C   UNL     1     -39.742 -45.567  12.513  1.00  0.00     0.185 A 
HETATM    8  N   UNL     1     -41.780 -48.923  10.436  1.00  0.00    -0.337 N 
ATOM      9  HN  UNL     1     -42.002 -49.858  10.094  1.00  0.00     0.168 HD
HETATM   10  N   UNL     1     -42.240 -46.550  10.242  1.00  0.00    -0.336 N 
ATOM     11  HN  UNL     1     -42.765 -45.778   9.831  1.00  0.00     0.168 HD
HETATM   12  C   UNL     1     -42.437 -47.848   9.952  1.00  0.00     0.183 A 
ENDROOT
BRANCH   2  13
HETATM   13  N   UNL     1     -40.149 -49.853  11.866  1.00  0.00    -0.351 N 
HETATM   14  C   UNL     1     -40.705 -50.743  12.886  1.00  0.00     0.182 C 
HETATM   15  C   UNL     1     -39.547 -50.954  13.866  1.00  0.00     0.023 C 
HETATM   16  C   UNL     1     -39.543 -49.941  15.025  1.00  0.00     0.007 C 
HETATM   17  C   UNL     1     -38.262 -50.683  13.057  1.00  0.00     0.010 C 
HETATM   18  C   UNL     1     -38.429 -48.952  14.718  1.00  0.00     0.001 C 
HETATM   19  C   UNL     1     -37.411 -49.791  13.964  1.00  0.00     0.007 C 
HETATM   20  C   UNL     1     -38.702 -49.972  11.765  1.00  0.00     0.130 C 
BRANCH  14  21
HETATM   21  C   UNL     1     -41.165 -52.065  12.222  1.00  0.00     0.238 C 
HETATM   22  O   UNL     1     -40.461 -53.055  12.059  1.00  0.00    -0.271 OA
HETATM   23  N   UNL     1     -42.484 -52.083  11.849  1.00  0.00    -0.368 N 
HETATM   24  H   UNL     1     -42.956 -51.193  11.737  1.00  0.00     0.159 HD
HETATM   25  H   UNL     1     -42.793 -52.871  11.300  1.00  0.00     0.159 HD
ENDBRANCH  14  21
ENDBRANCH   2  13
BRANCH   3  26
HETATM   26  C   UNL     1     -40.996 -43.896  11.113  1.00  0.00     0.147 C 
BRANCH  26  27
HETATM   27  C   UNL     1     -42.111 -43.120  11.805  1.00  0.00     0.040 C 
HETATM   28  C   UNL     1     -41.675 -42.068  12.843  1.00  0.00     0.183 C 
HETATM   29  O   UNL     1     -42.461 -42.706  13.878  1.00  0.00    -0.389 OA
HETATM   30  C   UNL     1     -42.663 -43.868  13.041  1.00  0.00     0.183 C 
BRANCH  27  31
HETATM   31  C   UNL     1     -43.273 -42.716  10.905  1.00  0.00     0.179 C 
BRANCH  31  32
HETATM   32  O   UNL     1     -43.593 -43.760   9.999  1.00  0.00    -0.400 OA
HETATM   33  H   UNL     1     -43.813 -43.365   9.136  1.00  0.00     0.209 HD
ENDBRANCH  31  32
ENDBRANCH  27  31
ENDBRANCH  26  27
ENDBRANCH   3  26
TORSDOF 6
ENDMDL
MODEL 8
REMARK VINA RESULT:      -6.6      2.337      7.392
REMARK  6 active torsions:
REMARK  status: ('A' for Active; 'I' for Inactive)
REMARK    1  A    between atoms: N_1  and  C_3 
REMARK    2  A    between atoms: N_4  and  C_19 
REMARK    3  A    between atoms: C_8  and  C_16 
REMARK       I    between atoms: C_16  and  N_23 
REMARK    4  A    between atoms: C_18  and  C_19 
REMARK    5  A    between atoms: C_18  and  C_26 
REMARK    6  A    between atoms: C_26  and  O_29 
ROOT
HETATM    1  C   UNL     1     -41.675 -49.652  12.516  1.00  0.00     0.122 A 
HETATM    2  C   UNL     1     -41.779 -50.722  13.440  1.00  0.00     0.136 A 
HETATM    3  N   UNL     1     -41.563 -47.538  11.944  1.00  0.00    -0.326 N 
HETATM    4  C   UNL     1     -41.567 -48.368  13.035  1.00  0.00     0.140 A 
HETATM    5  N   UNL     1     -41.700 -49.606  11.134  1.00  0.00    -0.346 N 
ATOM      6  HN  UNL     1     -41.755 -50.394  10.489  1.00  0.00     0.167 HD
HETATM    7  C   UNL     1     -41.637 -48.329  10.829  1.00  0.00     0.185 A 
HETATM    8  N   UNL     1     -41.781 -50.388  14.762  1.00  0.00    -0.337 N 
ATOM      9  HN  UNL     1     -41.895 -51.110  15.474  1.00  0.00     0.168 HD
HETATM   10  N   UNL     1     -41.524 -48.015  14.329  1.00  0.00    -0.336 N 
ATOM     11  HN  UNL     1     -41.424 -47.057  14.665  1.00  0.00     0.168 HD
HETATM   12  C   UNL     1     -41.631 -49.096  15.123  1.00  0.00     0.183 A 
ENDROOT
BRANCH   2  13
HETATM   13  N   UNL     1     -41.940 -52.040  13.084  1.00  0.00    -0.351 N 
HETATM   14  C   UNL     1     -42.911 -52.929  13.724  1.00  0.00     0.182 C 
HETATM   15  C   UNL     1     -42.121 -54.215  13.984  1.00  0.00     0.023 C 
HETATM   16  C   UNL     1     -41.460 -54.249  15.374  1.00  0.00     0.007 C 
HETATM   17  C   UNL     1     -40.966 -54.209  12.962  1.00  0.00     0.010 C 
HETATM   18  C   UNL     1     -39.979 -53.992  15.144  1.00  0.00     0.001 C 
HETATM   19  C   UNL     1     -39.726 -54.594  13.772  1.00  0.00     0.007 C 
HETATM   20  C   UNL     1     -40.889 -52.778  12.400  1.00  0.00     0.130 C 
BRANCH  14  21
HETATM   21  C   UNL     1     -44.110 -53.155  12.770  1.00  0.00     0.238 C 
HETATM   22  O   UNL     1     -44.468 -54.242  12.332  1.00  0.00    -0.271 OA
HETATM   23  N   UNL     1     -44.814 -52.018  12.465  1.00  0.00    -0.368 N 
HETATM   24  H   UNL     1     -44.353 -51.126  12.602  1.00  0.00     0.159 HD
HETATM   25  H   UNL     1     -45.521 -52.097  11.749  1.00  0.00     0.159 HD
ENDBRANCH  14  21
ENDBRANCH   2  13
BRANCH   3  26
HETATM   26  C   UNL     1     -41.700 -46.085  11.964  1.00  0.00     0.147 C 
BRANCH  26  27
HETATM   27  C   UNL     1     -40.406 -45.286  11.850  1.00  0.00     0.040 C 
HETATM   28  C   UNL     1     -39.433 -45.382  13.040  1.00  0.00     0.183 C 
HETATM   29  O   UNL     1     -39.455 -43.946  13.224  1.00  0.00    -0.389 OA
HETATM   30  C   UNL     1     -40.579 -43.825  12.323  1.00  0.00     0.183 C 
BRANCH  27  31
HETATM   31  C   UNL     1     -39.761 -45.292  10.469  1.00  0.00     0.179 C 
BRANCH  31  32
HETATM   32  O   UNL     1     -40.749 -45.216   9.453  1.00  0.00    -0.400 OA
HETATM   33  H   UNL     1     -40.999 -46.121   9.195  1.00  0.00     0.209 HD
ENDBRANCH  31  32
ENDBRANCH  27  31
ENDBRANCH  26  27
ENDBRANCH   3  26
TORSDOF 6
ENDMDL
MODEL 9
REMARK VINA RESULT:      -6.5      1.733      2.134
REMARK  6 active torsions:
REMARK  status: ('A' for Active; 'I' for Inactive)
REMARK    1  A    between atoms: N_1  and  C_3 
REMARK    2  A    between atoms: N_4  and  C_19 
REMARK    3  A    between atoms: C_8  and  C_16 
REMARK       I    between atoms: C_16  and  N_23 
REMARK    4  A    between atoms: C_18  and  C_19 
REMARK    5  A    between atoms: C_18  and  C_26 
REMARK    6  A    between atoms: C_26  and  O_29 
ROOT
HETATM    1  C   UNL     1     -42.081 -48.946  13.239  1.00  0.00     0.122 A 
HETATM    2  C   UNL     1     -41.621 -47.610  13.130  1.00  0.00     0.136 A 
HETATM    3  N   UNL     1     -42.071 -50.979  14.059  1.00  0.00    -0.326 N 
HETATM    4  C   UNL     1     -41.513 -49.739  14.227  1.00  0.00     0.140 A 
HETATM    5  N   UNL     1     -42.996 -49.680  12.507  1.00  0.00    -0.346 N 
ATOM      6  HN  UNL     1     -43.576 -49.354  11.734  1.00  0.00     0.167 HD
HETATM    7  C   UNL     1     -42.959 -50.890  13.020  1.00  0.00     0.185 A 
HETATM    8  N   UNL     1     -40.642 -47.229  14.000  1.00  0.00    -0.337 N 
ATOM      9  HN  UNL     1     -40.241 -46.293  13.944  1.00  0.00     0.168 HD
HETATM   10  N   UNL     1     -40.580 -49.378  15.123  1.00  0.00    -0.336 N 
ATOM     11  HN  UNL     1     -40.204 -49.992  15.846  1.00  0.00     0.168 HD
HETATM   12  C   UNL     1     -40.209 -48.099  14.937  1.00  0.00     0.183 A 
ENDROOT
BRANCH   2  13
HETATM   13  N   UNL     1     -42.049 -46.718  12.176  1.00  0.00    -0.351 N 
HETATM   14  C   UNL     1     -41.738 -46.856  10.753  1.00  0.00     0.182 C 
HETATM   15  C   UNL     1     -41.308 -45.449  10.328  1.00  0.00     0.023 C 
HETATM   16  C   UNL     1     -39.790 -45.220  10.443  1.00  0.00     0.007 C 
HETATM   17  C   UNL     1     -41.962 -44.489  11.343  1.00  0.00     0.010 C 
HETATM   18  C   UNL     1     -39.585 -44.356  11.677  1.00  0.00     0.001 C 
HETATM   19  C   UNL     1     -40.849 -43.514  11.732  1.00  0.00     0.007 C 
HETATM   20  C   UNL     1     -42.433 -45.357  12.523  1.00  0.00     0.130 C 
BRANCH  14  21
HETATM   21  C   UNL     1     -42.998 -47.343   9.994  1.00  0.00     0.238 C 
HETATM   22  O   UNL     1     -44.037 -47.721  10.523  1.00  0.00    -0.271 OA
HETATM   23  N   UNL     1     -42.897 -47.280   8.628  1.00  0.00    -0.368 N 
HETATM   24  H   UNL     1     -41.968 -47.236   8.225  1.00  0.00     0.159 HD
HETATM   25  H   UNL     1     -43.641 -47.705   8.095  1.00  0.00     0.159 HD
ENDBRANCH  14  21
ENDBRANCH   2  13
BRANCH   3  26
HETATM   26  C   UNL     1     -41.634 -52.217  14.697  1.00  0.00     0.147 C 
BRANCH  26  27
HETATM   27  C   UNL     1     -40.681 -53.090  13.888  1.00  0.00     0.040 C 
HETATM   28  C   UNL     1     -39.578 -53.819  14.680  1.00  0.00     0.183 C 
HETATM   29  O   UNL     1     -38.542 -53.203  13.879  1.00  0.00    -0.389 OA
HETATM   30  C   UNL     1     -39.499 -52.282  13.307  1.00  0.00     0.183 C 
BRANCH  27  31
HETATM   31  C   UNL     1     -41.333 -53.897  12.771  1.00  0.00     0.179 C 
BRANCH  31  32
HETATM   32  O   UNL     1     -40.611 -53.751  11.559  1.00  0.00    -0.400 OA
HETATM   33  H   UNL     1     -41.033 -53.052  11.028  1.00  0.00     0.209 HD
ENDBRANCH  31  32
ENDBRANCH  27  31
ENDBRANCH  26  27
ENDBRANCH   3  26
TORSDOF 6
ENDMDL
