MODEL 1
REMARK VINA RESULT:      -6.0      0.000      0.000
REMARK  4 active torsions:
REMARK  status: ('A' for Active; 'I' for Inactive)
REMARK    1  A    between atoms: C_2  and  C_5 
REMARK    2  A    between atoms: N_8  and  C_9 
REMARK    3  A    between atoms: C_9  and  C_10 
REMARK       I    between atoms: C_10  and  N_12 
REMARK    4  A    between atoms: N_12  and  C_13 
ROOT
HETATM    1  C   UNL     1     -45.133 -47.451   9.380  1.00  0.00     0.133 A 
HETATM    2  C   UNL     1     -44.616 -46.224   8.885  1.00  0.00     0.054 A 
HETATM    3  C   UNL     1     -43.460 -46.002   9.590  1.00  0.00     0.113 A 
HETATM    4  N   UNL     1     -43.323 -47.059  10.440  1.00  0.00    -0.294 N 
HETATM    5  N   UNL     1     -44.316 -47.964  10.324  1.00  0.00    -0.294 N 
ATOM      6  HN  UNL     1     -44.426 -48.840  10.836  1.00  0.00     0.187 HD
ENDROOT
BRANCH   4   7
HETATM    7  C   UNL     1     -42.321 -47.231  11.471  1.00  0.00     0.250 C 
BRANCH   7   8
HETATM    8  C   UNL     1     -41.407 -48.396  11.183  1.00  0.00     0.237 C 
HETATM    9  O   UNL     1     -41.384 -48.946  10.084  1.00  0.00    -0.272 OA
HETATM   10  N   UNL     1     -40.581 -48.765  12.228  1.00  0.00    -0.355 N 
HETATM   11  H   UNL     1     -40.830 -48.466  13.166  1.00  0.00     0.162 HD
BRANCH  10  12
HETATM   12  C   UNL     1     -39.638 -49.855  12.084  1.00  0.00     0.084 C 
HETATM   13  C   UNL     1     -39.417 -50.647  13.375  1.00  0.00     0.025 C 
HETATM   14  C   UNL     1     -37.973 -51.154  13.304  1.00  0.00     0.002 C 
HETATM   15  C   UNL     1     -37.391 -50.605  12.006  1.00  0.00     0.002 C 
HETATM   16  C   UNL     1     -38.241 -49.382  11.703  1.00  0.00     0.025 C 
ENDBRANCH  10  12
ENDBRANCH   7   8
ENDBRANCH   4   7
BRANCH   1  17
HETATM   17  C   UNL     1     -46.414 -48.122   8.956  1.00  0.00     0.433 C 
HETATM   18  F   UNL     1     -46.341 -48.592   7.679  1.00  0.00    -0.165 F 
HETATM   19  F   UNL     1     -47.480 -47.279   8.991  1.00  0.00    -0.165 F 
HETATM   20  F   UNL     1     -46.726 -49.189   9.739  1.00  0.00    -0.165 F 
ENDBRANCH   1  17
TORSDOF 4
ENDMDL
MODEL 2
REMARK VINA RESULT:      -6.0      1.627      1.900
REMARK  4 active torsions:
REMARK  status: ('A' for Active; 'I' for Inactive)
REMARK    1  A    between atoms: C_2  and  C_5 
REMARK    2  A    between atoms: N_8  and  C_9 
REMARK    3  A    between atoms: C_9  and  C_10 
REMARK       I    between atoms: C_10  and  N_12 
REMARK    4  A    between atoms: N_12  and  C_13 
ROOT
HETATM    1  C   UNL     1     -45.079 -47.455   9.176  1.00  0.00     0.133 A 
HETATM    2  C   UNL     1     -44.694 -46.118   8.890  1.00  0.00     0.054 A 
HETATM    3  C   UNL     1     -43.403 -46.002   9.342  1.00  0.00     0.113 A 
HETATM    4  N   UNL     1     -43.068 -47.222   9.851  1.00  0.00    -0.294 N 
HETATM    5  N   UNL     1     -44.060 -48.129   9.751  1.00  0.00    -0.294 N 
ATOM      6  HN  UNL     1     -44.045 -49.107  10.044  1.00  0.00     0.187 HD
ENDROOT
BRANCH   4   7
HETATM    7  C   UNL     1     -41.849 -47.576  10.548  1.00  0.00     0.250 C 
BRANCH   7   8
HETATM    8  C   UNL     1     -42.086 -48.629  11.603  1.00  0.00     0.237 C 
HETATM    9  O   UNL     1     -42.890 -48.461  12.517  1.00  0.00    -0.272 OA
HETATM   10  N   UNL     1     -41.365 -49.797  11.437  1.00  0.00    -0.355 N 
HETATM   11  H   UNL     1     -40.542 -49.772  10.843  1.00  0.00     0.162 HD
BRANCH  10  12
HETATM   12  C   UNL     1     -41.509 -50.899  12.365  1.00  0.00     0.084 C 
HETATM   13  C   UNL     1     -40.494 -50.871  13.510  1.00  0.00     0.025 C 
HETATM   14  C   UNL     1     -40.248 -52.337  13.878  1.00  0.00     0.002 C 
HETATM   15  C   UNL     1     -41.087 -53.167  12.911  1.00  0.00     0.002 C 
HETATM   16  C   UNL     1     -41.281 -52.256  11.710  1.00  0.00     0.025 C 
ENDBRANCH  10  12
ENDBRANCH   7   8
ENDBRANCH   4   7
BRANCH   1  17
HETATM   17  C   UNL     1     -46.424 -48.079   8.908  1.00  0.00     0.433 C 
HETATM   18  F   UNL     1     -46.497 -48.609   7.655  1.00  0.00    -0.165 F 
HETATM   19  F   UNL     1     -47.442 -47.183   9.003  1.00  0.00    -0.165 F 
HETATM   20  F   UNL     1     -46.707 -49.093   9.769  1.00  0.00    -0.165 F 
ENDBRANCH   1  17
TORSDOF 4
ENDMDL
MODEL 3
REMARK VINA RESULT:      -5.8      3.256      4.038
REMARK  4 active torsions:
REMARK  status: ('A' for Active; 'I' for Inactive)
REMARK    1  A    between atoms: C_2  and  C_5 
REMARK    2  A    between atoms: N_8  and  C_9 
REMARK    3  A    between atoms: C_9  and  C_10 
REMARK       I    between atoms: C_10  and  N_12 
REMARK    4  A    between atoms: N_12  and  C_13 
ROOT
HETATM    1  C   UNL     1     -42.866 -47.645   9.560  1.00  0.00     0.133 A 
HETATM    2  C   UNL     1     -43.105 -47.096  10.848  1.00  0.00     0.054 A 
HETATM    3  C   UNL     1     -42.257 -47.764  11.695  1.00  0.00     0.113 A 
HETATM    4  N   UNL     1     -41.561 -48.644  10.921  1.00  0.00    -0.294 N 
HETATM    5  N   UNL     1     -41.898 -48.585   9.617  1.00  0.00    -0.294 N 
ATOM      6  HN  UNL     1     -41.509 -49.129   8.846  1.00  0.00     0.187 HD
ENDROOT
BRANCH   4   7
HETATM    7  C   UNL     1     -40.625 -49.655  11.368  1.00  0.00     0.250 C 
BRANCH   7   8
HETATM    8  C   UNL     1     -41.197 -50.506  12.475  1.00  0.00     0.237 C 
HETATM    9  O   UNL     1     -40.881 -50.340  13.650  1.00  0.00    -0.272 OA
HETATM   10  N   UNL     1     -42.123 -51.449  12.069  1.00  0.00    -0.355 N 
HETATM   11  H   UNL     1     -42.139 -51.717  11.090  1.00  0.00     0.162 HD
BRANCH  10  12
HETATM   12  C   UNL     1     -42.767 -52.322  13.029  1.00  0.00     0.084 C 
HETATM   13  C   UNL     1     -41.838 -53.396  13.599  1.00  0.00     0.025 C 
HETATM   14  C   UNL     1     -42.738 -54.597  13.907  1.00  0.00     0.002 C 
HETATM   15  C   UNL     1     -44.144 -54.201  13.466  1.00  0.00     0.002 C 
HETATM   16  C   UNL     1     -43.918 -53.118  12.425  1.00  0.00     0.025 C 
ENDBRANCH  10  12
ENDBRANCH   7   8
ENDBRANCH   4   7
BRANCH   1  17
HETATM   17  C   UNL     1     -43.571 -47.277   8.281  1.00  0.00     0.433 C 
HETATM   18  F   UNL     1     -43.140 -48.028   7.229  1.00  0.00    -0.165 F 
HETATM   19  F   UNL     1     -43.369 -45.979   7.930  1.00  0.00    -0.165 F 
HETATM   20  F   UNL     1     -44.916 -47.463   8.357  1.00  0.00    -0.165 F 
ENDBRANCH   1  17
TORSDOF 4
ENDMDL
MODEL 4
REMARK VINA RESULT:      -5.6      3.714      4.753
REMARK  4 active torsions:
REMARK  status: ('A' for Active; 'I' for Inactive)
REMARK    1  A    between atoms: C_2  and  C_5 
REMARK    2  A    between atoms: N_8  and  C_9 
REMARK    3  A    between atoms: C_9  and  C_10 
REMARK       I    between atoms: C_10  and  N_12 
REMARK    4  A    between atoms: N_12  and  C_13 
ROOT
HETATM    1  C   UNL     1     -42.862 -47.590   9.872  1.00  0.00     0.133 A 
HETATM    2  C   UNL     1     -42.815 -46.582  10.872  1.00  0.00     0.054 A 
HETATM    3  C   UNL     1     -42.173 -47.154  11.941  1.00  0.00     0.113 A 
HETATM    4  N   UNL     1     -41.861 -48.426  11.561  1.00  0.00    -0.294 N 
HETATM    5  N   UNL     1     -42.253 -48.715  10.304  1.00  0.00    -0.294 N 
ATOM      6  HN  UNL     1     -42.120 -49.588   9.793  1.00  0.00     0.187 HD
ENDROOT
BRANCH   4   7
HETATM    7  C   UNL     1     -41.277 -49.467  12.381  1.00  0.00     0.250 C 
BRANCH   7   8
HETATM    8  C   UNL     1     -42.274 -50.549  12.715  1.00  0.00     0.237 C 
HETATM    9  O   UNL     1     -42.168 -51.688  12.268  1.00  0.00    -0.272 OA
HETATM   10  N   UNL     1     -43.280 -50.171  13.585  1.00  0.00    -0.355 N 
HETATM   11  H   UNL     1     -43.468 -49.181  13.700  1.00  0.00     0.162 HD
BRANCH  10  12
HETATM   12  C   UNL     1     -44.294 -51.115  14.007  1.00  0.00     0.084 C 
HETATM   13  C   UNL     1     -45.498 -51.182  13.066  1.00  0.00     0.025 C 
HETATM   14  C   UNL     1     -46.695 -51.535  13.953  1.00  0.00     0.002 C 
HETATM   15  C   UNL     1     -46.160 -51.618  15.379  1.00  0.00     0.002 C 
HETATM   16  C   UNL     1     -44.906 -50.761  15.357  1.00  0.00     0.025 C 
ENDBRANCH  10  12
ENDBRANCH   7   8
ENDBRANCH   4   7
BRANCH   1  17
HETATM   17  C   UNL     1     -43.498 -47.477   8.511  1.00  0.00     0.433 C 
HETATM   18  F   UNL     1     -42.911 -48.309   7.606  1.00  0.00    -0.165 F 
HETATM   19  F   UNL     1     -43.402 -46.223   7.994  1.00  0.00    -0.165 F 
HETATM   20  F   UNL     1     -44.819 -47.800   8.527  1.00  0.00    -0.165 F 
ENDBRANCH   1  17
TORSDOF 4
ENDMDL
MODEL 5
REMARK VINA RESULT:      -5.6      3.788      5.732
REMARK  4 active torsions:
REMARK  status: ('A' for Active; 'I' for Inactive)
REMARK    1  A    between atoms: C_2  and  C_5 
REMARK    2  A    between atoms: N_8  and  C_9 
REMARK    3  A    between atoms: C_9  and  C_10 
REMARK       I    between atoms: C_10  and  N_12 
REMARK    4  A    between atoms: N_12  and  C_13 
ROOT
HETATM    1  C   UNL     1     -43.135 -47.340   9.884  1.00  0.00     0.133 A 
HETATM    2  C   UNL     1     -43.041 -48.126  11.063  1.00  0.00     0.054 A 
HETATM    3  C   UNL     1     -41.836 -47.797  11.630  1.00  0.00     0.113 A 
HETATM    4  N   UNL     1     -41.276 -46.859  10.815  1.00  0.00    -0.294 N 
HETATM    5  N   UNL     1     -42.048 -46.549   9.753  1.00  0.00    -0.294 N 
ATOM      6  HN  UNL     1     -41.854 -45.870   9.017  1.00  0.00     0.187 HD
ENDROOT
BRANCH   4   7
HETATM    7  C   UNL     1     -39.953 -46.280  10.924  1.00  0.00     0.250 C 
BRANCH   7   8
HETATM    8  C   UNL     1     -39.951 -44.807  10.599  1.00  0.00     0.237 C 
HETATM    9  O   UNL     1     -39.621 -44.388   9.492  1.00  0.00    -0.272 OA
HETATM   10  N   UNL     1     -40.382 -43.981  11.621  1.00  0.00    -0.355 N 
HETATM   11  H   UNL     1     -40.378 -44.346  12.567  1.00  0.00     0.162 HD
BRANCH  10  12
HETATM   12  C   UNL     1     -40.449 -42.545  11.440  1.00  0.00     0.084 C 
HETATM   13  C   UNL     1     -40.033 -41.753  12.681  1.00  0.00     0.025 C 
HETATM   14  C   UNL     1     -40.849 -40.457  12.635  1.00  0.00     0.002 C 
HETATM   15  C   UNL     1     -41.741 -40.559  11.402  1.00  0.00     0.002 C 
HETATM   16  C   UNL     1     -41.861 -42.052  11.150  1.00  0.00     0.025 C 
ENDBRANCH  10  12
ENDBRANCH   7   8
ENDBRANCH   4   7
BRANCH   1  17
HETATM   17  C   UNL     1     -44.258 -47.355   8.880  1.00  0.00     0.433 C 
HETATM   18  F   UNL     1     -45.383 -47.934   9.386  1.00  0.00    -0.165 F 
HETATM   19  F   UNL     1     -43.942 -48.053   7.756  1.00  0.00    -0.165 F 
HETATM   20  F   UNL     1     -44.617 -46.105   8.482  1.00  0.00    -0.165 F 
ENDBRANCH   1  17
TORSDOF 4
ENDMDL
MODEL 6
REMARK VINA RESULT:      -5.5      3.878      5.716
REMARK  4 active torsions:
REMARK  status: ('A' for Active; 'I' for Inactive)
REMARK    1  A    between atoms: C_2  and  C_5 
REMARK    2  A    between atoms: N_8  and  C_9 
REMARK    3  A    between atoms: C_9  and  C_10 
REMARK       I    between atoms: C_10  and  N_12 
REMARK    4  A    between atoms: N_12  and  C_13 
ROOT
HETATM    1  C   UNL     1     -45.035 -52.450  13.105  1.00  0.00     0.133 A 
HETATM    2  C   UNL     1     -44.473 -53.753  13.034  1.00  0.00     0.054 A 
HETATM    3  C   UNL     1     -43.149 -53.566  12.725  1.00  0.00     0.113 A 
HETATM    4  N   UNL     1     -42.966 -52.218  12.635  1.00  0.00    -0.294 N 
HETATM    5  N   UNL     1     -44.090 -51.513  12.876  1.00  0.00    -0.294 N 
ATOM      6  HN  UNL     1     -44.202 -50.499  12.883  1.00  0.00     0.187 HD
ENDROOT
BRANCH   4   7
HETATM    7  C   UNL     1     -41.766 -51.522  12.221  1.00  0.00     0.250 C 
BRANCH   7   8
HETATM    8  C   UNL     1     -41.893 -50.028  12.385  1.00  0.00     0.237 C 
HETATM    9  O   UNL     1     -41.806 -49.487  13.484  1.00  0.00    -0.272 OA
HETATM   10  N   UNL     1     -42.073 -49.322  11.209  1.00  0.00    -0.355 N 
HETATM   11  H   UNL     1     -42.401 -49.827  10.392  1.00  0.00     0.162 HD
BRANCH  10  12
HETATM   12  C   UNL     1     -42.190 -47.879  11.217  1.00  0.00     0.084 C 
HETATM   13  C   UNL     1     -43.194 -47.342  10.195  1.00  0.00     0.025 C 
HETATM   14  C   UNL     1     -42.665 -45.964   9.784  1.00  0.00     0.002 C 
HETATM   15  C   UNL     1     -41.356 -45.766  10.540  1.00  0.00     0.002 C 
HETATM   16  C   UNL     1     -40.888 -47.178  10.851  1.00  0.00     0.025 C 
ENDBRANCH  10  12
ENDBRANCH   7   8
ENDBRANCH   4   7
BRANCH   1  17
HETATM   17  C   UNL     1     -46.475 -52.106  13.380  1.00  0.00     0.433 C 
HETATM   18  F   UNL     1     -46.591 -51.034  14.214  1.00  0.00    -0.165 F 
HETATM   19  F   UNL     1     -47.149 -53.126  13.976  1.00  0.00    -0.165 F 
HETATM   20  F   UNL     1     -47.159 -51.786  12.249  1.00  0.00    -0.165 F 
ENDBRANCH   1  17
TORSDOF 4
ENDMDL
MODEL 7
REMARK VINA RESULT:      -5.5      3.496      5.514
REMARK  4 active torsions:
REMARK  status: ('A' for Active; 'I' for Inactive)
REMARK    1  A    between atoms: C_2  and  C_5 
REMARK    2  A    between atoms: N_8  and  C_9 
REMARK    3  A    between atoms: C_9  and  C_10 
REMARK       I    between atoms: C_10  and  N_12 
REMARK    4  A    between atoms: N_12  and  C_13 
ROOT
HETATM    1  C   UNL     1     -44.980 -51.216  13.653  1.00  0.00     0.133 A 
HETATM    2  C   UNL     1     -44.350 -50.597  14.765  1.00  0.00     0.054 A 
HETATM    3  C   UNL     1     -43.034 -50.448  14.405  1.00  0.00     0.113 A 
HETATM    4  N   UNL     1     -42.926 -50.950  13.142  1.00  0.00    -0.294 N 
HETATM    5  N   UNL     1     -44.094 -51.410  12.652  1.00  0.00    -0.294 N 
ATOM      6  HN  UNL     1     -44.271 -51.814  11.732  1.00  0.00     0.187 HD
ENDROOT
BRANCH   4   7
HETATM    7  C   UNL     1     -41.714 -51.122  12.369  1.00  0.00     0.250 C 
BRANCH   7   8
HETATM    8  C   UNL     1     -41.339 -49.868  11.618  1.00  0.00     0.237 C 
HETATM    9  O   UNL     1     -40.168 -49.570  11.397  1.00  0.00    -0.272 OA
HETATM   10  N   UNL     1     -42.406 -49.111  11.171  1.00  0.00    -0.355 N 
HETATM   11  H   UNL     1     -43.312 -49.255  11.606  1.00  0.00     0.162 HD
BRANCH  10  12
HETATM   12  C   UNL     1     -42.192 -47.892  10.419  1.00  0.00     0.084 C 
HETATM   13  C   UNL     1     -42.078 -46.644  11.298  1.00  0.00     0.025 C 
HETATM   14  C   UNL     1     -42.628 -45.493  10.451  1.00  0.00     0.002 C 
HETATM   15  C   UNL     1     -43.084 -46.112   9.133  1.00  0.00     0.002 C 
HETATM   16  C   UNL     1     -43.345 -47.569   9.476  1.00  0.00     0.025 C 
ENDBRANCH  10  12
ENDBRANCH   7   8
ENDBRANCH   4   7
BRANCH   1  17
HETATM   17  C   UNL     1     -46.426 -51.630  13.555  1.00  0.00     0.433 C 
HETATM   18  F   UNL     1     -47.194 -51.016  14.498  1.00  0.00    -0.165 F 
HETATM   19  F   UNL     1     -46.598 -52.967  13.734  1.00  0.00    -0.165 F 
HETATM   20  F   UNL     1     -46.976 -51.317  12.351  1.00  0.00    -0.165 F 
ENDBRANCH   1  17
TORSDOF 4
ENDMDL
MODEL 8
REMARK VINA RESULT:      -5.5      3.724      4.465
REMARK  4 active torsions:
REMARK  status: ('A' for Active; 'I' for Inactive)
REMARK    1  A    between atoms: C_2  and  C_5 
REMARK    2  A    between atoms: N_8  and  C_9 
REMARK    3  A    between atoms: C_9  and  C_10 
REMARK       I    between atoms: C_10  and  N_12 
REMARK    4  A    between atoms: N_12  and  C_13 
ROOT
HETATM    1  C   UNL     1     -42.828 -47.584   9.798  1.00  0.00     0.133 A 
HETATM    2  C   UNL     1     -41.873 -46.690  10.352  1.00  0.00     0.054 A 
HETATM    3  C   UNL     1     -41.654 -47.132  11.632  1.00  0.00     0.113 A 
HETATM    4  N   UNL     1     -42.442 -48.233  11.794  1.00  0.00    -0.294 N 
HETATM    5  N   UNL     1     -43.155 -48.542  10.692  1.00  0.00    -0.294 N 
ATOM      6  HN  UNL     1     -43.798 -49.323  10.562  1.00  0.00     0.187 HD
ENDROOT
BRANCH   4   7
HETATM    7  C   UNL     1     -42.650 -48.991  13.010  1.00  0.00     0.250 C 
BRANCH   7   8
HETATM    8  C   UNL     1     -42.578 -50.479  12.769  1.00  0.00     0.237 C 
HETATM    9  O   UNL     1     -41.726 -50.977  12.037  1.00  0.00    -0.272 OA
HETATM   10  N   UNL     1     -43.512 -51.230  13.459  1.00  0.00    -0.355 N 
HETATM   11  H   UNL     1     -44.336 -50.759  13.818  1.00  0.00     0.162 HD
BRANCH  10  12
HETATM   12  C   UNL     1     -43.546 -52.672  13.336  1.00  0.00     0.084 C 
HETATM   13  C   UNL     1     -44.887 -53.213  12.835  1.00  0.00     0.025 C 
HETATM   14  C   UNL     1     -45.038 -54.596  13.475  1.00  0.00     0.002 C 
HETATM   15  C   UNL     1     -43.809 -54.795  14.357  1.00  0.00     0.002 C 
HETATM   16  C   UNL     1     -43.341 -53.384  14.668  1.00  0.00     0.025 C 
ENDBRANCH  10  12
ENDBRANCH   7   8
ENDBRANCH   4   7
BRANCH   1  17
HETATM   17  C   UNL     1     -43.432 -47.513   8.420  1.00  0.00     0.433 C 
HETATM   18  F   UNL     1     -43.271 -46.282   7.858  1.00  0.00    -0.165 F 
HETATM   19  F   UNL     1     -44.770 -47.758   8.425  1.00  0.00    -0.165 F 
HETATM   20  F   UNL     1     -42.870 -48.403   7.559  1.00  0.00    -0.165 F 
ENDBRANCH   1  17
TORSDOF 4
ENDMDL
MODEL 9
REMARK VINA RESULT:      -5.3      5.563      7.691
REMARK  4 active torsions:
REMARK  status: ('A' for Active; 'I' for Inactive)
REMARK    1  A    between atoms: C_2  and  C_5 
REMARK    2  A    between atoms: N_8  and  C_9 
REMARK    3  A    between atoms: C_9  and  C_10 
REMARK       I    between atoms: C_10  and  N_12 
REMARK    4  A    between atoms: N_12  and  C_13 
ROOT
HETATM    1  C   UNL     1     -38.834 -50.676  12.371  1.00  0.00     0.133 A 
HETATM    2  C   UNL     1     -38.619 -51.534  13.482  1.00  0.00     0.054 A 
HETATM    3  C   UNL     1     -39.732 -52.335  13.550  1.00  0.00     0.113 A 
HETATM    4  N   UNL     1     -40.537 -51.954  12.518  1.00  0.00    -0.294 N 
HETATM    5  N   UNL     1     -40.012 -50.959  11.775  1.00  0.00    -0.294 N 
ATOM      6  HN  UNL     1     -40.415 -50.518  10.947  1.00  0.00     0.187 HD
ENDROOT
BRANCH   4   7
HETATM    7  C   UNL     1     -41.877 -52.423  12.233  1.00  0.00     0.250 C 
BRANCH   7   8
HETATM    8  C   UNL     1     -42.930 -51.526  12.833  1.00  0.00     0.237 C 
HETATM    9  O   UNL     1     -42.882 -50.303  12.720  1.00  0.00    -0.272 OA
HETATM   10  N   UNL     1     -43.962 -52.183  13.479  1.00  0.00    -0.355 N 
HETATM   11  H   UNL     1     -43.811 -53.143  13.770  1.00  0.00     0.162 HD
BRANCH  10  12
HETATM   12  C   UNL     1     -45.051 -51.446  14.084  1.00  0.00     0.084 C 
HETATM   13  C   UNL     1     -44.751 -50.968  15.507  1.00  0.00     0.025 C 
HETATM   14  C   UNL     1     -46.102 -50.950  16.228  1.00  0.00     0.002 C 
HETATM   15  C   UNL     1     -47.130 -51.457  15.223  1.00  0.00     0.002 C 
HETATM   16  C   UNL     1     -46.316 -52.281  14.240  1.00  0.00     0.025 C 
ENDBRANCH  10  12
ENDBRANCH   7   8
ENDBRANCH   4   7
BRANCH   1  17
HETATM   17  C   UNL     1     -37.919 -49.581  11.891  1.00  0.00     0.433 C 
HETATM   18  F   UNL     1     -38.612 -48.542  11.347  1.00  0.00    -0.165 F 
HETATM   19  F   UNL     1     -37.056 -50.008  10.930  1.00  0.00    -0.165 F 
HETATM   20  F   UNL     1     -37.166 -49.055  12.894  1.00  0.00    -0.165 F 
ENDBRANCH   1  17
TORSDOF 4
ENDMDL
