MODEL 1
REMARK VINA RESULT:      -6.7      0.000      0.000
REMARK  7 active torsions:
REMARK  status: ('A' for Active; 'I' for Inactive)
REMARK    1  A    between atoms: C_6  and  C_7 
REMARK    2  A    between atoms: C_7  and  N_8 
REMARK    3  A    between atoms: N_8  and  C_9 
REMARK    4  A    between atoms: C_9  and  C_10 
REMARK    5  A    between atoms: C_10  and  O_11 
REMARK    6  A    between atoms: C_10  and  C_12 
REMARK    7  A    between atoms: C_12  and  N_13 
ROOT
HETATM    1  C   UNL     1     -41.817 -52.609  12.150  1.00  0.00     0.164 C 
ENDROOT
BRANCH   1   2
HETATM    2  C   UNL     1     -41.631 -51.076  12.168  1.00  0.00     0.302 C 
BRANCH   2   3
HETATM    3  N   UNL     1     -40.782 -50.702  11.041  1.00  0.00     0.088 N 
HETATM    4  H   UNL     1     -40.086 -51.441  10.880  1.00  0.00     0.316 HD
BRANCH   3   5
HETATM    5  C   UNL     1     -40.083 -49.429  11.222  1.00  0.00     0.303 C 
BRANCH   5   6
HETATM    6  C   UNL     1     -41.119 -48.285  11.208  1.00  0.00     0.177 C 
HETATM    7  O   UNL     1     -41.851 -48.337   9.965  1.00  0.00    -0.381 OA
HETATM    8  C   UNL     1     -42.846 -47.305   9.927  1.00  0.00     0.198 C 
HETATM    9  C   UNL     1     -42.214 -45.911  10.095  1.00  0.00     0.298 C 
HETATM   10  N   UNL     1     -41.364 -45.767  11.296  1.00  0.00     0.088 N 
HETATM   11  C   UNL     1     -42.166 -45.660  12.515  1.00  0.00     0.310 C 
HETATM   12  C   UNL     1     -40.429 -46.912  11.353  1.00  0.00     0.305 C 
ENDBRANCH   5   6
ENDBRANCH   3   5
ENDBRANCH   2   3
ENDBRANCH   1   2
BRANCH   1  13
HETATM   13  O   UNL     1     -40.606 -53.225  11.684  1.00  0.00    -0.392 OA
HETATM   14  H   UNL     1     -39.919 -53.136  12.367  1.00  0.00     0.210 HD
ENDBRANCH   1  13
BRANCH   1  15
HETATM   15  C   UNL     1     -42.204 -53.136  13.536  1.00  0.00     0.163 C 
BRANCH  15  16
HETATM   16  N   UNL     1     -43.635 -53.316  13.702  1.00  0.00    -0.339 N 
HETATM   17  C   UNL     1     -44.416 -54.147  12.945  1.00  0.00     0.184 A 
HETATM   18  N   UNL     1     -45.686 -54.045  13.259  1.00  0.00    -0.350 N 
HETATM   19  C   UNL     1     -45.731 -53.108  14.261  1.00  0.00     0.060 A 
ATOM     20  HN  UNL     1     -46.470 -54.551  12.849  1.00  0.00     0.166 HD
HETATM   21  C   UNL     1     -46.840 -52.598  14.949  1.00  0.00     0.039 A 
HETATM   22  C   UNL     1     -44.458 -52.638  14.570  1.00  0.00     0.062 A 
HETATM   23  C   UNL     1     -46.661 -51.603  15.931  1.00  0.00    -0.054 A 
HETATM   24  C   UNL     1     -47.882 -51.052  16.616  1.00  0.00     0.049 C 
HETATM   25  C   UNL     1     -45.361 -51.142  16.234  1.00  0.00    -0.054 A 
HETATM   26  C   UNL     1     -45.099 -50.062  17.252  1.00  0.00     0.049 C 
HETATM   27  C   UNL     1     -44.240 -51.670  15.557  1.00  0.00     0.039 A 
ENDBRANCH  15  16
ENDBRANCH   1  15
TORSDOF 7
ENDMDL
MODEL 2
REMARK VINA RESULT:      -6.5      2.074      3.025
REMARK  7 active torsions:
REMARK  status: ('A' for Active; 'I' for Inactive)
REMARK    1  A    between atoms: C_6  and  C_7 
REMARK    2  A    between atoms: C_7  and  N_8 
REMARK    3  A    between atoms: N_8  and  C_9 
REMARK    4  A    between atoms: C_9  and  C_10 
REMARK    5  A    between atoms: C_10  and  O_11 
REMARK    6  A    between atoms: C_10  and  C_12 
REMARK    7  A    between atoms: C_12  and  N_13 
ROOT
HETATM    1  C   UNL     1     -41.933 -52.664  12.148  1.00  0.00     0.164 C 
ENDROOT
BRANCH   1   2
HETATM    2  C   UNL     1     -41.889 -51.121  12.104  1.00  0.00     0.302 C 
BRANCH   2   3
HETATM    3  N   UNL     1     -40.834 -50.717  11.179  1.00  0.00     0.088 N 
HETATM    4  H   UNL     1     -40.048 -51.375  11.251  1.00  0.00     0.316 HD
BRANCH   3   5
HETATM    5  C   UNL     1     -40.334 -49.360  11.407  1.00  0.00     0.303 C 
BRANCH   5   6
HETATM    6  C   UNL     1     -39.078 -49.436  12.300  1.00  0.00     0.177 C 
HETATM    7  O   UNL     1     -38.589 -50.794  12.299  1.00  0.00    -0.381 OA
HETATM    8  C   UNL     1     -37.402 -50.899  13.097  1.00  0.00     0.198 C 
HETATM    9  C   UNL     1     -37.660 -50.446  14.546  1.00  0.00     0.298 C 
HETATM   10  N   UNL     1     -38.248 -49.095  14.668  1.00  0.00     0.088 N 
HETATM   11  C   UNL     1     -37.257 -48.051  14.412  1.00  0.00     0.310 C 
HETATM   12  C   UNL     1     -39.400 -48.997  13.745  1.00  0.00     0.305 C 
ENDBRANCH   5   6
ENDBRANCH   3   5
ENDBRANCH   2   3
ENDBRANCH   1   2
BRANCH   1  13
HETATM   13  O   UNL     1     -40.665 -53.184  11.719  1.00  0.00    -0.392 OA
HETATM   14  H   UNL     1     -40.686 -54.155  11.760  1.00  0.00     0.210 HD
ENDBRANCH   1  13
BRANCH   1  15
HETATM   15  C   UNL     1     -42.288 -53.168  13.550  1.00  0.00     0.163 C 
BRANCH  15  16
HETATM   16  N   UNL     1     -43.714 -53.350  13.752  1.00  0.00    -0.339 N 
HETATM   17  C   UNL     1     -44.507 -54.206  13.034  1.00  0.00     0.184 A 
HETATM   18  N   UNL     1     -45.770 -54.101  13.372  1.00  0.00    -0.350 N 
HETATM   19  C   UNL     1     -45.799 -53.136  14.347  1.00  0.00     0.060 A 
ATOM     20  HN  UNL     1     -46.559 -54.623  12.992  1.00  0.00     0.166 HD
HETATM   21  C   UNL     1     -46.897 -52.611  15.042  1.00  0.00     0.039 A 
HETATM   22  C   UNL     1     -44.523 -52.651  14.615  1.00  0.00     0.062 A 
HETATM   23  C   UNL     1     -46.703 -51.588  15.992  1.00  0.00    -0.054 A 
HETATM   24  C   UNL     1     -47.914 -51.023  16.685  1.00  0.00     0.049 C 
HETATM   25  C   UNL     1     -45.401 -51.112  16.254  1.00  0.00    -0.054 A 
HETATM   26  C   UNL     1     -45.123 -50.002  17.235  1.00  0.00     0.049 C 
HETATM   27  C   UNL     1     -44.291 -51.654  15.570  1.00  0.00     0.039 A 
ENDBRANCH  15  16
ENDBRANCH   1  15
TORSDOF 7
ENDMDL
MODEL 3
REMARK VINA RESULT:      -6.2      2.904      3.581
REMARK  7 active torsions:
REMARK  status: ('A' for Active; 'I' for Inactive)
REMARK    1  A    between atoms: C_6  and  C_7 
REMARK    2  A    between atoms: C_7  and  N_8 
REMARK    3  A    between atoms: N_8  and  C_9 
REMARK    4  A    between atoms: C_9  and  C_10 
REMARK    5  A    between atoms: C_10  and  O_11 
REMARK    6  A    between atoms: C_10  and  C_12 
REMARK    7  A    between atoms: C_12  and  N_13 
ROOT
HETATM    1  C   UNL     1     -38.317 -51.081  12.930  1.00  0.00     0.164 C 
ENDROOT
BRANCH   1   2
HETATM    2  C   UNL     1     -38.135 -49.840  13.832  1.00  0.00     0.302 C 
BRANCH   2   3
HETATM    3  N   UNL     1     -39.329 -49.009  13.718  1.00  0.00     0.088 N 
HETATM    4  H   UNL     1     -40.092 -49.564  13.309  1.00  0.00     0.316 HD
BRANCH   3   5
HETATM    5  C   UNL     1     -39.137 -47.804  12.908  1.00  0.00     0.303 C 
BRANCH   5   6
HETATM    6  C   UNL     1     -40.492 -47.398  12.290  1.00  0.00     0.177 C 
HETATM    7  O   UNL     1     -41.222 -48.595  11.947  1.00  0.00    -0.381 OA
HETATM    8  C   UNL     1     -42.502 -48.258  11.394  1.00  0.00     0.198 C 
HETATM    9  C   UNL     1     -42.357 -47.369  10.146  1.00  0.00     0.298 C 
HETATM   10  N   UNL     1     -41.547 -46.150  10.356  1.00  0.00     0.088 N 
HETATM   11  C   UNL     1     -42.282 -45.138  11.114  1.00  0.00     0.310 C 
HETATM   12  C   UNL     1     -40.285 -46.532  11.029  1.00  0.00     0.305 C 
ENDBRANCH   5   6
ENDBRANCH   3   5
ENDBRANCH   2   3
ENDBRANCH   1   2
BRANCH   1  13
HETATM   13  O   UNL     1     -37.026 -51.578  12.546  1.00  0.00    -0.392 OA
HETATM   14  H   UNL     1     -36.796 -52.338  13.106  1.00  0.00     0.210 HD
ENDBRANCH   1  13
BRANCH   1  15
HETATM   15  C   UNL     1     -39.135 -52.165  13.639  1.00  0.00     0.163 C 
BRANCH  15  16
HETATM   16  N   UNL     1     -40.417 -52.424  13.006  1.00  0.00    -0.339 N 
HETATM   17  C   UNL     1     -40.866 -51.819  11.863  1.00  0.00     0.184 A 
HETATM   18  N   UNL     1     -42.093 -52.180  11.569  1.00  0.00    -0.350 N 
HETATM   19  C   UNL     1     -42.455 -53.053  12.564  1.00  0.00     0.060 A 
ATOM     20  HN  UNL     1     -42.655 -51.877  10.774  1.00  0.00     0.166 HD
HETATM   21  C   UNL     1     -43.671 -53.723  12.755  1.00  0.00     0.039 A 
HETATM   22  C   UNL     1     -41.422 -53.235  13.477  1.00  0.00     0.062 A 
HETATM   23  C   UNL     1     -43.844 -54.558  13.877  1.00  0.00    -0.054 A 
HETATM   24  C   UNL     1     -45.179 -55.225  14.067  1.00  0.00     0.049 C 
HETATM   25  C   UNL     1     -42.782 -54.735  14.790  1.00  0.00    -0.054 A 
HETATM   26  C   UNL     1     -42.905 -55.591  16.024  1.00  0.00     0.049 C 
HETATM   27  C   UNL     1     -41.549 -54.078  14.588  1.00  0.00     0.039 A 
ENDBRANCH  15  16
ENDBRANCH   1  15
TORSDOF 7
ENDMDL
MODEL 4
REMARK VINA RESULT:      -6.2      2.911      4.005
REMARK  7 active torsions:
REMARK  status: ('A' for Active; 'I' for Inactive)
REMARK    1  A    between atoms: C_6  and  C_7 
REMARK    2  A    between atoms: C_7  and  N_8 
REMARK    3  A    between atoms: N_8  and  C_9 
REMARK    4  A    between atoms: C_9  and  C_10 
REMARK    5  A    between atoms: C_10  and  O_11 
REMARK    6  A    between atoms: C_10  and  C_12 
REMARK    7  A    between atoms: C_12  and  N_13 
ROOT
HETATM    1  C   UNL     1     -39.682 -53.918  13.722  1.00  0.00     0.164 C 
ENDROOT
BRANCH   1   2
HETATM    2  C   UNL     1     -40.016 -53.915  15.230  1.00  0.00     0.302 C 
BRANCH   2   3
HETATM    3  N   UNL     1     -40.051 -52.531  15.691  1.00  0.00     0.088 N 
HETATM    4  H   UNL     1     -40.685 -51.988  15.090  1.00  0.00     0.316 HD
BRANCH   3   5
HETATM    5  C   UNL     1     -38.741 -51.877  15.703  1.00  0.00     0.303 C 
BRANCH   5   6
HETATM    6  C   UNL     1     -38.901 -50.431  15.187  1.00  0.00     0.177 C 
HETATM    7  O   UNL     1     -40.250 -50.258  14.702  1.00  0.00    -0.381 OA
HETATM    8  C   UNL     1     -40.446 -48.915  14.240  1.00  0.00     0.198 C 
HETATM    9  C   UNL     1     -39.449 -48.554  13.125  1.00  0.00     0.298 C 
HETATM   10  N   UNL     1     -38.030 -48.776  13.480  1.00  0.00     0.088 N 
HETATM   11  C   UNL     1     -37.535 -47.748  14.393  1.00  0.00     0.310 C 
HETATM   12  C   UNL     1     -37.895 -50.134  14.055  1.00  0.00     0.305 C 
ENDBRANCH   5   6
ENDBRANCH   3   5
ENDBRANCH   2   3
ENDBRANCH   1   2
BRANCH   1  13
HETATM   13  O   UNL     1     -38.645 -54.878  13.471  1.00  0.00    -0.392 OA
HETATM   14  H   UNL     1     -37.804 -54.541  13.825  1.00  0.00     0.210 HD
ENDBRANCH   1  13
BRANCH   1  15
HETATM   15  C   UNL     1     -40.927 -54.220  12.880  1.00  0.00     0.163 C 
BRANCH  15  16
HETATM   16  N   UNL     1     -41.813 -53.079  12.735  1.00  0.00    -0.339 N 
HETATM   17  C   UNL     1     -41.496 -51.914  12.089  1.00  0.00     0.184 A 
HETATM   18  N   UNL     1     -42.455 -51.024  12.188  1.00  0.00    -0.350 N 
HETATM   19  C   UNL     1     -43.434 -51.636  12.929  1.00  0.00     0.060 A 
ATOM     20  HN  UNL     1     -42.470 -50.082  11.798  1.00  0.00     0.166 HD
HETATM   21  C   UNL     1     -44.670 -51.132  13.354  1.00  0.00     0.039 A 
HETATM   22  C   UNL     1     -43.066 -52.931  13.280  1.00  0.00     0.062 A 
HETATM   23  C   UNL     1     -45.520 -51.929  14.146  1.00  0.00    -0.054 A 
HETATM   24  C   UNL     1     -46.820 -51.334  14.616  1.00  0.00     0.049 C 
HETATM   25  C   UNL     1     -45.132 -53.242  14.488  1.00  0.00    -0.054 A 
HETATM   26  C   UNL     1     -45.978 -54.141  15.353  1.00  0.00     0.049 C 
HETATM   27  C   UNL     1     -43.896 -53.761  14.044  1.00  0.00     0.039 A 
ENDBRANCH  15  16
ENDBRANCH   1  15
TORSDOF 7
ENDMDL
MODEL 5
REMARK VINA RESULT:      -6.2      2.109      3.814
REMARK  7 active torsions:
REMARK  status: ('A' for Active; 'I' for Inactive)
REMARK    1  A    between atoms: C_6  and  C_7 
REMARK    2  A    between atoms: C_7  and  N_8 
REMARK    3  A    between atoms: N_8  and  C_9 
REMARK    4  A    between atoms: C_9  and  C_10 
REMARK    5  A    between atoms: C_10  and  O_11 
REMARK    6  A    between atoms: C_10  and  C_12 
REMARK    7  A    between atoms: C_12  and  N_13 
ROOT
HETATM    1  C   UNL     1     -41.169 -49.045  10.927  1.00  0.00     0.164 C 
ENDROOT
BRANCH   1   2
HETATM    2  C   UNL     1     -42.030 -47.998  10.187  1.00  0.00     0.302 C 
BRANCH   2   3
HETATM    3  N   UNL     1     -41.347 -46.710  10.257  1.00  0.00     0.088 N 
HETATM    4  H   UNL     1     -40.766 -46.678  11.104  1.00  0.00     0.316 HD
BRANCH   3   5
HETATM    5  C   UNL     1     -42.252 -45.559  10.264  1.00  0.00     0.303 C 
BRANCH   5   6
HETATM    6  C   UNL     1     -41.789 -44.568  11.352  1.00  0.00     0.177 C 
HETATM    7  O   UNL     1     -41.156 -43.439  10.712  1.00  0.00    -0.381 OA
HETATM    8  C   UNL     1     -40.736 -42.480  11.692  1.00  0.00     0.198 C 
HETATM    9  C   UNL     1     -39.766 -43.105  12.710  1.00  0.00     0.298 C 
HETATM   10  N   UNL     1     -40.276 -44.327  13.368  1.00  0.00     0.088 N 
HETATM   11  C   UNL     1     -41.289 -44.015  14.375  1.00  0.00     0.310 C 
HETATM   12  C   UNL     1     -40.800 -45.240  12.328  1.00  0.00     0.305 C 
ENDBRANCH   5   6
ENDBRANCH   3   5
ENDBRANCH   2   3
ENDBRANCH   1   2
BRANCH   1  13
HETATM   13  O   UNL     1     -39.855 -48.509  11.140  1.00  0.00    -0.392 OA
HETATM   14  H   UNL     1     -39.427 -48.989  11.869  1.00  0.00     0.210 HD
ENDBRANCH   1  13
BRANCH   1  15
HETATM   15  C   UNL     1     -41.817 -49.456  12.254  1.00  0.00     0.163 C 
BRANCH  15  16
HETATM   16  N   UNL     1     -41.993 -50.892  12.386  1.00  0.00    -0.339 N 
HETATM   17  C   UNL     1     -41.117 -51.838  11.927  1.00  0.00     0.184 A 
HETATM   18  N   UNL     1     -41.573 -53.055  12.107  1.00  0.00    -0.350 N 
HETATM   19  C   UNL     1     -42.797 -52.891  12.706  1.00  0.00     0.060 A 
ATOM     20  HN  UNL     1     -41.117 -53.932  11.856  1.00  0.00     0.166 HD
HETATM   21  C   UNL     1     -43.727 -53.862  13.100  1.00  0.00     0.039 A 
HETATM   22  C   UNL     1     -43.086 -51.545  12.905  1.00  0.00     0.062 A 
HETATM   23  C   UNL     1     -44.953 -53.469  13.674  1.00  0.00    -0.054 A 
HETATM   24  C   UNL     1     -45.941 -54.542  14.043  1.00  0.00     0.049 C 
HETATM   25  C   UNL     1     -45.226 -52.099  13.871  1.00  0.00    -0.054 A 
HETATM   26  C   UNL     1     -46.526 -51.605  14.454  1.00  0.00     0.049 C 
HETATM   27  C   UNL     1     -44.282 -51.119  13.495  1.00  0.00     0.039 A 
ENDBRANCH  15  16
ENDBRANCH   1  15
TORSDOF 7
ENDMDL
MODEL 6
REMARK VINA RESULT:      -6.1      1.567      2.494
REMARK  7 active torsions:
REMARK  status: ('A' for Active; 'I' for Inactive)
REMARK    1  A    between atoms: C_6  and  C_7 
REMARK    2  A    between atoms: C_7  and  N_8 
REMARK    3  A    between atoms: N_8  and  C_9 
REMARK    4  A    between atoms: C_9  and  C_10 
REMARK    5  A    between atoms: C_10  and  O_11 
REMARK    6  A    between atoms: C_10  and  C_12 
REMARK    7  A    between atoms: C_12  and  N_13 
ROOT
HETATM    1  C   UNL     1     -41.142 -52.812  12.238  1.00  0.00     0.164 C 
ENDROOT
BRANCH   1   2
HETATM    2  C   UNL     1     -40.331 -51.523  12.495  1.00  0.00     0.302 C 
BRANCH   2   3
HETATM    3  N   UNL     1     -40.518 -50.627  11.357  1.00  0.00     0.088 N 
HETATM    4  H   UNL     1     -40.161 -51.080  10.507  1.00  0.00     0.316 HD
BRANCH   3   5
HETATM    5  C   UNL     1     -39.861 -49.328  11.511  1.00  0.00     0.303 C 
BRANCH   5   6
HETATM    6  C   UNL     1     -40.757 -48.239  10.885  1.00  0.00     0.177 C 
HETATM    7  O   UNL     1     -40.377 -46.957  11.429  1.00  0.00    -0.381 OA
HETATM    8  C   UNL     1     -41.170 -45.913  10.849  1.00  0.00     0.198 C 
HETATM    9  C   UNL     1     -42.672 -46.150  11.089  1.00  0.00     0.298 C 
HETATM   10  N   UNL     1     -43.159 -47.475  10.649  1.00  0.00     0.088 N 
HETATM   11  C   UNL     1     -43.279 -47.550   9.194  1.00  0.00     0.310 C 
HETATM   12  C   UNL     1     -42.247 -48.513  11.179  1.00  0.00     0.305 C 
ENDBRANCH   5   6
ENDBRANCH   3   5
ENDBRANCH   2   3
ENDBRANCH   1   2
BRANCH   1  13
HETATM   13  O   UNL     1     -40.549 -53.531  11.146  1.00  0.00    -0.392 OA
HETATM   14  H   UNL     1     -41.136 -54.262  10.888  1.00  0.00     0.210 HD
ENDBRANCH   1  13
BRANCH   1  15
HETATM   15  C   UNL     1     -41.210 -53.683  13.497  1.00  0.00     0.163 C 
BRANCH  15  16
HETATM   16  N   UNL     1     -41.983 -53.081  14.570  1.00  0.00    -0.339 N 
HETATM   17  C   UNL     1     -41.551 -52.931  15.861  1.00  0.00     0.184 A 
HETATM   18  N   UNL     1     -42.488 -52.436  16.635  1.00  0.00    -0.350 N 
HETATM   19  C   UNL     1     -43.572 -52.259  15.813  1.00  0.00     0.060 A 
ATOM     20  HN  UNL     1     -42.424 -52.227  17.631  1.00  0.00     0.166 HD
HETATM   21  C   UNL     1     -44.852 -51.780  16.124  1.00  0.00     0.039 A 
HETATM   22  C   UNL     1     -43.285 -52.646  14.508  1.00  0.00     0.062 A 
HETATM   23  C   UNL     1     -45.839 -51.710  15.121  1.00  0.00    -0.054 A 
HETATM   24  C   UNL     1     -47.212 -51.230  15.507  1.00  0.00     0.049 C 
HETATM   25  C   UNL     1     -45.527 -52.103  13.802  1.00  0.00    -0.054 A 
HETATM   26  C   UNL     1     -46.541 -52.081  12.686  1.00  0.00     0.049 C 
HETATM   27  C   UNL     1     -44.233 -52.566  13.481  1.00  0.00     0.039 A 
ENDBRANCH  15  16
ENDBRANCH   1  15
TORSDOF 7
ENDMDL
MODEL 7
REMARK VINA RESULT:      -6.1      2.740      4.423
REMARK  7 active torsions:
REMARK  status: ('A' for Active; 'I' for Inactive)
REMARK    1  A    between atoms: C_6  and  C_7 
REMARK    2  A    between atoms: C_7  and  N_8 
REMARK    3  A    between atoms: N_8  and  C_9 
REMARK    4  A    between atoms: C_9  and  C_10 
REMARK    5  A    between atoms: C_10  and  O_11 
REMARK    6  A    between atoms: C_10  and  C_12 
REMARK    7  A    between atoms: C_12  and  N_13 
ROOT
HETATM    1  C   UNL     1     -41.840 -52.395  11.982  1.00  0.00     0.164 C 
ENDROOT
BRANCH   1   2
HETATM    2  C   UNL     1     -41.158 -51.012  12.066  1.00  0.00     0.302 C 
BRANCH   2   3
HETATM    3  N   UNL     1     -39.714 -51.205  11.988  1.00  0.00     0.088 N 
HETATM    4  H   UNL     1     -39.509 -52.210  11.916  1.00  0.00     0.316 HD
BRANCH   3   5
HETATM    5  C   UNL     1     -38.980 -50.657  13.130  1.00  0.00     0.303 C 
BRANCH   5   6
HETATM    6  C   UNL     1     -38.750 -51.781  14.162  1.00  0.00     0.177 C 
HETATM    7  O   UNL     1     -39.028 -53.050  13.534  1.00  0.00    -0.381 OA
HETATM    8  C   UNL     1     -38.798 -54.124  14.456  1.00  0.00     0.198 C 
HETATM    9  C   UNL     1     -39.665 -53.975  15.719  1.00  0.00     0.298 C 
HETATM   10  N   UNL     1     -39.529 -52.670  16.401  1.00  0.00     0.088 N 
HETATM   11  C   UNL     1     -38.267 -52.573  17.134  1.00  0.00     0.310 C 
HETATM   12  C   UNL     1     -39.662 -51.594  15.393  1.00  0.00     0.305 C 
ENDBRANCH   5   6
ENDBRANCH   3   5
ENDBRANCH   2   3
ENDBRANCH   1   2
BRANCH   1  13
HETATM   13  O   UNL     1     -40.906 -53.349  11.453  1.00  0.00    -0.392 OA
HETATM   14  H   UNL     1     -41.379 -54.168  11.226  1.00  0.00     0.210 HD
ENDBRANCH   1  13
BRANCH   1  15
HETATM   15  C   UNL     1     -42.364 -52.839  13.351  1.00  0.00     0.163 C 
BRANCH  15  16
HETATM   16  N   UNL     1     -43.814 -52.856  13.435  1.00  0.00    -0.339 N 
HETATM   17  C   UNL     1     -44.651 -53.331  12.461  1.00  0.00     0.184 A 
HETATM   18  N   UNL     1     -45.913 -53.143  12.768  1.00  0.00    -0.350 N 
HETATM   19  C   UNL     1     -45.893 -52.518  13.990  1.00  0.00     0.060 A 
ATOM     20  HN  UNL     1     -46.731 -53.403  12.218  1.00  0.00     0.166 HD
HETATM   21  C   UNL     1     -46.964 -52.066  14.772  1.00  0.00     0.039 A 
HETATM   22  C   UNL     1     -44.590 -52.333  14.441  1.00  0.00     0.062 A 
HETATM   23  C   UNL     1     -46.715 -51.413  15.995  1.00  0.00    -0.054 A 
HETATM   24  C   UNL     1     -47.892 -50.906  16.783  1.00  0.00     0.049 C 
HETATM   25  C   UNL     1     -45.386 -51.238  16.438  1.00  0.00    -0.054 A 
HETATM   26  C   UNL     1     -45.045 -50.525  17.722  1.00  0.00     0.049 C 
HETATM   27  C   UNL     1     -44.306 -51.711  15.663  1.00  0.00     0.039 A 
ENDBRANCH  15  16
ENDBRANCH   1  15
TORSDOF 7
ENDMDL
MODEL 8
REMARK VINA RESULT:      -6.0      2.393      2.811
REMARK  7 active torsions:
REMARK  status: ('A' for Active; 'I' for Inactive)
REMARK    1  A    between atoms: C_6  and  C_7 
REMARK    2  A    between atoms: C_7  and  N_8 
REMARK    3  A    between atoms: N_8  and  C_9 
REMARK    4  A    between atoms: C_9  and  C_10 
REMARK    5  A    between atoms: C_10  and  O_11 
REMARK    6  A    between atoms: C_10  and  C_12 
REMARK    7  A    between atoms: C_12  and  N_13 
ROOT
HETATM    1  C   UNL     1     -40.868 -50.893  12.251  1.00  0.00     0.164 C 
ENDROOT
BRANCH   1   2
HETATM    2  C   UNL     1     -39.513 -50.200  11.984  1.00  0.00     0.302 C 
BRANCH   2   3
HETATM    3  N   UNL     1     -39.743 -49.069  11.091  1.00  0.00     0.088 N 
HETATM    4  H   UNL     1     -39.126 -49.151  10.273  1.00  0.00     0.316 HD
BRANCH   3   5
HETATM    5  C   UNL     1     -39.522 -47.765  11.718  1.00  0.00     0.303 C 
BRANCH   5   6
HETATM    6  C   UNL     1     -40.832 -46.951  11.650  1.00  0.00     0.177 C 
HETATM    7  O   UNL     1     -41.708 -47.563  10.680  1.00  0.00    -0.381 OA
HETATM    8  C   UNL     1     -42.950 -46.850  10.609  1.00  0.00     0.198 C 
HETATM    9  C   UNL     1     -42.728 -45.372  10.241  1.00  0.00     0.298 C 
HETATM   10  N   UNL     1     -41.774 -44.661  11.119  1.00  0.00     0.088 N 
HETATM   11  C   UNL     1     -42.365 -44.353  12.421  1.00  0.00     0.310 C 
HETATM   12  C   UNL     1     -40.551 -45.486  11.253  1.00  0.00     0.305 C 
ENDBRANCH   5   6
ENDBRANCH   3   5
ENDBRANCH   2   3
ENDBRANCH   1   2
BRANCH   1  13
HETATM   13  O   UNL     1     -41.885 -50.257  11.461  1.00  0.00    -0.392 OA
HETATM   14  H   UNL     1     -41.525 -49.442  11.072  1.00  0.00     0.210 HD
ENDBRANCH   1  13
BRANCH   1  15
HETATM   15  C   UNL     1     -40.793 -52.392  11.947  1.00  0.00     0.163 C 
BRANCH  15  16
HETATM   16  N   UNL     1     -41.420 -53.217  12.965  1.00  0.00    -0.339 N 
HETATM   17  C   UNL     1     -40.759 -54.086  13.790  1.00  0.00     0.184 A 
HETATM   18  N   UNL     1     -41.587 -54.763  14.551  1.00  0.00    -0.350 N 
HETATM   19  C   UNL     1     -42.837 -54.315  14.204  1.00  0.00     0.060 A 
ATOM     20  HN  UNL     1     -41.352 -55.468  15.249  1.00  0.00     0.166 HD
HETATM   21  C   UNL     1     -44.089 -54.716  14.689  1.00  0.00     0.039 A 
HETATM   22  C   UNL     1     -42.766 -53.337  13.217  1.00  0.00     0.062 A 
HETATM   23  C   UNL     1     -45.263 -54.142  14.163  1.00  0.00    -0.054 A 
HETATM   24  C   UNL     1     -46.588 -54.632  14.682  1.00  0.00     0.049 C 
HETATM   25  C   UNL     1     -45.171 -53.147  13.166  1.00  0.00    -0.054 A 
HETATM   26  C   UNL     1     -46.385 -52.510  12.539  1.00  0.00     0.049 C 
HETATM   27  C   UNL     1     -43.911 -52.726  12.690  1.00  0.00     0.039 A 
ENDBRANCH  15  16
ENDBRANCH   1  15
TORSDOF 7
ENDMDL
MODEL 9
REMARK VINA RESULT:      -5.8      2.213      7.305
REMARK  7 active torsions:
REMARK  status: ('A' for Active; 'I' for Inactive)
REMARK    1  A    between atoms: C_6  and  C_7 
REMARK    2  A    between atoms: C_7  and  N_8 
REMARK    3  A    between atoms: N_8  and  C_9 
REMARK    4  A    between atoms: C_9  and  C_10 
REMARK    5  A    between atoms: C_10  and  O_11 
REMARK    6  A    between atoms: C_10  and  C_12 
REMARK    7  A    between atoms: C_12  and  N_13 
ROOT
HETATM    1  C   UNL     1     -40.908 -52.960  12.725  1.00  0.00     0.164 C 
ENDROOT
BRANCH   1   2
HETATM    2  C   UNL     1     -41.991 -53.381  13.743  1.00  0.00     0.302 C 
BRANCH   2   3
HETATM    3  N   UNL     1     -41.795 -52.611  14.967  1.00  0.00     0.088 N 
HETATM    4  H   UNL     1     -41.558 -53.251  15.737  1.00  0.00     0.316 HD
BRANCH   3   5
HETATM    5  C   UNL     1     -42.960 -51.815  15.359  1.00  0.00     0.303 C 
BRANCH   5   6
HETATM    6  C   UNL     1     -44.224 -52.436  14.729  1.00  0.00     0.177 C 
HETATM    7  O   UNL     1     -45.169 -51.381  14.449  1.00  0.00    -0.381 OA
HETATM    8  C   UNL     1     -46.348 -51.917  13.835  1.00  0.00     0.198 C 
HETATM    9  C   UNL     1     -47.013 -52.980  14.728  1.00  0.00     0.298 C 
HETATM   10  N   UNL     1     -46.110 -54.071  15.153  1.00  0.00     0.088 N 
HETATM   11  C   UNL     1     -45.846 -55.009  14.062  1.00  0.00     0.310 C 
HETATM   12  C   UNL     1     -44.861 -53.474  15.677  1.00  0.00     0.305 C 
ENDBRANCH   5   6
ENDBRANCH   3   5
ENDBRANCH   2   3
ENDBRANCH   1   2
BRANCH   1  13
HETATM   13  O   UNL     1     -40.598 -54.078  11.878  1.00  0.00    -0.392 OA
HETATM   14  H   UNL     1     -39.681 -53.998  11.565  1.00  0.00     0.210 HD
ENDBRANCH   1  13
BRANCH   1  15
HETATM   15  C   UNL     1     -41.366 -51.754  11.898  1.00  0.00     0.163 C 
BRANCH  15  16
HETATM   16  N   UNL     1     -40.469 -50.616  11.998  1.00  0.00    -0.339 N 
HETATM   17  C   UNL     1     -39.268 -50.616  12.657  1.00  0.00     0.184 A 
HETATM   18  N   UNL     1     -38.712 -49.428  12.658  1.00  0.00    -0.350 N 
HETATM   19  C   UNL     1     -39.588 -48.623  11.974  1.00  0.00     0.060 A 
ATOM     20  HN  UNL     1     -37.822 -49.160  13.077  1.00  0.00     0.166 HD
HETATM   21  C   UNL     1     -39.502 -47.252  11.698  1.00  0.00     0.039 A 
HETATM   22  C   UNL     1     -40.698 -49.341  11.538  1.00  0.00     0.062 A 
HETATM   23  C   UNL     1     -40.544 -46.609  11.000  1.00  0.00    -0.054 A 
HETATM   24  C   UNL     1     -40.431 -45.127  10.762  1.00  0.00     0.049 C 
HETATM   25  C   UNL     1     -41.659 -47.355  10.561  1.00  0.00    -0.054 A 
HETATM   26  C   UNL     1     -42.821 -46.728   9.835  1.00  0.00     0.049 C 
HETATM   27  C   UNL     1     -41.738 -48.741  10.820  1.00  0.00     0.039 A 
ENDBRANCH  15  16
ENDBRANCH   1  15
TORSDOF 7
ENDMDL
