MODEL 1
REMARK VINA RESULT:      -6.1      0.000      0.000
REMARK  8 active torsions:
REMARK  status: ('A' for Active; 'I' for Inactive)
REMARK    1  A    between atoms: N_6  and  C_7 
REMARK    2  A    between atoms: C_7  and  C_8 
REMARK    3  A    between atoms: C_8  and  N_9 
REMARK    4  A    between atoms: N_9  and  C_10 
REMARK    5  A    between atoms: C_10  and  C_11 
REMARK    6  A    between atoms: C_11  and  O_12 
REMARK    7  A    between atoms: C_11  and  C_13 
REMARK    8  A    between atoms: C_13  and  N_14 
ROOT
HETATM    1  N   UNL     1     -42.124 -50.040  11.753  1.00  0.00     0.087 N 
HETATM    2  H   UNL     1     -42.824 -50.417  11.117  1.00  0.00     0.316 HD
ENDROOT
BRANCH   1   3
HETATM    3  C   UNL     1     -41.160 -49.236  10.984  1.00  0.00     0.291 C 
BRANCH   3   4
HETATM    4  C   UNL     1     -41.595 -47.785  10.764  1.00  0.00     0.178 C 
BRANCH   4   5
HETATM    5  N   UNL     1     -42.773 -47.708   9.930  1.00  0.00    -0.302 N 
HETATM    6  N   UNL     1     -42.675 -47.932   8.611  1.00  0.00    -0.310 N 
HETATM    7  C   UNL     1     -43.925 -47.770   8.170  1.00  0.00     0.115 A 
ATOM      8  HN  UNL     1     -41.842 -48.168   8.072  1.00  0.00     0.186 HD
HETATM    9  C   UNL     1     -44.826 -47.437   9.208  1.00  0.00    -0.028 A 
HETATM   10  C   UNL     1     -46.279 -47.184   9.115  1.00  0.00     0.051 C 
HETATM   11  C   UNL     1     -44.038 -47.402  10.338  1.00  0.00     0.118 A 
ENDBRANCH   4   5
ENDBRANCH   3   4
ENDBRANCH   1   3
BRANCH   1  12
HETATM   12  C   UNL     1     -41.464 -51.115  12.507  1.00  0.00     0.302 C 
BRANCH  12  13
HETATM   13  C   UNL     1     -41.786 -52.523  11.976  1.00  0.00     0.174 C 
BRANCH  13  14
HETATM   14  O   UNL     1     -40.591 -53.119  11.461  1.00  0.00    -0.392 OA
HETATM   15  H   UNL     1     -40.127 -53.496  12.230  1.00  0.00     0.210 HD
ENDBRANCH  13  14
BRANCH  13  16
HETATM   16  C   UNL     1     -42.456 -53.435  13.043  1.00  0.00     0.305 C 
BRANCH  16  17
HETATM   17  N   UNL     1     -43.714 -52.877  13.579  1.00  0.00     0.095 N 
HETATM   18  C   UNL     1     -43.784 -52.888  15.052  1.00  0.00     0.298 C 
HETATM   19  C   UNL     1     -44.004 -54.293  15.626  1.00  0.00     0.198 C 
HETATM   20  O   UNL     1     -45.241 -54.835  15.149  1.00  0.00    -0.388 OA
HETATM   21  C   UNL     1     -45.251 -54.908  13.718  1.00  0.00     0.198 C 
HETATM   22  C   UNL     1     -44.911 -53.562  13.046  1.00  0.00     0.298 C 
ENDBRANCH  16  17
ENDBRANCH  13  16
ENDBRANCH  12  13
ENDBRANCH   1  12
TORSDOF 8
ENDMDL
MODEL 2
REMARK VINA RESULT:      -5.3      3.280      6.948
REMARK  8 active torsions:
REMARK  status: ('A' for Active; 'I' for Inactive)
REMARK    1  A    between atoms: N_6  and  C_7 
REMARK    2  A    between atoms: C_7  and  C_8 
REMARK    3  A    between atoms: C_8  and  N_9 
REMARK    4  A    between atoms: N_9  and  C_10 
REMARK    5  A    between atoms: C_10  and  C_11 
REMARK    6  A    between atoms: C_11  and  O_12 
REMARK    7  A    between atoms: C_11  and  C_13 
REMARK    8  A    between atoms: C_13  and  N_14 
ROOT
HETATM    1  N   UNL     1     -42.032 -51.692  11.694  1.00  0.00     0.087 N 
HETATM    2  H   UNL     1     -42.858 -51.476  11.139  1.00  0.00     0.316 HD
ENDROOT
BRANCH   1   3
HETATM    3  C   UNL     1     -42.394 -52.671  12.732  1.00  0.00     0.291 C 
BRANCH   3   4
HETATM    4  C   UNL     1     -43.691 -53.431  12.447  1.00  0.00     0.178 C 
BRANCH   4   5
HETATM    5  N   UNL     1     -44.842 -52.719  12.955  1.00  0.00    -0.302 N 
HETATM    6  N   UNL     1     -45.683 -52.112  12.104  1.00  0.00    -0.310 N 
HETATM    7  C   UNL     1     -46.599 -51.562  12.905  1.00  0.00     0.115 A 
ATOM      8  HN  UNL     1     -45.634 -52.078  11.086  1.00  0.00     0.186 HD
HETATM    9  C   UNL     1     -46.342 -51.811  14.273  1.00  0.00    -0.028 A 
HETATM   10  C   UNL     1     -47.123 -51.373  15.447  1.00  0.00     0.051 C 
HETATM   11  C   UNL     1     -45.188 -52.564  14.265  1.00  0.00     0.118 A 
ENDBRANCH   4   5
ENDBRANCH   3   4
ENDBRANCH   1   3
BRANCH   1  12
HETATM   12  C   UNL     1     -41.450 -50.471  12.269  1.00  0.00     0.302 C 
BRANCH  12  13
HETATM   13  C   UNL     1     -40.197 -49.979  11.523  1.00  0.00     0.174 C 
BRANCH  13  14
HETATM   14  O   UNL     1     -40.412 -50.091  10.112  1.00  0.00    -0.392 OA
HETATM   15  H   UNL     1     -40.002 -49.302   9.715  1.00  0.00     0.210 HD
ENDBRANCH  13  14
BRANCH  13  16
HETATM   16  C   UNL     1     -39.787 -48.531  11.917  1.00  0.00     0.305 C 
BRANCH  16  17
HETATM   17  N   UNL     1     -40.924 -47.590  11.946  1.00  0.00     0.095 N 
HETATM   18  C   UNL     1     -41.012 -46.733  10.749  1.00  0.00     0.298 C 
HETATM   19  C   UNL     1     -39.934 -45.642  10.720  1.00  0.00     0.198 C 
HETATM   20  O   UNL     1     -40.071 -44.781  11.856  1.00  0.00    -0.388 OA
HETATM   21  C   UNL     1     -39.953 -45.521  13.078  1.00  0.00     0.198 C 
HETATM   22  C   UNL     1     -40.915 -46.725  13.145  1.00  0.00     0.298 C 
ENDBRANCH  16  17
ENDBRANCH  13  16
ENDBRANCH  12  13
ENDBRANCH   1  12
TORSDOF 8
ENDMDL
MODEL 3
REMARK VINA RESULT:      -5.3      3.271      6.471
REMARK  8 active torsions:
REMARK  status: ('A' for Active; 'I' for Inactive)
REMARK    1  A    between atoms: N_6  and  C_7 
REMARK    2  A    between atoms: C_7  and  C_8 
REMARK    3  A    between atoms: C_8  and  N_9 
REMARK    4  A    between atoms: N_9  and  C_10 
REMARK    5  A    between atoms: C_10  and  C_11 
REMARK    6  A    between atoms: C_11  and  O_12 
REMARK    7  A    between atoms: C_11  and  C_13 
REMARK    8  A    between atoms: C_13  and  N_14 
ROOT
HETATM    1  N   UNL     1     -43.238 -53.094  12.051  1.00  0.00     0.087 N 
HETATM    2  H   UNL     1     -43.301 -52.096  11.857  1.00  0.00     0.316 HD
ENDROOT
BRANCH   1   3
HETATM    3  C   UNL     1     -44.563 -53.588  12.461  1.00  0.00     0.291 C 
BRANCH   3   4
HETATM    4  C   UNL     1     -45.612 -52.488  12.633  1.00  0.00     0.178 C 
BRANCH   4   5
HETATM    5  N   UNL     1     -46.076 -52.411  14.000  1.00  0.00    -0.302 N 
HETATM    6  N   UNL     1     -45.748 -53.376  14.872  1.00  0.00    -0.310 N 
HETATM    7  C   UNL     1     -46.343 -52.992  16.004  1.00  0.00     0.115 A 
ATOM      8  HN  UNL     1     -45.180 -54.207  14.709  1.00  0.00     0.186 HD
HETATM    9  C   UNL     1     -47.058 -51.780  15.856  1.00  0.00    -0.028 A 
HETATM   10  C   UNL     1     -47.836 -51.045  16.874  1.00  0.00     0.051 C 
HETATM   11  C   UNL     1     -46.864 -51.436  14.536  1.00  0.00     0.118 A 
ENDBRANCH   4   5
ENDBRANCH   3   4
ENDBRANCH   1   3
BRANCH   1  12
HETATM   12  C   UNL     1     -42.211 -53.370  13.064  1.00  0.00     0.302 C 
BRANCH  12  13
HETATM   13  C   UNL     1     -40.788 -52.996  12.613  1.00  0.00     0.174 C 
BRANCH  13  14
HETATM   14  O   UNL     1     -40.645 -53.277  11.217  1.00  0.00    -0.392 OA
HETATM   15  H   UNL     1     -39.765 -52.944  10.965  1.00  0.00     0.210 HD
ENDBRANCH  13  14
BRANCH  13  16
HETATM   16  C   UNL     1     -40.419 -51.519  12.932  1.00  0.00     0.305 C 
BRANCH  16  17
HETATM   17  N   UNL     1     -40.653 -50.602  11.798  1.00  0.00     0.095 N 
HETATM   18  C   UNL     1     -39.480 -49.776  11.456  1.00  0.00     0.298 C 
HETATM   19  C   UNL     1     -39.220 -48.663  12.478  1.00  0.00     0.198 C 
HETATM   20  O   UNL     1     -40.343 -47.778  12.545  1.00  0.00    -0.388 OA
HETATM   21  C   UNL     1     -41.532 -48.486  12.918  1.00  0.00     0.198 C 
HETATM   22  C   UNL     1     -41.810 -49.709  12.020  1.00  0.00     0.298 C 
ENDBRANCH  16  17
ENDBRANCH  13  16
ENDBRANCH  12  13
ENDBRANCH   1  12
TORSDOF 8
ENDMDL
MODEL 4
REMARK VINA RESULT:      -5.3      2.874      6.930
REMARK  8 active torsions:
REMARK  status: ('A' for Active; 'I' for Inactive)
REMARK    1  A    between atoms: N_6  and  C_7 
REMARK    2  A    between atoms: C_7  and  C_8 
REMARK    3  A    between atoms: C_8  and  N_9 
REMARK    4  A    between atoms: N_9  and  C_10 
REMARK    5  A    between atoms: C_10  and  C_11 
REMARK    6  A    between atoms: C_11  and  O_12 
REMARK    7  A    between atoms: C_11  and  C_13 
REMARK    8  A    between atoms: C_13  and  N_14 
ROOT
HETATM    1  N   UNL     1     -40.587 -50.576  11.141  1.00  0.00     0.087 N 
HETATM    2  H   UNL     1     -40.984 -51.024  10.317  1.00  0.00     0.316 HD
ENDROOT
BRANCH   1   3
HETATM    3  C   UNL     1     -41.165 -51.191  12.347  1.00  0.00     0.291 C 
BRANCH   3   4
HETATM    4  C   UNL     1     -41.754 -52.583  12.115  1.00  0.00     0.178 C 
BRANCH   4   5
HETATM    5  N   UNL     1     -43.136 -52.648  12.536  1.00  0.00    -0.302 N 
HETATM    6  N   UNL     1     -43.861 -53.749  12.286  1.00  0.00    -0.310 N 
HETATM    7  C   UNL     1     -45.061 -53.458  12.794  1.00  0.00     0.115 A 
ATOM      8  HN  UNL     1     -43.565 -54.606  11.819  1.00  0.00     0.186 HD
HETATM    9  C   UNL     1     -45.108 -52.165  13.365  1.00  0.00    -0.028 A 
HETATM   10  C   UNL     1     -46.249 -51.493  14.019  1.00  0.00     0.051 C 
HETATM   11  C   UNL     1     -43.837 -51.667  13.174  1.00  0.00     0.118 A 
ENDBRANCH   4   5
ENDBRANCH   3   4
ENDBRANCH   1   3
BRANCH   1  12
HETATM   12  C   UNL     1     -40.803 -49.123  11.107  1.00  0.00     0.302 C 
BRANCH  12  13
HETATM   13  C   UNL     1     -42.012 -48.663  11.941  1.00  0.00     0.174 C 
BRANCH  13  14
HETATM   14  O   UNL     1     -41.550 -47.916  13.071  1.00  0.00    -0.392 OA
HETATM   15  H   UNL     1     -42.080 -48.221  13.829  1.00  0.00     0.210 HD
ENDBRANCH  13  14
BRANCH  13  16
HETATM   16  C   UNL     1     -43.046 -47.851  11.112  1.00  0.00     0.305 C 
BRANCH  16  17
HETATM   17  N   UNL     1     -42.475 -47.257   9.886  1.00  0.00     0.095 N 
HETATM   18  C   UNL     1     -41.881 -45.924  10.097  1.00  0.00     0.298 C 
HETATM   19  C   UNL     1     -42.936 -44.829  10.297  1.00  0.00     0.198 C 
HETATM   20  O   UNL     1     -43.773 -44.731   9.140  1.00  0.00    -0.388 OA
HETATM   21  C   UNL     1     -44.435 -45.975   8.878  1.00  0.00     0.198 C 
HETATM   22  C   UNL     1     -43.460 -47.166   8.787  1.00  0.00     0.298 C 
ENDBRANCH  16  17
ENDBRANCH  13  16
ENDBRANCH  12  13
ENDBRANCH   1  12
TORSDOF 8
ENDMDL
MODEL 5
REMARK VINA RESULT:      -5.3      2.398      3.081
REMARK  8 active torsions:
REMARK  status: ('A' for Active; 'I' for Inactive)
REMARK    1  A    between atoms: N_6  and  C_7 
REMARK    2  A    between atoms: C_7  and  C_8 
REMARK    3  A    between atoms: C_8  and  N_9 
REMARK    4  A    between atoms: N_9  and  C_10 
REMARK    5  A    between atoms: C_10  and  C_11 
REMARK    6  A    between atoms: C_11  and  O_12 
REMARK    7  A    between atoms: C_11  and  C_13 
REMARK    8  A    between atoms: C_13  and  N_14 
ROOT
HETATM    1  N   UNL     1     -39.759 -51.338  14.029  1.00  0.00     0.087 N 
HETATM    2  H   UNL     1     -40.529 -50.754  13.708  1.00  0.00     0.316 HD
ENDROOT
BRANCH   1   3
HETATM    3  C   UNL     1     -38.492 -50.773  13.537  1.00  0.00     0.291 C 
BRANCH   3   4
HETATM    4  C   UNL     1     -38.462 -50.529  12.027  1.00  0.00     0.178 C 
BRANCH   4   5
HETATM    5  N   UNL     1     -39.455 -49.556  11.631  1.00  0.00    -0.302 N 
HETATM    6  N   UNL     1     -40.416 -49.898  10.758  1.00  0.00    -0.310 N 
HETATM    7  C   UNL     1     -41.129 -48.777  10.621  1.00  0.00     0.115 A 
ATOM      8  HN  UNL     1     -40.565 -50.800  10.307  1.00  0.00     0.186 HD
HETATM    9  C   UNL     1     -40.622 -47.713  11.402  1.00  0.00    -0.028 A 
HETATM   10  C   UNL     1     -41.136 -46.333  11.515  1.00  0.00     0.051 C 
HETATM   11  C   UNL     1     -39.530 -48.258  12.042  1.00  0.00     0.118 A 
ENDBRANCH   4   5
ENDBRANCH   3   4
ENDBRANCH   1   3
BRANCH   1  12
HETATM   12  C   UNL     1     -39.941 -52.732  13.602  1.00  0.00     0.302 C 
BRANCH  12  13
HETATM   13  C   UNL     1     -41.116 -52.927  12.627  1.00  0.00     0.174 C 
BRANCH  13  14
HETATM   14  O   UNL     1     -40.618 -53.415  11.378  1.00  0.00    -0.392 OA
HETATM   15  H   UNL     1     -40.812 -52.720  10.722  1.00  0.00     0.210 HD
ENDBRANCH  13  14
BRANCH  13  16
HETATM   16  C   UNL     1     -42.226 -53.857  13.194  1.00  0.00     0.305 C 
BRANCH  16  17
HETATM   17  N   UNL     1     -43.470 -53.140  13.536  1.00  0.00     0.095 N 
HETATM   18  C   UNL     1     -43.666 -52.956  14.986  1.00  0.00     0.298 C 
HETATM   19  C   UNL     1     -44.059 -54.255  15.702  1.00  0.00     0.198 C 
HETATM   20  O   UNL     1     -45.293 -54.755  15.178  1.00  0.00    -0.388 OA
HETATM   21  C   UNL     1     -45.188 -55.010  13.772  1.00  0.00     0.198 C 
HETATM   22  C   UNL     1     -44.673 -53.792  12.978  1.00  0.00     0.298 C 
ENDBRANCH  16  17
ENDBRANCH  13  16
ENDBRANCH  12  13
ENDBRANCH   1  12
TORSDOF 8
ENDMDL
MODEL 6
REMARK VINA RESULT:      -5.2      3.988      6.317
REMARK  8 active torsions:
REMARK  status: ('A' for Active; 'I' for Inactive)
REMARK    1  A    between atoms: N_6  and  C_7 
REMARK    2  A    between atoms: C_7  and  C_8 
REMARK    3  A    between atoms: C_8  and  N_9 
REMARK    4  A    between atoms: N_9  and  C_10 
REMARK    5  A    between atoms: C_10  and  C_11 
REMARK    6  A    between atoms: C_11  and  O_12 
REMARK    7  A    between atoms: C_11  and  C_13 
REMARK    8  A    between atoms: C_13  and  N_14 
ROOT
HETATM    1  N   UNL     1     -41.946 -53.674  14.506  1.00  0.00     0.087 N 
HETATM    2  H   UNL     1     -41.875 -53.739  15.520  1.00  0.00     0.316 HD
ENDROOT
BRANCH   1   3
HETATM    3  C   UNL     1     -43.102 -54.466  14.054  1.00  0.00     0.291 C 
BRANCH   3   4
HETATM    4  C   UNL     1     -43.821 -53.879  12.838  1.00  0.00     0.178 C 
BRANCH   4   5
HETATM    5  N   UNL     1     -44.907 -53.011  13.236  1.00  0.00    -0.302 N 
HETATM    6  N   UNL     1     -45.569 -52.299  12.311  1.00  0.00    -0.310 N 
HETATM    7  C   UNL     1     -46.473 -51.622  13.022  1.00  0.00     0.115 A 
ATOM      8  HN  UNL     1     -45.416 -52.281  11.303  1.00  0.00     0.186 HD
HETATM    9  C   UNL     1     -46.388 -51.895  14.407  1.00  0.00    -0.028 A 
HETATM   10  C   UNL     1     -47.212 -51.344  15.503  1.00  0.00     0.051 C 
HETATM   11  C   UNL     1     -45.354 -52.800  14.508  1.00  0.00     0.118 A 
ENDBRANCH   4   5
ENDBRANCH   3   4
ENDBRANCH   1   3
BRANCH   1  12
HETATM   12  C   UNL     1     -40.698 -54.108  13.862  1.00  0.00     0.302 C 
BRANCH  12  13
HETATM   13  C   UNL     1     -40.140 -53.086  12.855  1.00  0.00     0.174 C 
BRANCH  13  14
HETATM   14  O   UNL     1     -40.573 -53.438  11.537  1.00  0.00    -0.392 OA
HETATM   15  H   UNL     1     -39.796 -53.323  10.961  1.00  0.00     0.210 HD
ENDBRANCH  13  14
BRANCH  13  16
HETATM   16  C   UNL     1     -40.526 -51.620  13.202  1.00  0.00     0.305 C 
BRANCH  16  17
HETATM   17  N   UNL     1     -39.455 -50.886  13.905  1.00  0.00     0.095 N 
HETATM   18  C   UNL     1     -39.574 -49.420  13.797  1.00  0.00     0.298 C 
HETATM   19  C   UNL     1     -39.205 -48.896  12.404  1.00  0.00     0.198 C 
HETATM   20  O   UNL     1     -37.846 -49.224  12.095  1.00  0.00    -0.388 OA
HETATM   21  C   UNL     1     -37.640 -50.642  12.130  1.00  0.00     0.198 C 
HETATM   22  C   UNL     1     -38.104 -51.283  13.453  1.00  0.00     0.298 C 
ENDBRANCH  16  17
ENDBRANCH  13  16
ENDBRANCH  12  13
ENDBRANCH   1  12
TORSDOF 8
ENDMDL
MODEL 7
REMARK VINA RESULT:      -5.1      3.002      6.771
REMARK  8 active torsions:
REMARK  status: ('A' for Active; 'I' for Inactive)
REMARK    1  A    between atoms: N_6  and  C_7 
REMARK    2  A    between atoms: C_7  and  C_8 
REMARK    3  A    between atoms: C_8  and  N_9 
REMARK    4  A    between atoms: N_9  and  C_10 
REMARK    5  A    between atoms: C_10  and  C_11 
REMARK    6  A    between atoms: C_11  and  O_12 
REMARK    7  A    between atoms: C_11  and  C_13 
REMARK    8  A    between atoms: C_13  and  N_14 
ROOT
HETATM    1  N   UNL     1     -40.502 -50.420  13.084  1.00  0.00     0.087 N 
HETATM    2  H   UNL     1     -39.582 -50.307  13.506  1.00  0.00     0.316 HD
ENDROOT
BRANCH   1   3
HETATM    3  C   UNL     1     -40.955 -51.806  13.283  1.00  0.00     0.291 C 
BRANCH   3   4
HETATM    4  C   UNL     1     -41.823 -52.348  12.146  1.00  0.00     0.178 C 
BRANCH   4   5
HETATM    5  N   UNL     1     -43.205 -52.474  12.552  1.00  0.00    -0.302 N 
HETATM    6  N   UNL     1     -43.883 -53.599  12.278  1.00  0.00    -0.310 N 
HETATM    7  C   UNL     1     -45.098 -53.363  12.777  1.00  0.00     0.115 A 
ATOM      8  HN  UNL     1     -43.548 -54.436  11.800  1.00  0.00     0.186 HD
HETATM    9  C   UNL     1     -45.202 -52.082  13.368  1.00  0.00    -0.028 A 
HETATM   10  C   UNL     1     -46.375 -51.466  14.021  1.00  0.00     0.051 C 
HETATM   11  C   UNL     1     -43.951 -51.532  13.198  1.00  0.00     0.118 A 
ENDBRANCH   4   5
ENDBRANCH   3   4
ENDBRANCH   1   3
BRANCH   1  12
HETATM   12  C   UNL     1     -40.477 -50.049  11.662  1.00  0.00     0.302 C 
BRANCH  12  13
HETATM   13  C   UNL     1     -40.751 -48.555  11.413  1.00  0.00     0.174 C 
BRANCH  13  14
HETATM   14  O   UNL     1     -39.519 -47.891  11.117  1.00  0.00    -0.392 OA
HETATM   15  H   UNL     1     -38.879 -48.595  10.905  1.00  0.00     0.210 HD
ENDBRANCH  13  14
BRANCH  13  16
HETATM   16  C   UNL     1     -41.806 -48.310  10.297  1.00  0.00     0.305 C 
BRANCH  16  17
HETATM   17  N   UNL     1     -43.020 -47.622  10.783  1.00  0.00     0.095 N 
HETATM   18  C   UNL     1     -43.996 -47.324   9.718  1.00  0.00     0.298 C 
HETATM   19  C   UNL     1     -43.547 -46.176   8.806  1.00  0.00     0.198 C 
HETATM   20  O   UNL     1     -43.384 -44.974   9.566  1.00  0.00    -0.388 OA
HETATM   21  C   UNL     1     -42.413 -45.152  10.605  1.00  0.00     0.198 C 
HETATM   22  C   UNL     1     -42.712 -46.369  11.504  1.00  0.00     0.298 C 
ENDBRANCH  16  17
ENDBRANCH  13  16
ENDBRANCH  12  13
ENDBRANCH   1  12
TORSDOF 8
ENDMDL
MODEL 8
REMARK VINA RESULT:      -5.1      2.004      2.790
REMARK  8 active torsions:
REMARK  status: ('A' for Active; 'I' for Inactive)
REMARK    1  A    between atoms: N_6  and  C_7 
REMARK    2  A    between atoms: C_7  and  C_8 
REMARK    3  A    between atoms: C_8  and  N_9 
REMARK    4  A    between atoms: N_9  and  C_10 
REMARK    5  A    between atoms: C_10  and  C_11 
REMARK    6  A    between atoms: C_11  and  O_12 
REMARK    7  A    between atoms: C_11  and  C_13 
REMARK    8  A    between atoms: C_13  and  N_14 
ROOT
HETATM    1  N   UNL     1     -41.655 -49.803  11.758  1.00  0.00     0.087 N 
HETATM    2  H   UNL     1     -42.588 -50.104  11.479  1.00  0.00     0.316 HD
ENDROOT
BRANCH   1   3
HETATM    3  C   UNL     1     -41.137 -48.857  10.757  1.00  0.00     0.291 C 
BRANCH   3   4
HETATM    4  C   UNL     1     -42.057 -47.664  10.491  1.00  0.00     0.178 C 
BRANCH   4   5
HETATM    5  N   UNL     1     -41.349 -46.411  10.627  1.00  0.00    -0.302 N 
HETATM    6  N   UNL     1     -40.026 -46.363  10.408  1.00  0.00    -0.310 N 
HETATM    7  C   UNL     1     -39.717 -45.083  10.628  1.00  0.00     0.115 A 
ATOM      8  HN  UNL     1     -39.404 -47.125  10.137  1.00  0.00     0.186 HD
HETATM    9  C   UNL     1     -40.842 -44.310  10.995  1.00  0.00    -0.028 A 
HETATM   10  C   UNL     1     -40.900 -42.868  11.315  1.00  0.00     0.051 C 
HETATM   11  C   UNL     1     -41.885 -45.210  10.988  1.00  0.00     0.118 A 
ENDBRANCH   4   5
ENDBRANCH   3   4
ENDBRANCH   1   3
BRANCH   1  12
HETATM   12  C   UNL     1     -40.763 -50.956  11.939  1.00  0.00     0.302 C 
BRANCH  12  13
HETATM   13  C   UNL     1     -41.485 -52.312  11.849  1.00  0.00     0.174 C 
BRANCH  13  14
HETATM   14  O   UNL     1     -40.533 -53.336  11.548  1.00  0.00    -0.392 OA
HETATM   15  H   UNL     1     -40.191 -53.131  10.659  1.00  0.00     0.210 HD
ENDBRANCH  13  14
BRANCH  13  16
HETATM   16  C   UNL     1     -42.294 -52.653  13.133  1.00  0.00     0.305 C 
BRANCH  16  17
HETATM   17  N   UNL     1     -43.742 -52.395  12.996  1.00  0.00     0.095 N 
HETATM   18  C   UNL     1     -44.363 -51.854  14.219  1.00  0.00     0.298 C 
HETATM   19  C   UNL     1     -44.518 -52.907  15.323  1.00  0.00     0.198 C 
HETATM   20  O   UNL     1     -45.356 -53.977  14.873  1.00  0.00    -0.388 OA
HETATM   21  C   UNL     1     -44.807 -54.602  13.705  1.00  0.00     0.198 C 
HETATM   22  C   UNL     1     -44.495 -53.597  12.577  1.00  0.00     0.298 C 
ENDBRANCH  16  17
ENDBRANCH  13  16
ENDBRANCH  12  13
ENDBRANCH   1  12
TORSDOF 8
ENDMDL
MODEL 9
REMARK VINA RESULT:      -5.1      2.099      3.294
REMARK  8 active torsions:
REMARK  status: ('A' for Active; 'I' for Inactive)
REMARK    1  A    between atoms: N_6  and  C_7 
REMARK    2  A    between atoms: C_7  and  C_8 
REMARK    3  A    between atoms: C_8  and  N_9 
REMARK    4  A    between atoms: N_9  and  C_10 
REMARK    5  A    between atoms: C_10  and  C_11 
REMARK    6  A    between atoms: C_11  and  O_12 
REMARK    7  A    between atoms: C_11  and  C_13 
REMARK    8  A    between atoms: C_13  and  N_14 
ROOT
HETATM    1  N   UNL     1     -42.746 -50.235  12.332  1.00  0.00     0.087 N 
HETATM    2  H   UNL     1     -43.501 -50.532  11.717  1.00  0.00     0.316 HD
ENDROOT
BRANCH   1   3
HETATM    3  C   UNL     1     -42.573 -48.778  12.213  1.00  0.00     0.291 C 
BRANCH   3   4
HETATM    4  C   UNL     1     -41.817 -48.341  10.957  1.00  0.00     0.178 C 
BRANCH   4   5
HETATM    5  N   UNL     1     -41.010 -47.168  11.209  1.00  0.00    -0.302 N 
HETATM    6  N   UNL     1     -40.598 -46.407  10.183  1.00  0.00    -0.310 N 
HETATM    7  C   UNL     1     -39.888 -45.443  10.773  1.00  0.00     0.115 A 
ATOM      8  HN  UNL     1     -40.784 -46.535   9.189  1.00  0.00     0.186 HD
HETATM    9  C   UNL     1     -39.838 -45.589  12.179  1.00  0.00    -0.028 A 
HETATM   10  C   UNL     1     -39.157 -44.728  13.167  1.00  0.00     0.051 C 
HETATM   11  C   UNL     1     -40.577 -46.726  12.424  1.00  0.00     0.118 A 
ENDBRANCH   4   5
ENDBRANCH   3   4
ENDBRANCH   1   3
BRANCH   1  12
HETATM   12  C   UNL     1     -41.505 -50.962  12.031  1.00  0.00     0.302 C 
BRANCH  12  13
HETATM   13  C   UNL     1     -41.682 -52.491  11.997  1.00  0.00     0.174 C 
BRANCH  13  14
HETATM   14  O   UNL     1     -40.525 -53.088  11.404  1.00  0.00    -0.392 OA
HETATM   15  H   UNL     1     -39.770 -52.533  11.672  1.00  0.00     0.210 HD
ENDBRANCH  13  14
BRANCH  13  16
HETATM   16  C   UNL     1     -41.976 -53.098  13.398  1.00  0.00     0.305 C 
BRANCH  16  17
HETATM   17  N   UNL     1     -42.965 -54.194  13.363  1.00  0.00     0.095 N 
HETATM   18  C   UNL     1     -44.213 -53.840  12.661  1.00  0.00     0.298 C 
HETATM   19  C   UNL     1     -45.099 -52.885  13.470  1.00  0.00     0.198 C 
HETATM   20  O   UNL     1     -45.479 -53.491  14.710  1.00  0.00    -0.388 OA
HETATM   21  C   UNL     1     -44.326 -53.832  15.490  1.00  0.00     0.198 C 
HETATM   22  C   UNL     1     -43.308 -54.691  14.712  1.00  0.00     0.298 C 
ENDBRANCH  16  17
ENDBRANCH  13  16
ENDBRANCH  12  13
ENDBRANCH   1  12
TORSDOF 8
ENDMDL
