MODEL 1
REMARK VINA RESULT:      -6.5      0.000      0.000
REMARK  5 active torsions:
REMARK  status: ('A' for Active; 'I' for Inactive)
REMARK       I    between atoms: C_2  and  N_3 
REMARK       I    between atoms: C_2  and  N_12 
REMARK    1  A    between atoms: N_3  and  C_4 
REMARK    2  A    between atoms: C_4  and  C_5 
REMARK    3  A    between atoms: C_5  and  N_6 
REMARK    4  A    between atoms: N_12  and  C_13 
REMARK    5  A    between atoms: C_16  and  N_20 
ROOT
HETATM    1  O   UNL     1     -41.366 -51.323  13.433  1.00  0.00    -0.247 OA
HETATM    2  C   UNL     1     -41.346 -51.678  12.259  1.00  0.00     0.320 C 
HETATM    3  N   UNL     1     -41.767 -52.939  11.883  1.00  0.00    -0.341 N 
HETATM    4  N   UNL     1     -40.956 -50.913  11.183  1.00  0.00    -0.308 N 
HETATM    5  H   UNL     1     -42.192 -52.996  10.971  1.00  0.00     0.164 HD
HETATM    6  H   UNL     1     -41.051 -51.324  10.267  1.00  0.00     0.170 HD
ENDROOT
BRANCH   4   7
HETATM    7  C   UNL     1     -40.557 -49.560  11.253  1.00  0.00     0.051 A 
HETATM    8  C   UNL     1     -39.464 -49.131  11.983  1.00  0.00     0.035 A 
HETATM    9  C   UNL     1     -39.189 -47.772  12.086  1.00  0.00     0.051 A 
HETATM   10  C   UNL     1     -39.995 -46.836  11.449  1.00  0.00     0.103 A 
HETATM   11  N   UNL     1     -41.013 -47.242  10.660  1.00  0.00    -0.350 N 
HETATM   12  C   UNL     1     -41.277 -48.575  10.587  1.00  0.00     0.119 A 
ATOM     13  HN  UNL     1     -41.569 -46.568  10.132  1.00  0.00     0.166 HD
BRANCH  10  14
HETATM   14  N   UNL     1     -39.741 -45.497  11.593  1.00  0.00    -0.363 N 
HETATM   15  C   UNL     1     -39.195 -44.948  12.829  1.00  0.00     0.150 C 
HETATM   16  C   UNL     1     -40.053 -43.724  13.217  1.00  0.00     0.187 C 
HETATM   17  O   UNL     1     -40.145 -42.758  12.149  1.00  0.00    -0.388 OA
HETATM   18  C   UNL     1     -40.698 -43.356  10.963  1.00  0.00     0.187 C 
HETATM   19  C   UNL     1     -39.838 -44.538  10.493  1.00  0.00     0.150 C 
ENDBRANCH  10  14
ENDBRANCH   4   7
BRANCH   3  20
HETATM   20  C   UNL     1     -42.365 -53.758  12.928  1.00  0.00     0.154 C 
BRANCH  20  21
HETATM   21  C   UNL     1     -43.899 -53.730  12.919  1.00  0.00     0.292 C 
BRANCH  21  22
HETATM   22  N   UNL     1     -44.521 -53.700  14.257  1.00  0.00     0.090 N 
HETATM   23  C   UNL     1     -45.985 -53.833  14.174  1.00  0.00     0.272 C 
HETATM   24  C   UNL     1     -46.693 -52.577  13.655  1.00  0.00     0.030 C 
HETATM   25  C   UNL     1     -46.282 -51.330  14.434  1.00  0.00     0.003 C 
HETATM   26  C   UNL     1     -44.765 -51.222  14.547  1.00  0.00     0.030 C 
HETATM   27  C   UNL     1     -44.170 -52.527  15.074  1.00  0.00     0.272 C 
ENDBRANCH  21  22
ENDBRANCH  20  21
ENDBRANCH   3  20
TORSDOF 5
ENDMDL
MODEL 2
REMARK VINA RESULT:      -6.5      1.098      1.338
REMARK  5 active torsions:
REMARK  status: ('A' for Active; 'I' for Inactive)
REMARK       I    between atoms: C_2  and  N_3 
REMARK       I    between atoms: C_2  and  N_12 
REMARK    1  A    between atoms: N_3  and  C_4 
REMARK    2  A    between atoms: C_4  and  C_5 
REMARK    3  A    between atoms: C_5  and  N_6 
REMARK    4  A    between atoms: N_12  and  C_13 
REMARK    5  A    between atoms: C_16  and  N_20 
ROOT
HETATM    1  O   UNL     1     -41.745 -50.555  13.012  1.00  0.00    -0.247 OA
HETATM    2  C   UNL     1     -41.351 -50.950  11.920  1.00  0.00     0.320 C 
HETATM    3  N   UNL     1     -41.328 -52.296  11.608  1.00  0.00    -0.341 N 
HETATM    4  N   UNL     1     -40.925 -50.164  10.873  1.00  0.00    -0.308 N 
HETATM    5  H   UNL     1     -41.491 -52.516  10.639  1.00  0.00     0.164 HD
HETATM    6  H   UNL     1     -40.687 -50.631  10.012  1.00  0.00     0.170 HD
ENDROOT
BRANCH   4   7
HETATM    7  C   UNL     1     -40.919 -48.751  10.872  1.00  0.00     0.051 A 
HETATM    8  C   UNL     1     -39.990 -47.998  11.566  1.00  0.00     0.035 A 
HETATM    9  C   UNL     1     -40.105 -46.613  11.600  1.00  0.00     0.051 A 
HETATM   10  C   UNL     1     -41.139 -45.972  10.927  1.00  0.00     0.103 A 
HETATM   11  N   UNL     1     -42.002 -46.684  10.171  1.00  0.00    -0.350 N 
HETATM   12  C   UNL     1     -41.884 -48.041  10.168  1.00  0.00     0.119 A 
ATOM     13  HN  UNL     1     -42.723 -46.219   9.618  1.00  0.00     0.166 HD
BRANCH  10  14
HETATM   14  N   UNL     1     -41.269 -44.610  11.002  1.00  0.00    -0.363 N 
HETATM   15  C   UNL     1     -40.114 -43.723  10.915  1.00  0.00     0.150 C 
HETATM   16  C   UNL     1     -40.211 -42.711  12.078  1.00  0.00     0.187 C 
HETATM   17  O   UNL     1     -41.474 -42.013  12.093  1.00  0.00    -0.388 OA
HETATM   18  C   UNL     1     -42.571 -42.939  12.189  1.00  0.00     0.187 C 
HETATM   19  C   UNL     1     -42.561 -43.924  11.012  1.00  0.00     0.150 C 
ENDBRANCH  10  14
ENDBRANCH   4   7
BRANCH   3  20
HETATM   20  C   UNL     1     -41.927 -53.194  12.586  1.00  0.00     0.154 C 
BRANCH  20  21
HETATM   21  C   UNL     1     -43.456 -53.275  12.479  1.00  0.00     0.292 C 
BRANCH  21  22
HETATM   22  N   UNL     1     -44.150 -53.510  13.760  1.00  0.00     0.090 N 
HETATM   23  C   UNL     1     -45.568 -53.844  13.552  1.00  0.00     0.272 C 
HETATM   24  C   UNL     1     -46.431 -52.648  13.134  1.00  0.00     0.030 C 
HETATM   25  C   UNL     1     -46.263 -51.466  14.086  1.00  0.00     0.003 C 
HETATM   26  C   UNL     1     -44.790 -51.153  14.325  1.00  0.00     0.030 C 
HETATM   27  C   UNL     1     -44.031 -52.414  14.736  1.00  0.00     0.272 C 
ENDBRANCH  21  22
ENDBRANCH  20  21
ENDBRANCH   3  20
TORSDOF 5
ENDMDL
MODEL 3
REMARK VINA RESULT:      -6.4      1.970      3.017
REMARK  5 active torsions:
REMARK  status: ('A' for Active; 'I' for Inactive)
REMARK       I    between atoms: C_2  and  N_3 
REMARK       I    between atoms: C_2  and  N_12 
REMARK    1  A    between atoms: N_3  and  C_4 
REMARK    2  A    between atoms: C_4  and  C_5 
REMARK    3  A    between atoms: C_5  and  N_6 
REMARK    4  A    between atoms: N_12  and  C_13 
REMARK    5  A    between atoms: C_16  and  N_20 
ROOT
HETATM    1  O   UNL     1     -40.721 -49.190  12.706  1.00  0.00    -0.247 OA
HETATM    2  C   UNL     1     -40.924 -49.492  11.534  1.00  0.00     0.320 C 
HETATM    3  N   UNL     1     -40.939 -50.811  11.125  1.00  0.00    -0.341 N 
HETATM    4  N   UNL     1     -41.189 -48.621  10.502  1.00  0.00    -0.308 N 
HETATM    5  H   UNL     1     -41.565 -51.019  10.364  1.00  0.00     0.164 HD
HETATM    6  H   UNL     1     -41.396 -49.023   9.601  1.00  0.00     0.170 HD
ENDROOT
BRANCH   4   7
HETATM    7  C   UNL     1     -41.321 -47.221  10.637  1.00  0.00     0.051 A 
HETATM    8  C   UNL     1     -40.238 -46.366  10.732  1.00  0.00     0.035 A 
HETATM    9  C   UNL     1     -40.444 -45.010  10.962  1.00  0.00     0.051 A 
HETATM   10  C   UNL     1     -41.731 -44.500  11.084  1.00  0.00     0.103 A 
HETATM   11  N   UNL     1     -42.801 -45.305  10.905  1.00  0.00    -0.350 N 
HETATM   12  C   UNL     1     -42.578 -46.632  10.699  1.00  0.00     0.119 A 
ATOM     13  HN  UNL     1     -43.749 -44.929  10.923  1.00  0.00     0.166 HD
BRANCH  10  14
HETATM   14  N   UNL     1     -41.922 -43.170  11.354  1.00  0.00    -0.363 N 
HETATM   15  C   UNL     1     -40.815 -42.296  11.727  1.00  0.00     0.150 C 
HETATM   16  C   UNL     1     -41.246 -41.501  12.979  1.00  0.00     0.187 C 
HETATM   17  O   UNL     1     -42.492 -40.800  12.781  1.00  0.00    -0.388 OA
HETATM   18  C   UNL     1     -43.544 -41.715  12.426  1.00  0.00     0.187 C 
HETATM   19  C   UNL     1     -43.194 -42.480  11.142  1.00  0.00     0.150 C 
ENDBRANCH  10  14
ENDBRANCH   4   7
BRANCH   3  20
HETATM   20  C   UNL     1     -40.844 -51.814  12.178  1.00  0.00     0.154 C 
BRANCH  20  21
HETATM   21  C   UNL     1     -42.090 -52.706  12.280  1.00  0.00     0.292 C 
BRANCH  21  22
HETATM   22  N   UNL     1     -42.964 -52.410  13.431  1.00  0.00     0.090 N 
HETATM   23  C   UNL     1     -42.483 -53.071  14.656  1.00  0.00     0.272 C 
HETATM   24  C   UNL     1     -42.720 -54.585  14.676  1.00  0.00     0.030 C 
HETATM   25  C   UNL     1     -44.175 -54.937  14.378  1.00  0.00     0.003 C 
HETATM   26  C   UNL     1     -44.674 -54.218  13.130  1.00  0.00     0.030 C 
HETATM   27  C   UNL     1     -44.387 -52.719  13.220  1.00  0.00     0.272 C 
ENDBRANCH  21  22
ENDBRANCH  20  21
ENDBRANCH   3  20
TORSDOF 5
ENDMDL
MODEL 4
REMARK VINA RESULT:      -6.2      1.477      2.190
REMARK  5 active torsions:
REMARK  status: ('A' for Active; 'I' for Inactive)
REMARK       I    between atoms: C_2  and  N_3 
REMARK       I    between atoms: C_2  and  N_12 
REMARK    1  A    between atoms: N_3  and  C_4 
REMARK    2  A    between atoms: C_4  and  C_5 
REMARK    3  A    between atoms: C_5  and  N_6 
REMARK    4  A    between atoms: N_12  and  C_13 
REMARK    5  A    between atoms: C_16  and  N_20 
ROOT
HETATM    1  O   UNL     1     -41.055 -51.389  14.171  1.00  0.00    -0.247 OA
HETATM    2  C   UNL     1     -41.067 -51.951  13.081  1.00  0.00     0.320 C 
HETATM    3  N   UNL     1     -41.076 -53.329  12.984  1.00  0.00    -0.341 N 
HETATM    4  N   UNL     1     -41.107 -51.339  11.849  1.00  0.00    -0.308 N 
HETATM    5  H   UNL     1     -41.570 -53.701  12.189  1.00  0.00     0.164 HD
HETATM    6  H   UNL     1     -41.174 -51.937  11.039  1.00  0.00     0.170 HD
ENDROOT
BRANCH   4   7
HETATM    7  C   UNL     1     -41.191 -49.945  11.639  1.00  0.00     0.051 A 
HETATM    8  C   UNL     1     -42.372 -49.234  11.751  1.00  0.00     0.035 A 
HETATM    9  C   UNL     1     -42.399 -47.880  11.433  1.00  0.00     0.051 A 
HETATM   10  C   UNL     1     -41.244 -47.227  11.019  1.00  0.00     0.103 A 
HETATM   11  N   UNL     1     -40.064 -47.885  10.991  1.00  0.00    -0.350 N 
HETATM   12  C   UNL     1     -40.063 -49.214  11.287  1.00  0.00     0.119 A 
ATOM     13  HN  UNL     1     -39.198 -47.399  10.755  1.00  0.00     0.166 HD
BRANCH  10  14
HETATM   14  N   UNL     1     -41.290 -45.904  10.667  1.00  0.00    -0.363 N 
HETATM   15  C   UNL     1     -40.086 -45.163  10.306  1.00  0.00     0.150 C 
HETATM   16  C   UNL     1     -40.096 -43.837  11.098  1.00  0.00     0.187 C 
HETATM   17  O   UNL     1     -41.314 -43.089  10.898  1.00  0.00    -0.388 OA
HETATM   18  C   UNL     1     -42.462 -43.867  11.281  1.00  0.00     0.187 C 
HETATM   19  C   UNL     1     -42.538 -45.167  10.468  1.00  0.00     0.150 C 
ENDBRANCH  10  14
ENDBRANCH   4   7
BRANCH   3  20
HETATM   20  C   UNL     1     -41.214 -54.063  14.234  1.00  0.00     0.154 C 
BRANCH  20  21
HETATM   21  C   UNL     1     -42.654 -54.511  14.519  1.00  0.00     0.292 C 
BRANCH  21  22
HETATM   22  N   UNL     1     -43.694 -53.626  13.959  1.00  0.00     0.090 N 
HETATM   23  C   UNL     1     -44.420 -52.909  15.021  1.00  0.00     0.272 C 
HETATM   24  C   UNL     1     -45.390 -53.793  15.813  1.00  0.00     0.030 C 
HETATM   25  C   UNL     1     -46.341 -54.558  14.895  1.00  0.00     0.003 C 
HETATM   26  C   UNL     1     -45.582 -55.265  13.777  1.00  0.00     0.030 C 
HETATM   27  C   UNL     1     -44.650 -54.290  13.058  1.00  0.00     0.272 C 
ENDBRANCH  21  22
ENDBRANCH  20  21
ENDBRANCH   3  20
TORSDOF 5
ENDMDL
MODEL 5
REMARK VINA RESULT:      -5.8      3.306      8.682
REMARK  5 active torsions:
REMARK  status: ('A' for Active; 'I' for Inactive)
REMARK       I    between atoms: C_2  and  N_3 
REMARK       I    between atoms: C_2  and  N_12 
REMARK    1  A    between atoms: N_3  and  C_4 
REMARK    2  A    between atoms: C_4  and  C_5 
REMARK    3  A    between atoms: C_5  and  N_6 
REMARK    4  A    between atoms: N_12  and  C_13 
REMARK    5  A    between atoms: C_16  and  N_20 
ROOT
HETATM    1  O   UNL     1     -42.263 -49.838  12.183  1.00  0.00    -0.247 OA
HETATM    2  C   UNL     1     -41.298 -49.927  11.430  1.00  0.00     0.320 C 
HETATM    3  N   UNL     1     -41.137 -49.063  10.364  1.00  0.00    -0.341 N 
HETATM    4  N   UNL     1     -40.261 -50.825  11.537  1.00  0.00    -0.308 N 
HETATM    5  H   UNL     1     -40.182 -48.848  10.125  1.00  0.00     0.164 HD
HETATM    6  H   UNL     1     -39.505 -50.737  10.876  1.00  0.00     0.170 HD
ENDROOT
BRANCH   4   7
HETATM    7  C   UNL     1     -40.113 -51.772  12.575  1.00  0.00     0.051 A 
HETATM    8  C   UNL     1     -40.764 -52.992  12.583  1.00  0.00     0.035 A 
HETATM    9  C   UNL     1     -40.649 -53.832  13.685  1.00  0.00     0.051 A 
HETATM   10  C   UNL     1     -39.871 -53.465  14.777  1.00  0.00     0.103 A 
HETATM   11  N   UNL     1     -39.158 -52.318  14.748  1.00  0.00    -0.350 N 
HETATM   12  C   UNL     1     -39.300 -51.501  13.668  1.00  0.00     0.119 A 
ATOM     13  HN  UNL     1     -38.530 -52.071  15.514  1.00  0.00     0.166 HD
BRANCH  10  14
HETATM   14  N   UNL     1     -39.799 -54.280  15.876  1.00  0.00    -0.363 N 
HETATM   15  C   UNL     1     -38.536 -54.538  16.558  1.00  0.00     0.150 C 
HETATM   16  C   UNL     1     -38.416 -56.064  16.763  1.00  0.00     0.187 C 
HETATM   17  O   UNL     1     -39.562 -56.618  17.443  1.00  0.00    -0.388 OA
HETATM   18  C   UNL     1     -40.773 -56.339  16.718  1.00  0.00     0.187 C 
HETATM   19  C   UNL     1     -40.976 -54.826  16.551  1.00  0.00     0.150 C 
ENDBRANCH  10  14
ENDBRANCH   4   7
BRANCH   3  20
HETATM   20  C   UNL     1     -42.090 -47.965  10.273  1.00  0.00     0.154 C 
BRANCH  20  21
HETATM   21  C   UNL     1     -41.627 -46.698  11.005  1.00  0.00     0.292 C 
BRANCH  21  22
HETATM   22  N   UNL     1     -40.166 -46.492  11.014  1.00  0.00     0.090 N 
HETATM   23  C   UNL     1     -39.622 -46.550  12.381  1.00  0.00     0.272 C 
HETATM   24  C   UNL     1     -39.949 -45.315  13.229  1.00  0.00     0.030 C 
HETATM   25  C   UNL     1     -39.562 -44.019  12.520  1.00  0.00     0.003 C 
HETATM   26  C   UNL     1     -40.098 -43.988  11.093  1.00  0.00     0.030 C 
HETATM   27  C   UNL     1     -39.712 -45.264  10.344  1.00  0.00     0.272 C 
ENDBRANCH  21  22
ENDBRANCH  20  21
ENDBRANCH   3  20
TORSDOF 5
ENDMDL
MODEL 6
REMARK VINA RESULT:      -5.6      2.626      3.752
REMARK  5 active torsions:
REMARK  status: ('A' for Active; 'I' for Inactive)
REMARK       I    between atoms: C_2  and  N_3 
REMARK       I    between atoms: C_2  and  N_12 
REMARK    1  A    between atoms: N_3  and  C_4 
REMARK    2  A    between atoms: C_4  and  C_5 
REMARK    3  A    between atoms: C_5  and  N_6 
REMARK    4  A    between atoms: N_12  and  C_13 
REMARK    5  A    between atoms: C_16  and  N_20 
ROOT
HETATM    1  O   UNL     1     -41.732 -49.416  12.772  1.00  0.00    -0.247 OA
HETATM    2  C   UNL     1     -41.219 -49.542  11.665  1.00  0.00     0.320 C 
HETATM    3  N   UNL     1     -40.930 -50.789  11.144  1.00  0.00    -0.341 N 
HETATM    4  N   UNL     1     -40.898 -48.525  10.795  1.00  0.00    -0.308 N 
HETATM    5  H   UNL     1     -41.002 -50.864  10.142  1.00  0.00     0.164 HD
HETATM    6  H   UNL     1     -40.535 -48.787   9.892  1.00  0.00     0.170 HD
ENDROOT
BRANCH   4   7
HETATM    7  C   UNL     1     -41.156 -47.154  11.021  1.00  0.00     0.051 A 
HETATM    8  C   UNL     1     -40.202 -46.274  11.498  1.00  0.00     0.035 A 
HETATM    9  C   UNL     1     -40.555 -44.961  11.790  1.00  0.00     0.051 A 
HETATM   10  C   UNL     1     -41.857 -44.517  11.592  1.00  0.00     0.103 A 
HETATM   11  N   UNL     1     -42.778 -45.337  11.043  1.00  0.00    -0.350 N 
HETATM   12  C   UNL     1     -42.418 -46.624  10.782  1.00  0.00     0.119 A 
ATOM     13  HN  UNL     1     -43.718 -45.002  10.829  1.00  0.00     0.166 HD
BRANCH  10  14
HETATM   14  N   UNL     1     -42.204 -43.233  11.923  1.00  0.00    -0.363 N 
HETATM   15  C   UNL     1     -42.119 -42.142  10.960  1.00  0.00     0.150 C 
HETATM   16  C   UNL     1     -41.384 -40.968  11.644  1.00  0.00     0.187 C 
HETATM   17  O   UNL     1     -42.001 -40.588  12.892  1.00  0.00    -0.388 OA
HETATM   18  C   UNL     1     -42.047 -41.702  13.801  1.00  0.00     0.187 C 
HETATM   19  C   UNL     1     -42.832 -42.873  13.194  1.00  0.00     0.150 C 
ENDBRANCH  10  14
ENDBRANCH   4   7
BRANCH   3  20
HETATM   20  C   UNL     1     -41.396 -51.933  11.915  1.00  0.00     0.154 C 
BRANCH  20  21
HETATM   21  C   UNL     1     -40.327 -52.509  12.854  1.00  0.00     0.292 C 
BRANCH  21  22
HETATM   22  N   UNL     1     -40.443 -53.959  13.102  1.00  0.00     0.090 N 
HETATM   23  C   UNL     1     -41.771 -54.311  13.630  1.00  0.00     0.272 C 
HETATM   24  C   UNL     1     -41.987 -53.895  15.090  1.00  0.00     0.030 C 
HETATM   25  C   UNL     1     -40.865 -54.399  15.996  1.00  0.00     0.003 C 
HETATM   26  C   UNL     1     -39.494 -54.062  15.420  1.00  0.00     0.030 C 
HETATM   27  C   UNL     1     -39.393 -54.522  13.965  1.00  0.00     0.272 C 
ENDBRANCH  21  22
ENDBRANCH  20  21
ENDBRANCH   3  20
TORSDOF 5
ENDMDL
MODEL 7
REMARK VINA RESULT:      -5.6      3.967      8.870
REMARK  5 active torsions:
REMARK  status: ('A' for Active; 'I' for Inactive)
REMARK       I    between atoms: C_2  and  N_3 
REMARK       I    between atoms: C_2  and  N_12 
REMARK    1  A    between atoms: N_3  and  C_4 
REMARK    2  A    between atoms: C_4  and  C_5 
REMARK    3  A    between atoms: C_5  and  N_6 
REMARK    4  A    between atoms: N_12  and  C_13 
REMARK    5  A    between atoms: C_16  and  N_20 
ROOT
HETATM    1  O   UNL     1     -40.913 -50.365  13.286  1.00  0.00    -0.247 OA
HETATM    2  C   UNL     1     -40.799 -51.007  12.247  1.00  0.00     0.320 C 
HETATM    3  N   UNL     1     -40.830 -50.386  11.013  1.00  0.00    -0.341 N 
HETATM    4  N   UNL     1     -40.599 -52.364  12.145  1.00  0.00    -0.308 N 
HETATM    5  H   UNL     1     -40.263 -50.817  10.300  1.00  0.00     0.164 HD
HETATM    6  H   UNL     1     -40.464 -52.742  11.220  1.00  0.00     0.170 HD
ENDROOT
BRANCH   4   7
HETATM    7  C   UNL     1     -40.442 -53.245  13.238  1.00  0.00     0.051 A 
HETATM    8  C   UNL     1     -41.506 -53.844  13.886  1.00  0.00     0.035 A 
HETATM    9  C   UNL     1     -41.282 -54.620  15.017  1.00  0.00     0.051 A 
HETATM   10  C   UNL     1     -39.992 -54.815  15.498  1.00  0.00     0.103 A 
HETATM   11  N   UNL     1     -38.934 -54.312  14.827  1.00  0.00    -0.350 N 
HETATM   12  C   UNL     1     -39.176 -53.539  13.733  1.00  0.00     0.119 A 
ATOM     13  HN  UNL     1     -37.979 -54.506  15.131  1.00  0.00     0.166 HD
BRANCH  10  14
HETATM   14  N   UNL     1     -39.786 -55.546  16.638  1.00  0.00    -0.363 N 
HETATM   15  C   UNL     1     -38.732 -55.206  17.588  1.00  0.00     0.150 C 
HETATM   16  C   UNL     1     -37.957 -56.502  17.912  1.00  0.00     0.187 C 
HETATM   17  O   UNL     1     -38.825 -57.561  18.370  1.00  0.00    -0.388 OA
HETATM   18  C   UNL     1     -39.834 -57.856  17.388  1.00  0.00     0.187 C 
HETATM   19  C   UNL     1     -40.682 -56.613  17.083  1.00  0.00     0.150 C 
ENDBRANCH  10  14
ENDBRANCH   4   7
BRANCH   3  20
HETATM   20  C   UNL     1     -40.859 -48.929  11.024  1.00  0.00     0.154 C 
BRANCH  20  21
HETATM   21  C   UNL     1     -41.939 -48.338  10.108  1.00  0.00     0.292 C 
BRANCH  21  22
HETATM   22  N   UNL     1     -43.053 -47.680  10.818  1.00  0.00     0.090 N 
HETATM   23  C   UNL     1     -44.204 -47.458   9.926  1.00  0.00     0.272 C 
HETATM   24  C   UNL     1     -43.991 -46.331   8.910  1.00  0.00     0.030 C 
HETATM   25  C   UNL     1     -43.539 -45.037   9.582  1.00  0.00     0.003 C 
HETATM   26  C   UNL     1     -42.372 -45.284  10.532  1.00  0.00     0.030 C 
HETATM   27  C   UNL     1     -42.696 -46.425  11.497  1.00  0.00     0.272 C 
ENDBRANCH  21  22
ENDBRANCH  20  21
ENDBRANCH   3  20
TORSDOF 5
ENDMDL
MODEL 8
REMARK VINA RESULT:      -5.4      2.126      8.882
REMARK  5 active torsions:
REMARK  status: ('A' for Active; 'I' for Inactive)
REMARK       I    between atoms: C_2  and  N_3 
REMARK       I    between atoms: C_2  and  N_12 
REMARK    1  A    between atoms: N_3  and  C_4 
REMARK    2  A    between atoms: C_4  and  C_5 
REMARK    3  A    between atoms: C_5  and  N_6 
REMARK    4  A    between atoms: N_12  and  C_13 
REMARK    5  A    between atoms: C_16  and  N_20 
ROOT
HETATM    1  O   UNL     1     -40.905 -48.609  13.116  1.00  0.00    -0.247 OA
HETATM    2  C   UNL     1     -41.235 -48.900  11.972  1.00  0.00     0.320 C 
HETATM    3  N   UNL     1     -40.832 -48.138  10.892  1.00  0.00    -0.341 N 
HETATM    4  N   UNL     1     -41.987 -49.989  11.592  1.00  0.00    -0.308 N 
HETATM    5  H   UNL     1     -40.688 -48.648  10.035  1.00  0.00     0.164 HD
HETATM    6  H   UNL     1     -42.127 -50.131  10.604  1.00  0.00     0.170 HD
ENDROOT
BRANCH   4   7
HETATM    7  C   UNL     1     -42.466 -50.988  12.468  1.00  0.00     0.051 A 
HETATM    8  C   UNL     1     -43.544 -50.798  13.313  1.00  0.00     0.035 A 
HETATM    9  C   UNL     1     -43.897 -51.792  14.220  1.00  0.00     0.051 A 
HETATM   10  C   UNL     1     -43.186 -52.985  14.275  1.00  0.00     0.103 A 
HETATM   11  N   UNL     1     -42.188 -53.223  13.397  1.00  0.00    -0.350 N 
HETATM   12  C   UNL     1     -41.846 -52.230  12.531  1.00  0.00     0.119 A 
ATOM     13  HN  UNL     1     -41.705 -54.121  13.383  1.00  0.00     0.166 HD
BRANCH  10  14
HETATM   14  N   UNL     1     -43.516 -53.940  15.201  1.00  0.00    -0.363 N 
HETATM   15  C   UNL     1     -44.684 -53.802  16.064  1.00  0.00     0.150 C 
HETATM   16  C   UNL     1     -44.236 -54.101  17.511  1.00  0.00     0.187 C 
HETATM   17  O   UNL     1     -43.581 -55.381  17.630  1.00  0.00    -0.388 OA
HETATM   18  C   UNL     1     -42.434 -55.451  16.764  1.00  0.00     0.187 C 
HETATM   19  C   UNL     1     -42.838 -55.233  15.299  1.00  0.00     0.150 C 
ENDBRANCH  10  14
ENDBRANCH   4   7
BRANCH   3  20
HETATM   20  C   UNL     1     -39.886 -47.067  11.176  1.00  0.00     0.154 C 
BRANCH  20  21
HETATM   21  C   UNL     1     -40.433 -45.672  10.845  1.00  0.00     0.292 C 
BRANCH  21  22
HETATM   22  N   UNL     1     -41.231 -45.054  11.922  1.00  0.00     0.090 N 
HETATM   23  C   UNL     1     -41.710 -43.716  11.537  1.00  0.00     0.272 C 
HETATM   24  C   UNL     1     -40.615 -42.644  11.532  1.00  0.00     0.030 C 
HETATM   25  C   UNL     1     -39.845 -42.611  12.851  1.00  0.00     0.003 C 
HETATM   26  C   UNL     1     -39.386 -44.007  13.258  1.00  0.00     0.030 C 
HETATM   27  C   UNL     1     -40.558 -44.989  13.229  1.00  0.00     0.272 C 
ENDBRANCH  21  22
ENDBRANCH  20  21
ENDBRANCH   3  20
TORSDOF 5
ENDMDL
MODEL 9
REMARK VINA RESULT:      -5.4      2.149      8.704
REMARK  5 active torsions:
REMARK  status: ('A' for Active; 'I' for Inactive)
REMARK       I    between atoms: C_2  and  N_3 
REMARK       I    between atoms: C_2  and  N_12 
REMARK    1  A    between atoms: N_3  and  C_4 
REMARK    2  A    between atoms: C_4  and  C_5 
REMARK    3  A    between atoms: C_5  and  N_6 
REMARK    4  A    between atoms: N_12  and  C_13 
REMARK    5  A    between atoms: C_16  and  N_20 
ROOT
HETATM    1  O   UNL     1     -41.155 -47.647  12.796  1.00  0.00    -0.247 OA
HETATM    2  C   UNL     1     -41.137 -48.095  11.654  1.00  0.00     0.320 C 
HETATM    3  N   UNL     1     -40.599 -47.371  10.607  1.00  0.00    -0.341 N 
HETATM    4  N   UNL     1     -41.591 -49.331  11.256  1.00  0.00    -0.308 N 
HETATM    5  H   UNL     1     -40.167 -47.920   9.881  1.00  0.00     0.164 HD
HETATM    6  H   UNL     1     -41.454 -49.584  10.289  1.00  0.00     0.170 HD
ENDROOT
BRANCH   4   7
HETATM    7  C   UNL     1     -42.114 -50.319  12.120  1.00  0.00     0.051 A 
HETATM    8  C   UNL     1     -41.564 -51.581  12.246  1.00  0.00     0.035 A 
HETATM    9  C   UNL     1     -42.191 -52.534  13.042  1.00  0.00     0.051 A 
HETATM   10  C   UNL     1     -43.359 -52.226  13.728  1.00  0.00     0.103 A 
HETATM   11  N   UNL     1     -43.860 -50.972  13.688  1.00  0.00    -0.350 N 
HETATM   12  C   UNL     1     -43.243 -50.060  12.888  1.00  0.00     0.119 A 
ATOM     13  HN  UNL     1     -44.678 -50.716  14.242  1.00  0.00     0.166 HD
BRANCH  10  14
HETATM   14  N   UNL     1     -43.992 -53.185  14.475  1.00  0.00    -0.363 N 
HETATM   15  C   UNL     1     -44.393 -54.464  13.901  1.00  0.00     0.150 C 
HETATM   16  C   UNL     1     -45.861 -54.720  14.306  1.00  0.00     0.187 C 
HETATM   17  O   UNL     1     -46.057 -54.643  15.734  1.00  0.00    -0.388 OA
HETATM   18  C   UNL     1     -45.653 -53.357  16.238  1.00  0.00     0.187 C 
HETATM   19  C   UNL     1     -44.176 -53.085  15.923  1.00  0.00     0.150 C 
ENDBRANCH  10  14
ENDBRANCH   4   7
BRANCH   3  20
HETATM   20  C   UNL     1     -39.933 -46.124  10.960  1.00  0.00     0.154 C 
BRANCH  20  21
HETATM   21  C   UNL     1     -40.783 -44.879  10.669  1.00  0.00     0.292 C 
BRANCH  21  22
HETATM   22  N   UNL     1     -40.464 -43.709  11.509  1.00  0.00     0.090 N 
HETATM   23  C   UNL     1     -40.532 -44.039  12.942  1.00  0.00     0.272 C 
HETATM   24  C   UNL     1     -41.960 -44.214  13.470  1.00  0.00     0.030 C 
HETATM   25  C   UNL     1     -42.845 -43.019  13.123  1.00  0.00     0.003 C 
HETATM   26  C   UNL     1     -42.738 -42.662  11.644  1.00  0.00     0.030 C 
HETATM   27  C   UNL     1     -41.273 -42.512  11.231  1.00  0.00     0.272 C 
ENDBRANCH  21  22
ENDBRANCH  20  21
ENDBRANCH   3  20
TORSDOF 5
ENDMDL
