MODEL 1
REMARK VINA RESULT:      -6.0      0.000      0.000
REMARK  3 active torsions:
REMARK  status: ('A' for Active; 'I' for Inactive)
REMARK    1  A    between atoms: N_6  and  C_7 
REMARK    2  A    between atoms: C_7  and  C_8 
REMARK       I    between atoms: C_8  and  N_10 
REMARK    3  A    between atoms: N_10  and  C_11 
ROOT
HETATM    1  C   UNL     1     -40.441 -50.500  11.392  1.00  0.00     0.255 C 
ENDROOT
BRANCH   1   2
HETATM    2  N   UNL     1     -41.007 -51.609  12.162  1.00  0.00    -0.248 N 
HETATM    3  N   UNL     1     -42.366 -51.785  12.042  1.00  0.00    -0.305 N 
HETATM    4  C   UNL     1     -42.895 -52.753  12.712  1.00  0.00     0.133 A 
ATOM      5  HN  UNL     1     -42.931 -51.178  11.449  1.00  0.00     0.186 HD
HETATM    6  C   UNL     1     -42.170 -53.693  13.570  1.00  0.00     0.078 A 
HETATM    7 CL   UNL     1     -43.095 -54.924  14.334  1.00  0.00    -0.081 Cl
HETATM    8  C   UNL     1     -40.858 -53.515  13.692  1.00  0.00     0.126 A 
HETATM    9  C   UNL     1     -40.193 -52.381  12.983  1.00  0.00     0.285 A 
HETATM   10 CL   UNL     1     -39.848 -54.548  14.642  1.00  0.00    -0.076 Cl
HETATM   11  O   UNL     1     -38.999 -52.130  13.152  1.00  0.00    -0.265 OA
ENDBRANCH   1   2
BRANCH   1  12
HETATM   12  C   UNL     1     -41.291 -49.232  11.483  1.00  0.00     0.237 C 
HETATM   13  O   UNL     1     -41.739 -48.828  12.553  1.00  0.00    -0.272 OA
HETATM   14  N   UNL     1     -41.628 -48.679  10.265  1.00  0.00    -0.355 N 
HETATM   15  H   UNL     1     -41.272 -49.135   9.431  1.00  0.00     0.162 HD
BRANCH  14  16
HETATM   16  C   UNL     1     -42.541 -47.566  10.070  1.00  0.00     0.084 C 
HETATM   17  C   UNL     1     -41.890 -46.180  10.159  1.00  0.00     0.025 C 
HETATM   18  C   UNL     1     -42.975 -45.109  10.250  1.00  0.00     0.002 C 
HETATM   19  C   UNL     1     -43.978 -45.196   9.097  1.00  0.00     0.000 C 
HETATM   20  C   UNL     1     -44.487 -46.616   8.831  1.00  0.00     0.002 C 
HETATM   21  C   UNL     1     -43.360 -47.650   8.779  1.00  0.00     0.025 C 
ENDBRANCH  14  16
ENDBRANCH   1  12
TORSDOF 3
ENDMDL
MODEL 2
REMARK VINA RESULT:      -5.9      1.620      2.391
REMARK  3 active torsions:
REMARK  status: ('A' for Active; 'I' for Inactive)
REMARK    1  A    between atoms: N_6  and  C_7 
REMARK    2  A    between atoms: C_7  and  C_8 
REMARK       I    between atoms: C_8  and  N_10 
REMARK    3  A    between atoms: N_10  and  C_11 
ROOT
HETATM    1  C   UNL     1     -40.921 -52.055  12.124  1.00  0.00     0.255 C 
ENDROOT
BRANCH   1   2
HETATM    2  N   UNL     1     -42.026 -52.861  12.643  1.00  0.00    -0.248 N 
HETATM    3  N   UNL     1     -43.220 -52.738  11.971  1.00  0.00    -0.305 N 
HETATM    4  C   UNL     1     -44.215 -53.434  12.408  1.00  0.00     0.133 A 
ATOM      5  HN  UNL     1     -43.315 -52.123  11.164  1.00  0.00     0.186 HD
HETATM    6  C   UNL     1     -44.176 -54.361  13.541  1.00  0.00     0.078 A 
HETATM    7 CL   UNL     1     -45.628 -55.204  13.909  1.00  0.00    -0.081 Cl
HETATM    8  C   UNL     1     -43.023 -54.473  14.194  1.00  0.00     0.126 A 
HETATM    9  C   UNL     1     -41.847 -53.654  13.771  1.00  0.00     0.285 A 
HETATM   10 CL   UNL     1     -42.796 -55.539  15.536  1.00  0.00    -0.076 Cl
HETATM   11  O   UNL     1     -40.797 -53.660  14.414  1.00  0.00    -0.265 OA
ENDBRANCH   1   2
BRANCH   1  12
HETATM   12  C   UNL     1     -41.236 -50.558  12.132  1.00  0.00     0.237 C 
HETATM   13  O   UNL     1     -41.851 -50.030  13.054  1.00  0.00    -0.272 OA
HETATM   14  N   UNL     1     -40.907 -49.897  10.966  1.00  0.00    -0.355 N 
HETATM   15  H   UNL     1     -40.471 -50.442  10.228  1.00  0.00     0.162 HD
BRANCH  14  16
HETATM   16  C   UNL     1     -41.233 -48.515  10.663  1.00  0.00     0.084 C 
HETATM   17  C   UNL     1     -42.717 -48.159  10.810  1.00  0.00     0.025 C 
HETATM   18  C   UNL     1     -42.982 -46.794  10.175  1.00  0.00     0.002 C 
HETATM   19  C   UNL     1     -42.073 -45.701  10.743  1.00  0.00     0.000 C 
HETATM   20  C   UNL     1     -40.598 -46.107  10.819  1.00  0.00     0.002 C 
HETATM   21  C   UNL     1     -40.396 -47.493  11.437  1.00  0.00     0.025 C 
ENDBRANCH  14  16
ENDBRANCH   1  12
TORSDOF 3
ENDMDL
MODEL 3
REMARK VINA RESULT:      -5.8      3.698      7.037
REMARK  3 active torsions:
REMARK  status: ('A' for Active; 'I' for Inactive)
REMARK    1  A    between atoms: N_6  and  C_7 
REMARK    2  A    between atoms: C_7  and  C_8 
REMARK       I    between atoms: C_8  and  N_10 
REMARK    3  A    between atoms: N_10  and  C_11 
ROOT
HETATM    1  C   UNL     1     -40.738 -50.176  11.263  1.00  0.00     0.255 C 
ENDROOT
BRANCH   1   2
HETATM    2  N   UNL     1     -41.131 -48.776  11.098  1.00  0.00    -0.248 N 
HETATM    3  N   UNL     1     -42.340 -48.565  10.477  1.00  0.00    -0.305 N 
HETATM    4  C   UNL     1     -42.712 -47.341  10.314  1.00  0.00     0.133 A 
ATOM      5  HN  UNL     1     -42.917 -49.343  10.160  1.00  0.00     0.186 HD
HETATM    6  C   UNL     1     -41.970 -46.157  10.753  1.00  0.00     0.078 A 
HETATM    7 CL   UNL     1     -42.692 -44.627  10.452  1.00  0.00    -0.081 Cl
HETATM    8  C   UNL     1     -40.797 -46.362  11.346  1.00  0.00     0.126 A 
HETATM    9  C   UNL     1     -40.285 -47.755  11.518  1.00  0.00     0.285 A 
HETATM   10 CL   UNL     1     -39.805 -45.081  11.948  1.00  0.00    -0.076 Cl
HETATM   11  O   UNL     1     -39.162 -47.974  11.972  1.00  0.00    -0.265 OA
ENDBRANCH   1   2
BRANCH   1  12
HETATM   12  C   UNL     1     -41.489 -50.863  12.404  1.00  0.00     0.237 C 
HETATM   13  O   UNL     1     -41.279 -50.581  13.581  1.00  0.00    -0.272 OA
HETATM   14  N   UNL     1     -42.297 -51.910  12.010  1.00  0.00    -0.355 N 
HETATM   15  H   UNL     1     -42.342 -52.116  11.017  1.00  0.00     0.162 HD
BRANCH  14  16
HETATM   16  C   UNL     1     -42.999 -52.814  12.904  1.00  0.00     0.084 C 
HETATM   17  C   UNL     1     -44.336 -53.337  12.367  1.00  0.00     0.025 C 
HETATM   18  C   UNL     1     -45.115 -54.011  13.496  1.00  0.00     0.002 C 
HETATM   19  C   UNL     1     -44.305 -55.113  14.183  1.00  0.00     0.000 C 
HETATM   20  C   UNL     1     -42.875 -54.695  14.539  1.00  0.00     0.002 C 
HETATM   21  C   UNL     1     -42.155 -53.999  13.381  1.00  0.00     0.025 C 
ENDBRANCH  14  16
ENDBRANCH   1  12
TORSDOF 3
ENDMDL
MODEL 4
REMARK VINA RESULT:      -5.8      3.628      6.147
REMARK  3 active torsions:
REMARK  status: ('A' for Active; 'I' for Inactive)
REMARK    1  A    between atoms: N_6  and  C_7 
REMARK    2  A    between atoms: C_7  and  C_8 
REMARK       I    between atoms: C_8  and  N_10 
REMARK    3  A    between atoms: N_10  and  C_11 
ROOT
HETATM    1  C   UNL     1     -41.465 -52.936  12.640  1.00  0.00     0.255 C 
ENDROOT
BRANCH   1   2
HETATM    2  N   UNL     1     -41.021 -51.569  12.364  1.00  0.00    -0.248 N 
HETATM    3  N   UNL     1     -41.975 -50.726  11.842  1.00  0.00    -0.305 N 
HETATM    4  C   UNL     1     -41.612 -49.515  11.584  1.00  0.00     0.133 A 
ATOM      5  HN  UNL     1     -42.927 -51.045  11.666  1.00  0.00     0.186 HD
HETATM    6  C   UNL     1     -40.280 -48.954  11.821  1.00  0.00     0.078 A 
HETATM    7 CL   UNL     1     -40.050 -47.297  11.428  1.00  0.00    -0.081 Cl
HETATM    8  C   UNL     1     -39.357 -49.772  12.318  1.00  0.00     0.126 A 
HETATM    9  C   UNL     1     -39.699 -51.201  12.589  1.00  0.00     0.285 A 
HETATM   10 CL   UNL     1     -37.744 -49.267  12.683  1.00  0.00    -0.076 Cl
HETATM   11  O   UNL     1     -38.843 -52.007  12.955  1.00  0.00    -0.265 OA
ENDBRANCH   1   2
BRANCH   1  12
HETATM   12  C   UNL     1     -42.962 -53.014  12.942  1.00  0.00     0.237 C 
HETATM   13  O   UNL     1     -43.790 -53.237  12.062  1.00  0.00    -0.272 OA
HETATM   14  N   UNL     1     -43.306 -52.671  14.233  1.00  0.00    -0.355 N 
HETATM   15  H   UNL     1     -42.551 -52.424  14.866  1.00  0.00     0.162 HD
BRANCH  14  16
HETATM   16  C   UNL     1     -44.661 -52.523  14.732  1.00  0.00     0.084 C 
HETATM   17  C   UNL     1     -44.797 -52.623  16.256  1.00  0.00     0.025 C 
HETATM   18  C   UNL     1     -46.272 -52.766  16.631  1.00  0.00     0.002 C 
HETATM   19  C   UNL     1     -47.131 -51.638  16.053  1.00  0.00     0.000 C 
HETATM   20  C   UNL     1     -46.861 -51.356  14.572  1.00  0.00     0.002 C 
HETATM   21  C   UNL     1     -45.368 -51.253  14.251  1.00  0.00     0.025 C 
ENDBRANCH  14  16
ENDBRANCH   1  12
TORSDOF 3
ENDMDL
MODEL 5
REMARK VINA RESULT:      -5.7      2.279      2.726
REMARK  3 active torsions:
REMARK  status: ('A' for Active; 'I' for Inactive)
REMARK    1  A    between atoms: N_6  and  C_7 
REMARK    2  A    between atoms: C_7  and  C_8 
REMARK       I    between atoms: C_8  and  N_10 
REMARK    3  A    between atoms: N_10  and  C_11 
ROOT
HETATM    1  C   UNL     1     -40.308 -49.907  11.149  1.00  0.00     0.255 C 
ENDROOT
BRANCH   1   2
HETATM    2  N   UNL     1     -40.780 -51.064  11.911  1.00  0.00    -0.248 N 
HETATM    3  N   UNL     1     -42.139 -51.278  11.889  1.00  0.00    -0.305 N 
HETATM    4  C   UNL     1     -42.586 -52.288  12.555  1.00  0.00     0.133 A 
ATOM      5  HN  UNL     1     -42.765 -50.665  11.368  1.00  0.00     0.186 HD
HETATM    6  C   UNL     1     -41.770 -53.239  13.313  1.00  0.00     0.078 A 
HETATM    7 CL   UNL     1     -42.597 -54.530  14.091  1.00  0.00    -0.081 Cl
HETATM    8  C   UNL     1     -40.458 -53.025  13.341  1.00  0.00     0.126 A 
HETATM    9  C   UNL     1     -39.883 -51.842  12.634  1.00  0.00     0.285 A 
HETATM   10 CL   UNL     1     -39.348 -54.063  14.166  1.00  0.00    -0.076 Cl
HETATM   11  O   UNL     1     -38.687 -51.561  12.722  1.00  0.00    -0.265 OA
ENDBRANCH   1   2
BRANCH   1  12
HETATM   12  C   UNL     1     -40.604 -48.582  11.854  1.00  0.00     0.237 C 
HETATM   13  O   UNL     1     -41.473 -48.488  12.717  1.00  0.00    -0.272 OA
HETATM   14  N   UNL     1     -39.928 -47.495  11.339  1.00  0.00    -0.355 N 
HETATM   15  H   UNL     1     -39.287 -47.666  10.570  1.00  0.00     0.162 HD
BRANCH  14  16
HETATM   16  C   UNL     1     -40.138 -46.112  11.729  1.00  0.00     0.084 C 
HETATM   17  C   UNL     1     -39.426 -45.695  13.022  1.00  0.00     0.025 C 
HETATM   18  C   UNL     1     -39.963 -44.343  13.490  1.00  0.00     0.002 C 
HETATM   19  C   UNL     1     -39.855 -43.268  12.406  1.00  0.00     0.000 C 
HETATM   20  C   UNL     1     -40.356 -43.726  11.032  1.00  0.00     0.002 C 
HETATM   21  C   UNL     1     -39.810 -45.098  10.630  1.00  0.00     0.025 C 
ENDBRANCH  14  16
ENDBRANCH   1  12
TORSDOF 3
ENDMDL
MODEL 6
REMARK VINA RESULT:      -5.4      4.079      6.573
REMARK  3 active torsions:
REMARK  status: ('A' for Active; 'I' for Inactive)
REMARK    1  A    between atoms: N_6  and  C_7 
REMARK    2  A    between atoms: C_7  and  C_8 
REMARK       I    between atoms: C_8  and  N_10 
REMARK    3  A    between atoms: N_10  and  C_11 
ROOT
HETATM    1  C   UNL     1     -40.835 -50.783  11.771  1.00  0.00     0.255 C 
ENDROOT
BRANCH   1   2
HETATM    2  N   UNL     1     -40.421 -49.421  12.112  1.00  0.00    -0.248 N 
HETATM    3  N   UNL     1     -39.708 -49.290  13.281  1.00  0.00    -0.305 N 
HETATM    4  C   UNL     1     -39.332 -48.100  13.610  1.00  0.00     0.133 A 
ATOM      5  HN  UNL     1     -39.487 -50.097  13.862  1.00  0.00     0.186 HD
HETATM    6  C   UNL     1     -39.577 -46.882  12.835  1.00  0.00     0.078 A 
HETATM    7 CL   UNL     1     -38.942 -45.415  13.465  1.00  0.00    -0.081 Cl
HETATM    8  C   UNL     1     -40.274 -47.010  11.709  1.00  0.00     0.126 A 
HETATM    9  C   UNL     1     -40.784 -48.353  11.299  1.00  0.00     0.285 A 
HETATM   10 CL   UNL     1     -40.631 -45.681  10.663  1.00  0.00    -0.076 Cl
HETATM   11  O   UNL     1     -41.514 -48.489  10.317  1.00  0.00    -0.265 OA
ENDBRANCH   1   2
BRANCH   1  12
HETATM   12  C   UNL     1     -41.764 -51.391  12.823  1.00  0.00     0.237 C 
HETATM   13  O   UNL     1     -41.328 -51.976  13.812  1.00  0.00    -0.272 OA
HETATM   14  N   UNL     1     -43.103 -51.357  12.494  1.00  0.00    -0.355 N 
HETATM   15  H   UNL     1     -43.356 -50.920  11.613  1.00  0.00     0.162 HD
BRANCH  14  16
HETATM   16  C   UNL     1     -44.171 -51.993  13.246  1.00  0.00     0.084 C 
HETATM   17  C   UNL     1     -45.446 -51.153  13.384  1.00  0.00     0.025 C 
HETATM   18  C   UNL     1     -46.361 -51.778  14.436  1.00  0.00     0.002 C 
HETATM   19  C   UNL     1     -46.673 -53.247  14.137  1.00  0.00     0.000 C 
HETATM   20  C   UNL     1     -45.438 -54.077  13.774  1.00  0.00     0.002 C 
HETATM   21  C   UNL     1     -44.545 -53.388  12.739  1.00  0.00     0.025 C 
ENDBRANCH  14  16
ENDBRANCH   1  12
TORSDOF 3
ENDMDL
MODEL 7
REMARK VINA RESULT:      -5.2      4.586      5.966
REMARK  3 active torsions:
REMARK  status: ('A' for Active; 'I' for Inactive)
REMARK    1  A    between atoms: N_6  and  C_7 
REMARK    2  A    between atoms: C_7  and  C_8 
REMARK       I    between atoms: C_8  and  N_10 
REMARK    3  A    between atoms: N_10  and  C_11 
ROOT
HETATM    1  C   UNL     1     -40.920 -53.632  12.901  1.00  0.00     0.255 C 
ENDROOT
BRANCH   1   2
HETATM    2  N   UNL     1     -40.060 -52.520  13.309  1.00  0.00    -0.248 N 
HETATM    3  N   UNL     1     -39.328 -52.722  14.455  1.00  0.00    -0.305 N 
HETATM    4  C   UNL     1     -38.563 -51.758  14.843  1.00  0.00     0.133 A 
ATOM      5  HN  UNL     1     -39.388 -53.596  14.977  1.00  0.00     0.186 HD
HETATM    6  C   UNL     1     -38.389 -50.477  14.154  1.00  0.00     0.078 A 
HETATM    7 CL   UNL     1     -37.282 -49.362  14.849  1.00  0.00    -0.081 Cl
HETATM    8  C   UNL     1     -39.104 -50.280  13.050  1.00  0.00     0.126 A 
HETATM    9  C   UNL     1     -40.049 -51.337  12.578  1.00  0.00     0.285 A 
HETATM   10 CL   UNL     1     -39.001 -48.838  12.102  1.00  0.00    -0.076 Cl
HETATM   11  O   UNL     1     -40.795 -51.147  11.618  1.00  0.00    -0.265 OA
ENDBRANCH   1   2
BRANCH   1  12
HETATM   12  C   UNL     1     -42.235 -53.669  13.680  1.00  0.00     0.237 C 
HETATM   13  O   UNL     1     -42.612 -54.680  14.267  1.00  0.00    -0.272 OA
HETATM   14  N   UNL     1     -43.015 -52.539  13.544  1.00  0.00    -0.355 N 
HETATM   15  H   UNL     1     -42.648 -51.785  12.970  1.00  0.00     0.162 HD
BRANCH  14  16
HETATM   16  C   UNL     1     -44.364 -52.381  14.057  1.00  0.00     0.084 C 
HETATM   17  C   UNL     1     -44.445 -52.015  15.544  1.00  0.00     0.025 C 
HETATM   18  C   UNL     1     -45.883 -52.182  16.036  1.00  0.00     0.002 C 
HETATM   19  C   UNL     1     -46.881 -51.382  15.196  1.00  0.00     0.000 C 
HETATM   20  C   UNL     1     -46.687 -51.550  13.685  1.00  0.00     0.002 C 
HETATM   21  C   UNL     1     -45.226 -51.402  13.255  1.00  0.00     0.025 C 
ENDBRANCH  14  16
ENDBRANCH   1  12
TORSDOF 3
ENDMDL
MODEL 8
REMARK VINA RESULT:      -5.0      1.726      2.346
REMARK  3 active torsions:
REMARK  status: ('A' for Active; 'I' for Inactive)
REMARK    1  A    between atoms: N_6  and  C_7 
REMARK    2  A    between atoms: C_7  and  C_8 
REMARK       I    between atoms: C_8  and  N_10 
REMARK    3  A    between atoms: N_10  and  C_11 
ROOT
HETATM    1  C   UNL     1     -38.762 -50.578  12.345  1.00  0.00     0.255 C 
ENDROOT
BRANCH   1   2
HETATM    2  N   UNL     1     -39.354 -51.671  13.117  1.00  0.00    -0.248 N 
HETATM    3  N   UNL     1     -38.644 -52.072  14.224  1.00  0.00    -0.305 N 
HETATM    4  C   UNL     1     -39.139 -53.037  14.923  1.00  0.00     0.133 A 
ATOM      5  HN  UNL     1     -37.764 -51.627  14.481  1.00  0.00     0.186 HD
HETATM    6  C   UNL     1     -40.403 -53.726  14.652  1.00  0.00     0.078 A 
HETATM    7 CL   UNL     1     -40.870 -54.960  15.752  1.00  0.00    -0.081 Cl
HETATM    8  C   UNL     1     -41.085 -53.342  13.576  1.00  0.00     0.126 A 
HETATM    9  C   UNL     1     -40.539 -52.265  12.696  1.00  0.00     0.285 A 
HETATM   10 CL   UNL     1     -42.606 -54.029  13.126  1.00  0.00    -0.076 Cl
HETATM   11  O   UNL     1     -41.094 -51.956  11.642  1.00  0.00    -0.265 OA
ENDBRANCH   1   2
BRANCH   1  12
HETATM   12  C   UNL     1     -39.565 -49.281  12.457  1.00  0.00     0.237 C 
HETATM   13  O   UNL     1     -39.765 -48.734  13.539  1.00  0.00    -0.272 OA
HETATM   14  N   UNL     1     -40.158 -48.870  11.281  1.00  0.00    -0.355 N 
HETATM   15  H   UNL     1     -39.996 -49.437  10.454  1.00  0.00     0.162 HD
BRANCH  14  16
HETATM   16  C   UNL     1     -41.086 -47.761  11.150  1.00  0.00     0.084 C 
HETATM   17  C   UNL     1     -40.431 -46.412  10.830  1.00  0.00     0.025 C 
HETATM   18  C   UNL     1     -41.449 -45.288  11.024  1.00  0.00     0.002 C 
HETATM   19  C   UNL     1     -42.724 -45.512  10.207  1.00  0.00     0.000 C 
HETATM   20  C   UNL     1     -43.290 -46.930  10.326  1.00  0.00     0.002 C 
HETATM   21  C   UNL     1     -42.221 -48.012  10.154  1.00  0.00     0.025 C 
ENDBRANCH  14  16
ENDBRANCH   1  12
TORSDOF 3
ENDMDL
MODEL 9
REMARK VINA RESULT:      -5.0     15.563     17.372
REMARK  3 active torsions:
REMARK  status: ('A' for Active; 'I' for Inactive)
REMARK    1  A    between atoms: N_6  and  C_7 
REMARK    2  A    between atoms: C_7  and  C_8 
REMARK       I    between atoms: C_8  and  N_10 
REMARK    3  A    between atoms: N_10  and  C_11 
ROOT
HETATM    1  C   UNL     1     -48.385 -53.620  -1.152  1.00  0.00     0.255 C 
ENDROOT
BRANCH   1   2
HETATM    2  N   UNL     1     -49.220 -52.462  -0.829  1.00  0.00    -0.248 N 
HETATM    3  N   UNL     1     -50.577 -52.686  -0.832  1.00  0.00    -0.305 N 
HETATM    4  C   UNL     1     -51.340 -51.683  -0.555  1.00  0.00     0.133 A 
ATOM      5  HN  UNL     1     -50.963 -53.605  -1.043  1.00  0.00     0.186 HD
HETATM    6  C   UNL     1     -50.885 -50.333  -0.216  1.00  0.00     0.078 A 
HETATM    7 CL   UNL     1     -52.096 -49.170   0.150  1.00  0.00    -0.081 Cl
HETATM    8  C   UNL     1     -49.572 -50.115  -0.223  1.00  0.00     0.126 A 
HETATM    9  C   UNL     1     -48.638 -51.222  -0.587  1.00  0.00     0.285 A 
HETATM   10 CL   UNL     1     -48.865 -48.590   0.178  1.00  0.00    -0.076 Cl
HETATM   11  O   UNL     1     -47.427 -51.029  -0.698  1.00  0.00    -0.265 OA
ENDBRANCH   1   2
BRANCH   1  12
HETATM   12  C   UNL     1     -48.706 -54.207  -2.527  1.00  0.00     0.237 C 
HETATM   13  O   UNL     1     -49.138 -53.512  -3.443  1.00  0.00    -0.272 OA
HETATM   14  N   UNL     1     -48.613 -55.582  -2.599  1.00  0.00    -0.355 N 
HETATM   15  H   UNL     1     -48.322 -56.074  -1.760  1.00  0.00     0.162 HD
BRANCH  14  16
HETATM   16  C   UNL     1     -49.004 -56.392  -3.739  1.00  0.00     0.084 C 
HETATM   17  C   UNL     1     -48.090 -57.593  -4.015  1.00  0.00     0.025 C 
HETATM   18  C   UNL     1     -48.408 -58.174  -5.391  1.00  0.00     0.002 C 
HETATM   19  C   UNL     1     -49.888 -58.536  -5.542  1.00  0.00     0.000 C 
HETATM   20  C   UNL     1     -50.842 -57.436  -5.065  1.00  0.00     0.002 C 
HETATM   21  C   UNL     1     -50.457 -56.872  -3.695  1.00  0.00     0.025 C 
ENDBRANCH  14  16
ENDBRANCH   1  12
TORSDOF 3
ENDMDL
