MODEL 1
REMARK VINA RESULT:      -5.3      0.000      0.000
REMARK  4 active torsions:
REMARK  status: ('A' for Active; 'I' for Inactive)
REMARK    1  A    between atoms: C_2  and  C_3 
REMARK    2  A    between atoms: C_2  and  N_12 
REMARK    3  A    between atoms: C_3  and  N_4 
REMARK    4  A    between atoms: N_12  and  C_13 
ROOT
HETATM    1  C   UNL     1     -42.798 -55.301  15.388  1.00  0.00     0.044 C 
HETATM    2  C   UNL     1     -42.361 -53.891  14.937  1.00  0.00     0.235 C 
ENDROOT
BRANCH   2   3
HETATM    3  C   UNL     1     -41.674 -54.051  13.555  1.00  0.00     0.164 C 
BRANCH   3   4
HETATM    4  N   UNL     1     -41.116 -52.862  12.942  1.00  0.00    -0.343 N 
HETATM    5  C   UNL     1     -41.612 -52.290  11.803  1.00  0.00     0.183 A 
HETATM    6  N   UNL     1     -40.920 -51.237  11.446  1.00  0.00    -0.354 N 
HETATM    7  C   UNL     1     -39.875 -51.170  12.332  1.00  0.00     0.028 A 
ATOM      8  HN  UNL     1     -41.116 -50.602  10.673  1.00  0.00     0.166 HD
HETATM    9  C   UNL     1     -38.839 -50.125  12.171  1.00  0.00     0.070 C 
HETATM   10  C   UNL     1     -39.950 -52.202  13.258  1.00  0.00     0.030 A 
HETATM   11  C   UNL     1     -39.017 -52.600  14.338  1.00  0.00     0.070 C 
ENDBRANCH   3   4
ENDBRANCH   2   3
BRANCH   2  12
HETATM   12  N   UNL     1     -43.581 -53.058  14.981  1.00  0.00     0.093 N 
HETATM   13  H   UNL     1     -43.384 -52.154  14.544  1.00  0.00     0.316 HD
BRANCH  12  14
HETATM   14  C   UNL     1     -44.793 -53.614  14.354  1.00  0.00     0.221 C 
HETATM   15  C   UNL     1     -45.152 -53.023  12.981  1.00  0.00     0.035 C 
HETATM   16  C   UNL     1     -45.604 -51.568  13.066  1.00  0.00     0.002 C 
HETATM   17  C   UNL     1     -46.765 -51.395  14.042  1.00  0.00     0.000 C 
HETATM   18  C   UNL     1     -46.466 -51.993  15.417  1.00  0.00     0.002 C 
HETATM   19  C   UNL     1     -45.992 -53.440  15.308  1.00  0.00     0.035 C 
ENDBRANCH  12  14
ENDBRANCH   2  12
TORSDOF 4
ENDMDL
MODEL 2
REMARK VINA RESULT:      -5.3      1.974      2.601
REMARK  4 active torsions:
REMARK  status: ('A' for Active; 'I' for Inactive)
REMARK    1  A    between atoms: C_2  and  C_3 
REMARK    2  A    between atoms: C_2  and  N_12 
REMARK    3  A    between atoms: C_3  and  N_4 
REMARK    4  A    between atoms: N_12  and  C_13 
ROOT
HETATM    1  C   UNL     1     -41.265 -53.901  12.927  1.00  0.00     0.044 C 
HETATM    2  C   UNL     1     -42.113 -52.784  13.572  1.00  0.00     0.235 C 
ENDROOT
BRANCH   2   3
HETATM    3  C   UNL     1     -41.210 -51.524  13.659  1.00  0.00     0.164 C 
BRANCH   3   4
HETATM    4  N   UNL     1     -41.177 -50.643  12.508  1.00  0.00    -0.343 N 
HETATM    5  C   UNL     1     -40.188 -50.665  11.563  1.00  0.00     0.183 A 
HETATM    6  N   UNL     1     -40.381 -49.759  10.638  1.00  0.00    -0.354 N 
HETATM    7  C   UNL     1     -41.487 -49.054  11.041  1.00  0.00     0.028 A 
ATOM      8  HN  UNL     1     -39.826 -49.609   9.795  1.00  0.00     0.166 HD
HETATM    9  C   UNL     1     -41.946 -47.890  10.250  1.00  0.00     0.070 C 
HETATM   10  C   UNL     1     -41.983 -49.562  12.234  1.00  0.00     0.030 A 
HETATM   11  C   UNL     1     -43.089 -49.088  13.098  1.00  0.00     0.070 C 
ENDBRANCH   3   4
ENDBRANCH   2   3
BRANCH   2  12
HETATM   12  N   UNL     1     -43.332 -52.673  12.743  1.00  0.00     0.093 N 
HETATM   13  H   UNL     1     -43.127 -53.016  11.801  1.00  0.00     0.316 HD
BRANCH  12  14
HETATM   14  C   UNL     1     -44.536 -53.367  13.230  1.00  0.00     0.221 C 
HETATM   15  C   UNL     1     -45.850 -52.961  12.545  1.00  0.00     0.035 C 
HETATM   16  C   UNL     1     -46.274 -51.535  12.884  1.00  0.00     0.002 C 
HETATM   17  C   UNL     1     -46.369 -51.319  14.393  1.00  0.00     0.000 C 
HETATM   18  C   UNL     1     -45.093 -51.736  15.123  1.00  0.00     0.002 C 
HETATM   19  C   UNL     1     -44.672 -53.156  14.751  1.00  0.00     0.035 C 
ENDBRANCH  12  14
ENDBRANCH   2  12
TORSDOF 4
ENDMDL
MODEL 3
REMARK VINA RESULT:      -5.0      1.945      3.086
REMARK  4 active torsions:
REMARK  status: ('A' for Active; 'I' for Inactive)
REMARK    1  A    between atoms: C_2  and  C_3 
REMARK    2  A    between atoms: C_2  and  N_12 
REMARK    3  A    between atoms: C_3  and  N_4 
REMARK    4  A    between atoms: N_12  and  C_13 
ROOT
HETATM    1  C   UNL     1     -43.801 -50.095  14.865  1.00  0.00     0.044 C 
HETATM    2  C   UNL     1     -42.718 -50.677  13.933  1.00  0.00     0.235 C 
ENDROOT
BRANCH   2   3
HETATM    3  C   UNL     1     -41.488 -49.735  14.023  1.00  0.00     0.164 C 
BRANCH   3   4
HETATM    4  N   UNL     1     -40.529 -49.779  12.937  1.00  0.00    -0.343 N 
HETATM    5  C   UNL     1     -40.871 -49.979  11.628  1.00  0.00     0.183 A 
HETATM    6  N   UNL     1     -39.819 -49.995  10.848  1.00  0.00    -0.354 N 
HETATM    7  C   UNL     1     -38.739 -49.894  11.689  1.00  0.00     0.028 A 
ATOM      8  HN  UNL     1     -39.806 -50.066   9.831  1.00  0.00     0.166 HD
HETATM    9  C   UNL     1     -37.368 -49.957  11.135  1.00  0.00     0.070 C 
HETATM   10  C   UNL     1     -39.154 -49.799  13.010  1.00  0.00     0.030 A 
HETATM   11  C   UNL     1     -38.371 -49.765  14.267  1.00  0.00     0.070 C 
ENDBRANCH   3   4
ENDBRANCH   2   3
BRANCH   2  12
HETATM   12  N   UNL     1     -42.518 -52.075  14.371  1.00  0.00     0.093 N 
HETATM   13  H   UNL     1     -43.225 -52.309  15.073  1.00  0.00     0.316 HD
BRANCH  12  14
HETATM   14  C   UNL     1     -42.549 -53.114  13.328  1.00  0.00     0.221 C 
HETATM   15  C   UNL     1     -43.785 -53.093  12.416  1.00  0.00     0.035 C 
HETATM   16  C   UNL     1     -45.064 -53.488  13.149  1.00  0.00     0.002 C 
HETATM   17  C   UNL     1     -44.926 -54.848  13.830  1.00  0.00     0.000 C 
HETATM   18  C   UNL     1     -43.691 -54.928  14.728  1.00  0.00     0.002 C 
HETATM   19  C   UNL     1     -42.428 -54.505  13.983  1.00  0.00     0.035 C 
ENDBRANCH  12  14
ENDBRANCH   2  12
TORSDOF 4
ENDMDL
MODEL 4
REMARK VINA RESULT:      -4.9      1.847      3.098
REMARK  4 active torsions:
REMARK  status: ('A' for Active; 'I' for Inactive)
REMARK    1  A    between atoms: C_2  and  C_3 
REMARK    2  A    between atoms: C_2  and  N_12 
REMARK    3  A    between atoms: C_3  and  N_4 
REMARK    4  A    between atoms: N_12  and  C_13 
ROOT
HETATM    1  C   UNL     1     -42.982 -49.160  14.298  1.00  0.00     0.044 C 
HETATM    2  C   UNL     1     -42.983 -49.727  12.862  1.00  0.00     0.235 C 
ENDROOT
BRANCH   2   3
HETATM    3  C   UNL     1     -41.508 -50.043  12.499  1.00  0.00     0.164 C 
BRANCH   3   4
HETATM    4  N   UNL     1     -41.061 -51.414  12.645  1.00  0.00    -0.343 N 
HETATM    5  C   UNL     1     -41.376 -52.414  11.767  1.00  0.00     0.183 A 
HETATM    6  N   UNL     1     -40.865 -53.563  12.134  1.00  0.00    -0.354 N 
HETATM    7  C   UNL     1     -40.271 -53.326  13.348  1.00  0.00     0.028 A 
ATOM      8  HN  UNL     1     -40.901 -54.445  11.625  1.00  0.00     0.166 HD
HETATM    9  C   UNL     1     -39.650 -54.445  14.093  1.00  0.00     0.070 C 
HETATM   10  C   UNL     1     -40.414 -51.994  13.713  1.00  0.00     0.030 A 
HETATM   11  C   UNL     1     -40.029 -51.289  14.957  1.00  0.00     0.070 C 
ENDBRANCH   3   4
ENDBRANCH   2   3
BRANCH   2  12
HETATM   12  N   UNL     1     -43.923 -50.867  12.880  1.00  0.00     0.093 N 
HETATM   13  H   UNL     1     -43.489 -51.665  12.408  1.00  0.00     0.316 HD
BRANCH  12  14
HETATM   14  C   UNL     1     -44.400 -51.321  14.197  1.00  0.00     0.221 C 
HETATM   15  C   UNL     1     -43.813 -52.655  14.685  1.00  0.00     0.035 C 
HETATM   16  C   UNL     1     -44.297 -53.845  13.862  1.00  0.00     0.002 C 
HETATM   17  C   UNL     1     -45.821 -53.917  13.817  1.00  0.00     0.000 C 
HETATM   18  C   UNL     1     -46.454 -52.601  13.363  1.00  0.00     0.002 C 
HETATM   19  C   UNL     1     -45.939 -51.420  14.182  1.00  0.00     0.035 C 
ENDBRANCH  12  14
ENDBRANCH   2  12
TORSDOF 4
ENDMDL
MODEL 5
REMARK VINA RESULT:      -4.9      3.312      4.360
REMARK  4 active torsions:
REMARK  status: ('A' for Active; 'I' for Inactive)
REMARK    1  A    between atoms: C_2  and  C_3 
REMARK    2  A    between atoms: C_2  and  N_12 
REMARK    3  A    between atoms: C_3  and  N_4 
REMARK    4  A    between atoms: N_12  and  C_13 
ROOT
HETATM    1  C   UNL     1     -42.486 -49.266  14.269  1.00  0.00     0.044 C 
HETATM    2  C   UNL     1     -43.128 -49.270  12.866  1.00  0.00     0.235 C 
ENDROOT
BRANCH   2   3
HETATM    3  C   UNL     1     -41.967 -49.279  11.836  1.00  0.00     0.164 C 
BRANCH   3   4
HETATM    4  N   UNL     1     -41.593 -48.013  11.237  1.00  0.00    -0.343 N 
HETATM    5  C   UNL     1     -42.208 -47.482  10.136  1.00  0.00     0.183 A 
HETATM    6  N   UNL     1     -41.672 -46.341   9.784  1.00  0.00    -0.354 N 
HETATM    7  C   UNL     1     -40.606 -46.161  10.629  1.00  0.00     0.028 A 
ATOM      8  HN  UNL     1     -41.982 -45.717   9.039  1.00  0.00     0.166 HD
HETATM    9  C   UNL     1     -39.720 -44.987  10.457  1.00  0.00     0.070 C 
HETATM   10  C   UNL     1     -40.508 -47.217  11.525  1.00  0.00     0.030 A 
HETATM   11  C   UNL     1     -39.485 -47.517  12.554  1.00  0.00     0.070 C 
ENDBRANCH   3   4
ENDBRANCH   2   3
BRANCH   2  12
HETATM   12  N   UNL     1     -44.044 -50.431  12.845  1.00  0.00     0.093 N 
HETATM   13  H   UNL     1     -43.812 -51.025  12.045  1.00  0.00     0.316 HD
BRANCH  12  14
HETATM   14  C   UNL     1     -44.075 -51.279  14.049  1.00  0.00     0.221 C 
HETATM   15  C   UNL     1     -43.736 -52.760  13.819  1.00  0.00     0.035 C 
HETATM   16  C   UNL     1     -44.807 -53.491  13.016  1.00  0.00     0.002 C 
HETATM   17  C   UNL     1     -46.185 -53.352  13.658  1.00  0.00     0.000 C 
HETATM   18  C   UNL     1     -46.557 -51.895  13.933  1.00  0.00     0.002 C 
HETATM   19  C   UNL     1     -45.462 -51.175  14.715  1.00  0.00     0.035 C 
ENDBRANCH  12  14
ENDBRANCH   2  12
TORSDOF 4
ENDMDL
MODEL 6
REMARK VINA RESULT:      -4.9      2.614      3.593
REMARK  4 active torsions:
REMARK  status: ('A' for Active; 'I' for Inactive)
REMARK    1  A    between atoms: C_2  and  C_3 
REMARK    2  A    between atoms: C_2  and  N_12 
REMARK    3  A    between atoms: C_3  and  N_4 
REMARK    4  A    between atoms: N_12  and  C_13 
ROOT
HETATM    1  C   UNL     1     -43.225 -49.778  14.503  1.00  0.00     0.044 C 
HETATM    2  C   UNL     1     -43.370 -50.493  13.142  1.00  0.00     0.235 C 
ENDROOT
BRANCH   2   3
HETATM    3  C   UNL     1     -42.039 -50.278  12.374  1.00  0.00     0.164 C 
BRANCH   3   4
HETATM    4  N   UNL     1     -41.782 -48.956  11.837  1.00  0.00    -0.343 N 
HETATM    5  C   UNL     1     -42.718 -48.207  11.179  1.00  0.00     0.183 A 
HETATM    6  N   UNL     1     -42.229 -47.060  10.778  1.00  0.00    -0.354 N 
HETATM    7  C   UNL     1     -40.897 -47.097  11.105  1.00  0.00     0.028 A 
ATOM      8  HN  UNL     1     -42.732 -46.300  10.321  1.00  0.00     0.166 HD
HETATM    9  C   UNL     1     -40.014 -45.972  10.723  1.00  0.00     0.070 C 
HETATM   10  C   UNL     1     -40.580 -48.293  11.735  1.00  0.00     0.030 A 
HETATM   11  C   UNL     1     -39.274 -48.830  12.184  1.00  0.00     0.070 C 
ENDBRANCH   3   4
ENDBRANCH   2   3
BRANCH   2  12
HETATM   12  N   UNL     1     -43.738 -51.889  13.458  1.00  0.00     0.093 N 
HETATM   13  H   UNL     1     -43.822 -51.991  14.473  1.00  0.00     0.316 HD
BRANCH  12  14
HETATM   14  C   UNL     1     -44.970 -52.412  12.844  1.00  0.00     0.221 C 
HETATM   15  C   UNL     1     -46.207 -51.511  12.984  1.00  0.00     0.035 C 
HETATM   16  C   UNL     1     -46.708 -51.420  14.422  1.00  0.00     0.002 C 
HETATM   17  C   UNL     1     -46.984 -52.801  15.012  1.00  0.00     0.000 C 
HETATM   18  C   UNL     1     -45.789 -53.745  14.870  1.00  0.00     0.002 C 
HETATM   19  C   UNL     1     -45.287 -53.803  13.430  1.00  0.00     0.035 C 
ENDBRANCH  12  14
ENDBRANCH   2  12
TORSDOF 4
ENDMDL
MODEL 7
REMARK VINA RESULT:      -4.8      2.898      4.310
REMARK  4 active torsions:
REMARK  status: ('A' for Active; 'I' for Inactive)
REMARK    1  A    between atoms: C_2  and  C_3 
REMARK    2  A    between atoms: C_2  and  N_12 
REMARK    3  A    between atoms: C_3  and  N_4 
REMARK    4  A    between atoms: N_12  and  C_13 
ROOT
HETATM    1  C   UNL     1     -42.971 -49.039  14.021  1.00  0.00     0.044 C 
HETATM    2  C   UNL     1     -43.021 -50.085  12.888  1.00  0.00     0.235 C 
ENDROOT
BRANCH   2   3
HETATM    3  C   UNL     1     -41.722 -49.913  12.056  1.00  0.00     0.164 C 
BRANCH   3   4
HETATM    4  N   UNL     1     -41.480 -48.617  11.453  1.00  0.00    -0.343 N 
HETATM    5  C   UNL     1     -42.219 -48.109  10.421  1.00  0.00     0.183 A 
HETATM    6  N   UNL     1     -41.786 -46.931  10.047  1.00  0.00    -0.354 N 
HETATM    7  C   UNL     1     -40.663 -46.699  10.800  1.00  0.00     0.028 A 
ATOM      8  HN  UNL     1     -42.197 -46.316   9.345  1.00  0.00     0.166 HD
HETATM    9  C   UNL     1     -39.869 -45.470  10.576  1.00  0.00     0.070 C 
HETATM   10  C   UNL     1     -40.423 -47.760  11.662  1.00  0.00     0.030 A 
HETATM   11  C   UNL     1     -39.298 -48.012  12.592  1.00  0.00     0.070 C 
ENDBRANCH   3   4
ENDBRANCH   2   3
BRANCH   2  12
HETATM   12  N   UNL     1     -43.217 -51.391  13.553  1.00  0.00     0.093 N 
HETATM   13  H   UNL     1     -44.162 -51.429  13.941  1.00  0.00     0.316 HD
BRANCH  12  14
HETATM   14  C   UNL     1     -43.012 -52.597  12.732  1.00  0.00     0.221 C 
HETATM   15  C   UNL     1     -44.289 -53.371  12.370  1.00  0.00     0.035 C 
HETATM   16  C   UNL     1     -44.932 -54.043  13.580  1.00  0.00     0.002 C 
HETATM   17  C   UNL     1     -43.946 -54.952  14.310  1.00  0.00     0.000 C 
HETATM   18  C   UNL     1     -42.644 -54.233  14.666  1.00  0.00     0.002 C 
HETATM   19  C   UNL     1     -42.031 -53.546  13.449  1.00  0.00     0.035 C 
ENDBRANCH  12  14
ENDBRANCH   2  12
TORSDOF 4
ENDMDL
MODEL 8
REMARK VINA RESULT:      -4.6      1.867      4.202
REMARK  4 active torsions:
REMARK  status: ('A' for Active; 'I' for Inactive)
REMARK    1  A    between atoms: C_2  and  C_3 
REMARK    2  A    between atoms: C_2  and  N_12 
REMARK    3  A    between atoms: C_3  and  N_4 
REMARK    4  A    between atoms: N_12  and  C_13 
ROOT
HETATM    1  C   UNL     1     -44.492 -50.977  13.890  1.00  0.00     0.044 C 
HETATM    2  C   UNL     1     -43.127 -51.227  13.214  1.00  0.00     0.235 C 
ENDROOT
BRANCH   2   3
HETATM    3  C   UNL     1     -42.461 -49.841  13.012  1.00  0.00     0.164 C 
BRANCH   3   4
HETATM    4  N   UNL     1     -41.122 -49.815  12.458  1.00  0.00    -0.343 N 
HETATM    5  C   UNL     1     -40.846 -49.977  11.128  1.00  0.00     0.183 A 
HETATM    6  N   UNL     1     -39.559 -49.931  10.889  1.00  0.00    -0.354 N 
HETATM    7  C   UNL     1     -38.963 -49.827  12.121  1.00  0.00     0.028 A 
ATOM      8  HN  UNL     1     -39.098 -49.964   9.981  1.00  0.00     0.166 HD
HETATM    9  C   UNL     1     -37.486 -49.826  12.225  1.00  0.00     0.070 C 
HETATM   10  C   UNL     1     -39.919 -49.794  13.127  1.00  0.00     0.030 A 
HETATM   11  C   UNL     1     -39.768 -49.781  14.601  1.00  0.00     0.070 C 
ENDBRANCH   3   4
ENDBRANCH   2   3
BRANCH   2  12
HETATM   12  N   UNL     1     -42.416 -52.186  14.086  1.00  0.00     0.093 N 
HETATM   13  H   UNL     1     -42.951 -52.313  14.949  1.00  0.00     0.316 HD
BRANCH  12  14
HETATM   14  C   UNL     1     -42.134 -53.518  13.524  1.00  0.00     0.221 C 
HETATM   15  C   UNL     1     -42.151 -54.675  14.535  1.00  0.00     0.035 C 
HETATM   16  C   UNL     1     -40.990 -54.610  15.523  1.00  0.00     0.002 C 
HETATM   17  C   UNL     1     -39.643 -54.547  14.806  1.00  0.00     0.000 C 
HETATM   18  C   UNL     1     -39.587 -53.427  13.767  1.00  0.00     0.002 C 
HETATM   19  C   UNL     1     -40.770 -53.495  12.805  1.00  0.00     0.035 C 
ENDBRANCH  12  14
ENDBRANCH   2  12
TORSDOF 4
ENDMDL
MODEL 9
REMARK VINA RESULT:      -4.6      2.248      5.153
REMARK  4 active torsions:
REMARK  status: ('A' for Active; 'I' for Inactive)
REMARK    1  A    between atoms: C_2  and  C_3 
REMARK    2  A    between atoms: C_2  and  N_12 
REMARK    3  A    between atoms: C_3  and  N_4 
REMARK    4  A    between atoms: N_12  and  C_13 
ROOT
HETATM    1  C   UNL     1     -43.283 -52.552  18.301  1.00  0.00     0.044 C 
HETATM    2  C   UNL     1     -43.474 -52.686  16.775  1.00  0.00     0.235 C 
ENDROOT
BRANCH   2   3
HETATM    3  C   UNL     1     -44.164 -51.384  16.289  1.00  0.00     0.164 C 
BRANCH   3   4
HETATM    4  N   UNL     1     -44.648 -51.351  14.923  1.00  0.00    -0.343 N 
HETATM    5  C   UNL     1     -44.014 -50.688  13.908  1.00  0.00     0.183 A 
HETATM    6  N   UNL     1     -44.664 -50.798  12.776  1.00  0.00    -0.354 N 
HETATM    7  C   UNL     1     -45.814 -51.481  13.080  1.00  0.00     0.028 A 
ATOM      8  HN  UNL     1     -44.375 -50.451  11.862  1.00  0.00     0.166 HD
HETATM    9  C   UNL     1     -46.828 -51.719  12.028  1.00  0.00     0.070 C 
HETATM   10  C   UNL     1     -45.850 -51.805  14.430  1.00  0.00     0.030 A 
HETATM   11  C   UNL     1     -46.910 -52.449  15.239  1.00  0.00     0.070 C 
ENDBRANCH   3   4
ENDBRANCH   2   3
BRANCH   2  12
HETATM   12  N   UNL     1     -42.132 -52.973  16.225  1.00  0.00     0.093 N 
HETATM   13  H   UNL     1     -41.427 -52.745  16.930  1.00  0.00     0.316 HD
BRANCH  12  14
HETATM   14  C   UNL     1     -41.882 -54.347  15.757  1.00  0.00     0.221 C 
HETATM   15  C   UNL     1     -40.443 -54.633  15.297  1.00  0.00     0.035 C 
HETATM   16  C   UNL     1     -40.081 -53.899  14.009  1.00  0.00     0.002 C 
HETATM   17  C   UNL     1     -41.071 -54.206  12.888  1.00  0.00     0.000 C 
HETATM   18  C   UNL     1     -42.521 -53.964  13.308  1.00  0.00     0.002 C 
HETATM   19  C   UNL     1     -42.856 -54.685  14.610  1.00  0.00     0.035 C 
ENDBRANCH  12  14
ENDBRANCH   2  12
TORSDOF 4
ENDMDL
