MODEL 1
REMARK VINA RESULT:      -6.5      0.000      0.000
REMARK  2 active torsions:
REMARK  status: ('A' for Active; 'I' for Inactive)
REMARK    1  A    between atoms: C_7  and  N_8 
REMARK       I    between atoms: N_8  and  C_9 
REMARK       I    between atoms: C_9  and  N_11 
REMARK    2  A    between atoms: N_11  and  C_12 
ROOT
HETATM    1  N   UNL     1     -40.015 -49.747  10.982  1.00  0.00    -0.307 N 
HETATM    2  C   UNL     1     -41.204 -49.064  11.088  1.00  0.00     0.321 C 
HETATM    3  O   UNL     1     -41.898 -49.012  12.097  1.00  0.00    -0.247 OA
HETATM    4  N   UNL     1     -41.583 -48.436   9.921  1.00  0.00    -0.330 N 
HETATM    5  H   UNL     1     -39.761 -50.080  10.060  1.00  0.00     0.170 HD
HETATM    6  H   UNL     1     -40.830 -48.073   9.344  1.00  0.00     0.165 HD
ENDROOT
BRANCH   1   7
HETATM    7  C   UNL     1     -39.327 -50.338  12.089  1.00  0.00     0.061 A 
HETATM    8  C   UNL     1     -38.221 -49.704  12.666  1.00  0.00     0.048 A 
HETATM    9  C   UNL     1     -37.587 -50.295  13.742  1.00  0.00     0.090 A 
HETATM   10  N   UNL     1     -37.950 -51.482  14.259  1.00  0.00    -0.368 N 
HETATM   11  C   UNL     1     -39.002 -52.122  13.685  1.00  0.00     0.029 A 
ATOM     12  HN  UNL     1     -37.454 -51.889  15.052  1.00  0.00     0.165 HD
HETATM   13  C   UNL     1     -39.314 -53.466  14.279  1.00  0.00     0.070 C 
HETATM   14  C   UNL     1     -39.716 -51.580  12.603  1.00  0.00     0.083 A 
HETATM   15 CL   UNL     1     -41.087 -52.410  11.940  1.00  0.00    -0.080 Cl
ENDBRANCH   1   7
BRANCH   4  16
HETATM   16  C   UNL     1     -42.784 -47.586   9.987  1.00  0.00     0.172 C 
HETATM   17  C   UNL     1     -43.690 -47.838   8.780  1.00  0.00     0.034 C 
HETATM   18  C   UNL     1     -45.128 -47.414   9.072  1.00  0.00     0.004 C 
HETATM   19  C   UNL     1     -45.412 -45.932   8.869  1.00  0.00     0.015 C 
HETATM   20  C   UNL     1     -44.254 -44.966   9.075  1.00  0.00     0.095 C 
HETATM   21  N   UNL     1     -43.419 -45.183  10.239  1.00  0.00    -0.261 NA
HETATM   22  C   UNL     1     -42.407 -46.116  10.218  1.00  0.00     0.220 C 
HETATM   23  H   UNL     1     -43.041 -44.315  10.603  1.00  0.00     0.130 HD
HETATM   24  O   UNL     1     -41.267 -45.776  10.542  1.00  0.00    -0.278 OA
ENDBRANCH   4  16
TORSDOF 2
ENDMDL
MODEL 2
REMARK VINA RESULT:      -6.2      3.336      4.469
REMARK  2 active torsions:
REMARK  status: ('A' for Active; 'I' for Inactive)
REMARK    1  A    between atoms: C_7  and  N_8 
REMARK       I    between atoms: N_8  and  C_9 
REMARK       I    between atoms: C_9  and  N_11 
REMARK    2  A    between atoms: N_11  and  C_12 
ROOT
HETATM    1  N   UNL     1     -42.305 -52.291  11.926  1.00  0.00    -0.307 N 
HETATM    2  C   UNL     1     -42.344 -50.930  12.120  1.00  0.00     0.321 C 
HETATM    3  O   UNL     1     -43.052 -50.356  12.940  1.00  0.00    -0.247 OA
HETATM    4  N   UNL     1     -41.510 -50.231  11.274  1.00  0.00    -0.330 N 
HETATM    5  H   UNL     1     -42.050 -52.613  11.001  1.00  0.00     0.170 HD
HETATM    6  H   UNL     1     -40.640 -50.691  11.024  1.00  0.00     0.165 HD
ENDROOT
BRANCH   1   7
HETATM    7  C   UNL     1     -42.947 -53.242  12.781  1.00  0.00     0.061 A 
HETATM    8  C   UNL     1     -44.288 -53.591  12.587  1.00  0.00     0.048 A 
HETATM    9  C   UNL     1     -44.874 -54.523  13.423  1.00  0.00     0.090 A 
HETATM   10  N   UNL     1     -44.235 -55.101  14.455  1.00  0.00    -0.368 N 
HETATM   11  C   UNL     1     -42.942 -54.746  14.672  1.00  0.00     0.029 A 
ATOM     12  HN  UNL     1     -44.703 -55.783  15.053  1.00  0.00     0.165 HD
HETATM   13  C   UNL     1     -42.311 -55.391  15.873  1.00  0.00     0.070 C 
HETATM   14  C   UNL     1     -42.265 -53.824  13.856  1.00  0.00     0.083 A 
HETATM   15 CL   UNL     1     -40.597 -53.445  14.141  1.00  0.00    -0.080 Cl
ENDBRANCH   1   7
BRANCH   4  16
HETATM   16  C   UNL     1     -41.405 -48.779  11.500  1.00  0.00     0.172 C 
HETATM   17  C   UNL     1     -42.113 -48.007  10.384  1.00  0.00     0.034 C 
HETATM   18  C   UNL     1     -42.492 -46.601  10.841  1.00  0.00     0.004 C 
HETATM   19  C   UNL     1     -41.376 -45.570  10.730  1.00  0.00     0.015 C 
HETATM   20  C   UNL     1     -39.946 -46.075  10.856  1.00  0.00     0.095 C 
HETATM   21  N   UNL     1     -39.677 -47.024  11.917  1.00  0.00    -0.261 NA
HETATM   22  C   UNL     1     -39.949 -48.364  11.753  1.00  0.00     0.220 C 
HETATM   23  H   UNL     1     -38.733 -46.936  12.277  1.00  0.00     0.130 HD
HETATM   24  O   UNL     1     -39.061 -49.190  11.971  1.00  0.00    -0.278 OA
ENDBRANCH   4  16
TORSDOF 2
ENDMDL
MODEL 3
REMARK VINA RESULT:      -6.2      3.533      4.519
REMARK  2 active torsions:
REMARK  status: ('A' for Active; 'I' for Inactive)
REMARK    1  A    between atoms: C_7  and  N_8 
REMARK       I    between atoms: N_8  and  C_9 
REMARK       I    between atoms: C_9  and  N_11 
REMARK    2  A    between atoms: N_11  and  C_12 
ROOT
HETATM    1  N   UNL     1     -42.518 -52.053  12.020  1.00  0.00    -0.307 N 
HETATM    2  C   UNL     1     -42.406 -50.721  12.344  1.00  0.00     0.321 C 
HETATM    3  O   UNL     1     -42.761 -50.223  13.406  1.00  0.00    -0.247 OA
HETATM    4  N   UNL     1     -41.861 -49.955  11.336  1.00  0.00    -0.330 N 
HETATM    5  H   UNL     1     -42.608 -52.278  11.037  1.00  0.00     0.170 HD
HETATM    6  H   UNL     1     -41.155 -50.407  10.763  1.00  0.00     0.165 HD
ENDROOT
BRANCH   1   7
HETATM    7  C   UNL     1     -42.894 -53.076  12.948  1.00  0.00     0.061 A 
HETATM    8  C   UNL     1     -41.927 -53.747  13.706  1.00  0.00     0.048 A 
HETATM    9  C   UNL     1     -42.325 -54.721  14.602  1.00  0.00     0.090 A 
HETATM   10  N   UNL     1     -43.605 -55.098  14.770  1.00  0.00    -0.368 N 
HETATM   11  C   UNL     1     -44.548 -54.475  14.016  1.00  0.00     0.029 A 
ATOM     12  HN  UNL     1     -43.859 -55.825  15.440  1.00  0.00     0.165 HD
HETATM   13  C   UNL     1     -45.946 -54.987  14.219  1.00  0.00     0.070 C 
HETATM   14  C   UNL     1     -44.232 -53.460  13.099  1.00  0.00     0.083 A 
HETATM   15 CL   UNL     1     -45.478 -52.657  12.199  1.00  0.00    -0.080 Cl
ENDBRANCH   1   7
BRANCH   4  16
HETATM   16  C   UNL     1     -41.598 -48.540  11.650  1.00  0.00     0.172 C 
HETATM   17  C   UNL     1     -42.431 -47.624  10.751  1.00  0.00     0.034 C 
HETATM   18  C   UNL     1     -42.603 -46.243  11.379  1.00  0.00     0.004 C 
HETATM   19  C   UNL     1     -41.445 -45.283  11.140  1.00  0.00     0.015 C 
HETATM   20  C   UNL     1     -40.062 -45.892  10.953  1.00  0.00     0.095 C 
HETATM   21  N   UNL     1     -39.683 -46.950  11.868  1.00  0.00    -0.261 NA
HETATM   22  C   UNL     1     -40.091 -48.248  11.654  1.00  0.00     0.220 C 
HETATM   23  H   UNL     1     -38.685 -46.958  12.048  1.00  0.00     0.130 HD
HETATM   24  O   UNL     1     -39.249 -49.148  11.636  1.00  0.00    -0.278 OA
ENDBRANCH   4  16
TORSDOF 2
ENDMDL
MODEL 4
REMARK VINA RESULT:      -6.0      3.206      7.219
REMARK  2 active torsions:
REMARK  status: ('A' for Active; 'I' for Inactive)
REMARK    1  A    between atoms: C_7  and  N_8 
REMARK       I    between atoms: N_8  and  C_9 
REMARK       I    between atoms: C_9  and  N_11 
REMARK    2  A    between atoms: N_11  and  C_12 
ROOT
HETATM    1  N   UNL     1     -41.832 -49.678  11.045  1.00  0.00    -0.307 N 
HETATM    2  C   UNL     1     -42.151 -50.284  12.237  1.00  0.00     0.321 C 
HETATM    3  O   UNL     1     -42.369 -49.695  13.290  1.00  0.00    -0.247 OA
HETATM    4  N   UNL     1     -42.188 -51.660  12.162  1.00  0.00    -0.330 N 
HETATM    5  H   UNL     1     -41.274 -50.217  10.394  1.00  0.00     0.170 HD
HETATM    6  H   UNL     1     -42.513 -52.050  11.283  1.00  0.00     0.165 HD
ENDROOT
BRANCH   1   7
HETATM    7  C   UNL     1     -41.892 -48.266  10.821  1.00  0.00     0.061 A 
HETATM    8  C   UNL     1     -43.046 -47.672  10.298  1.00  0.00     0.048 A 
HETATM    9  C   UNL     1     -43.075 -46.303  10.105  1.00  0.00     0.090 A 
HETATM   10  N   UNL     1     -42.032 -45.494  10.360  1.00  0.00    -0.368 N 
HETATM   11  C   UNL     1     -40.896 -46.065  10.838  1.00  0.00     0.029 A 
ATOM     12  HN  UNL     1     -42.091 -44.488  10.201  1.00  0.00     0.165 HD
HETATM   13  C   UNL     1     -39.757 -45.108  11.047  1.00  0.00     0.070 C 
HETATM   14  C   UNL     1     -40.789 -47.444  11.084  1.00  0.00     0.083 A 
HETATM   15 CL   UNL     1     -39.335 -48.118  11.746  1.00  0.00    -0.080 Cl
ENDBRANCH   1   7
BRANCH   4  16
HETATM   16  C   UNL     1     -42.640 -52.377  13.367  1.00  0.00     0.172 C 
HETATM   17  C   UNL     1     -41.454 -53.026  14.084  1.00  0.00     0.034 C 
HETATM   18  C   UNL     1     -41.776 -53.292  15.553  1.00  0.00     0.004 C 
HETATM   19  C   UNL     1     -42.535 -54.586  15.817  1.00  0.00     0.015 C 
HETATM   20  C   UNL     1     -43.447 -55.097  14.710  1.00  0.00     0.095 C 
HETATM   21  N   UNL     1     -44.292 -54.121  14.053  1.00  0.00    -0.261 NA
HETATM   22  C   UNL     1     -43.799 -53.328  13.041  1.00  0.00     0.220 C 
HETATM   23  H   UNL     1     -45.168 -54.525  13.741  1.00  0.00     0.130 HD
HETATM   24  O   UNL     1     -44.398 -53.285  11.964  1.00  0.00    -0.278 OA
ENDBRANCH   4  16
TORSDOF 2
ENDMDL
MODEL 5
REMARK VINA RESULT:      -6.0      4.413      5.358
REMARK  2 active torsions:
REMARK  status: ('A' for Active; 'I' for Inactive)
REMARK    1  A    between atoms: C_7  and  N_8 
REMARK       I    between atoms: N_8  and  C_9 
REMARK       I    between atoms: C_9  and  N_11 
REMARK    2  A    between atoms: N_11  and  C_12 
ROOT
HETATM    1  N   UNL     1     -44.445 -50.758  12.838  1.00  0.00    -0.307 N 
HETATM    2  C   UNL     1     -43.244 -50.090  12.886  1.00  0.00     0.321 C 
HETATM    3  O   UNL     1     -42.257 -50.462  13.510  1.00  0.00    -0.247 OA
HETATM    4  N   UNL     1     -43.242 -48.912  12.170  1.00  0.00    -0.330 N 
HETATM    5  H   UNL     1     -45.274 -50.197  12.681  1.00  0.00     0.170 HD
HETATM    6  H   UNL     1     -43.802 -48.903  11.323  1.00  0.00     0.165 HD
ENDROOT
BRANCH   1   7
HETATM    7  C   UNL     1     -44.652 -52.075  13.356  1.00  0.00     0.061 A 
HETATM    8  C   UNL     1     -44.414 -53.203  12.562  1.00  0.00     0.048 A 
HETATM    9  C   UNL     1     -44.612 -54.462  13.097  1.00  0.00     0.090 A 
HETATM   10  N   UNL     1     -45.062 -54.677  14.346  1.00  0.00    -0.368 N 
HETATM   11  C   UNL     1     -45.327 -53.588  15.114  1.00  0.00     0.029 A 
ATOM     12  HN  UNL     1     -45.199 -55.622  14.704  1.00  0.00     0.165 HD
HETATM   13  C   UNL     1     -45.878 -53.905  16.475  1.00  0.00     0.070 C 
HETATM   14  C   UNL     1     -45.132 -52.275  14.655  1.00  0.00     0.083 A 
HETATM   15 CL   UNL     1     -45.433 -50.919  15.694  1.00  0.00    -0.080 Cl
ENDBRANCH   1   7
BRANCH   4  16
HETATM   16  C   UNL     1     -41.956 -48.199  12.075  1.00  0.00     0.172 C 
HETATM   17  C   UNL     1     -41.852 -47.128  13.163  1.00  0.00     0.034 C 
HETATM   18  C   UNL     1     -40.395 -46.764  13.439  1.00  0.00     0.004 C 
HETATM   19  C   UNL     1     -39.801 -45.734  12.488  1.00  0.00     0.015 C 
HETATM   20  C   UNL     1     -40.366 -45.683  11.075  1.00  0.00     0.095 C 
HETATM   21  N   UNL     1     -40.576 -46.951  10.407  1.00  0.00    -0.261 NA
HETATM   22  C   UNL     1     -41.709 -47.696  10.645  1.00  0.00     0.220 C 
HETATM   23  H   UNL     1     -40.451 -46.878   9.404  1.00  0.00     0.130 HD
HETATM   24  O   UNL     1     -42.395 -48.070   9.692  1.00  0.00    -0.278 OA
ENDBRANCH   4  16
TORSDOF 2
ENDMDL
MODEL 6
REMARK VINA RESULT:      -6.0      4.486      6.890
REMARK  2 active torsions:
REMARK  status: ('A' for Active; 'I' for Inactive)
REMARK    1  A    between atoms: C_7  and  N_8 
REMARK       I    between atoms: N_8  and  C_9 
REMARK       I    between atoms: C_9  and  N_11 
REMARK    2  A    between atoms: N_11  and  C_12 
ROOT
HETATM    1  N   UNL     1     -42.219 -50.129  11.750  1.00  0.00    -0.307 N 
HETATM    2  C   UNL     1     -42.983 -50.524  12.823  1.00  0.00     0.321 C 
HETATM    3  O   UNL     1     -43.073 -49.915  13.884  1.00  0.00    -0.247 OA
HETATM    4  N   UNL     1     -43.648 -51.713  12.617  1.00  0.00    -0.330 N 
HETATM    5  H   UNL     1     -41.879 -50.861  11.138  1.00  0.00     0.170 HD
HETATM    6  H   UNL     1     -43.964 -51.888  11.668  1.00  0.00     0.165 HD
ENDROOT
BRANCH   1   7
HETATM    7  C   UNL     1     -41.569 -48.858  11.650  1.00  0.00     0.061 A 
HETATM    8  C   UNL     1     -40.233 -48.704  12.036  1.00  0.00     0.048 A 
HETATM    9  C   UNL     1     -39.632 -47.465  11.916  1.00  0.00     0.090 A 
HETATM   10  N   UNL     1     -40.272 -46.368  11.476  1.00  0.00    -0.368 N 
HETATM   11  C   UNL     1     -41.579 -46.500  11.129  1.00  0.00     0.029 A 
ATOM     12  HN  UNL     1     -39.794 -45.469  11.404  1.00  0.00     0.165 HD
HETATM   13  C   UNL     1     -42.241 -45.222  10.699  1.00  0.00     0.070 C 
HETATM   14  C   UNL     1     -42.259 -47.727  11.199  1.00  0.00     0.083 A 
HETATM   15 CL   UNL     1     -43.912 -47.855  10.692  1.00  0.00    -0.080 Cl
ENDBRANCH   1   7
BRANCH   4  16
HETATM   16  C   UNL     1     -44.581 -52.141  13.673  1.00  0.00     0.172 C 
HETATM   17  C   UNL     1     -43.857 -52.995  14.717  1.00  0.00     0.034 C 
HETATM   18  C   UNL     1     -44.609 -52.996  16.046  1.00  0.00     0.004 C 
HETATM   19  C   UNL     1     -45.748 -54.003  16.135  1.00  0.00     0.015 C 
HETATM   20  C   UNL     1     -46.451 -54.377  14.838  1.00  0.00     0.095 C 
HETATM   21  N   UNL     1     -46.782 -53.293  13.936  1.00  0.00    -0.261 NA
HETATM   22  C   UNL     1     -45.840 -52.781  13.072  1.00  0.00     0.220 C 
HETATM   23  H   UNL     1     -47.626 -53.483  13.406  1.00  0.00     0.130 HD
HETATM   24  O   UNL     1     -46.103 -52.705  11.870  1.00  0.00    -0.278 OA
ENDBRANCH   4  16
TORSDOF 2
ENDMDL
MODEL 7
REMARK VINA RESULT:      -5.8      3.404      5.100
REMARK  2 active torsions:
REMARK  status: ('A' for Active; 'I' for Inactive)
REMARK    1  A    between atoms: C_7  and  N_8 
REMARK       I    between atoms: N_8  and  C_9 
REMARK       I    between atoms: C_9  and  N_11 
REMARK    2  A    between atoms: N_11  and  C_12 
ROOT
HETATM    1  N   UNL     1     -42.104 -52.463  11.730  1.00  0.00    -0.307 N 
HETATM    2  C   UNL     1     -41.635 -51.211  12.055  1.00  0.00     0.321 C 
HETATM    3  O   UNL     1     -41.980 -50.564  13.038  1.00  0.00    -0.247 OA
HETATM    4  N   UNL     1     -40.730 -50.710  11.145  1.00  0.00    -0.330 N 
HETATM    5  H   UNL     1     -42.104 -52.709  10.748  1.00  0.00     0.170 HD
HETATM    6  H   UNL     1     -40.119 -51.390  10.703  1.00  0.00     0.165 HD
ENDROOT
BRANCH   1   7
HETATM    7  C   UNL     1     -42.918 -53.263  12.592  1.00  0.00     0.061 A 
HETATM    8  C   UNL     1     -44.309 -53.299  12.436  1.00  0.00     0.048 A 
HETATM    9  C   UNL     1     -45.065 -54.092  13.277  1.00  0.00     0.090 A 
HETATM   10  N   UNL     1     -44.544 -54.821  14.279  1.00  0.00    -0.368 N 
HETATM   11  C   UNL     1     -43.199 -54.769  14.460  1.00  0.00     0.029 A 
ATOM     12  HN  UNL     1     -45.137 -55.393  14.882  1.00  0.00     0.165 HD
HETATM   13  C   UNL     1     -42.696 -55.565  15.631  1.00  0.00     0.070 C 
HETATM   14  C   UNL     1     -42.355 -54.006  13.636  1.00  0.00     0.083 A 
HETATM   15 CL   UNL     1     -40.637 -54.016  13.873  1.00  0.00    -0.080 Cl
ENDBRANCH   1   7
BRANCH   4  16
HETATM   16  C   UNL     1     -40.093 -49.426  11.485  1.00  0.00     0.172 C 
HETATM   17  C   UNL     1     -39.648 -49.416  12.950  1.00  0.00     0.034 C 
HETATM   18  C   UNL     1     -38.548 -48.384  13.184  1.00  0.00     0.004 C 
HETATM   19  C   UNL     1     -39.042 -46.962  13.412  1.00  0.00     0.015 C 
HETATM   20  C   UNL     1     -40.358 -46.568  12.756  1.00  0.00     0.095 C 
HETATM   21  N   UNL     1     -40.549 -46.972  11.378  1.00  0.00    -0.261 NA
HETATM   22  C   UNL     1     -40.978 -48.243  11.069  1.00  0.00     0.220 C 
HETATM   23  H   UNL     1     -41.122 -46.312  10.864  1.00  0.00     0.130 HD
HETATM   24  O   UNL     1     -41.960 -48.386  10.336  1.00  0.00    -0.278 OA
ENDBRANCH   4  16
TORSDOF 2
ENDMDL
MODEL 8
REMARK VINA RESULT:      -5.8      4.641      6.893
REMARK  2 active torsions:
REMARK  status: ('A' for Active; 'I' for Inactive)
REMARK    1  A    between atoms: C_7  and  N_8 
REMARK       I    between atoms: N_8  and  C_9 
REMARK       I    between atoms: C_9  and  N_11 
REMARK    2  A    between atoms: N_11  and  C_12 
ROOT
HETATM    1  N   UNL     1     -43.872 -52.019  13.053  1.00  0.00    -0.307 N 
HETATM    2  C   UNL     1     -42.713 -51.311  13.270  1.00  0.00     0.321 C 
HETATM    3  O   UNL     1     -42.505 -50.580  14.232  1.00  0.00    -0.247 OA
HETATM    4  N   UNL     1     -41.773 -51.475  12.275  1.00  0.00    -0.330 N 
HETATM    5  H   UNL     1     -44.108 -52.222  12.089  1.00  0.00     0.170 HD
HETATM    6  H   UNL     1     -41.743 -52.390  11.837  1.00  0.00     0.165 HD
ENDROOT
BRANCH   1   7
HETATM    7  C   UNL     1     -44.926 -52.148  14.011  1.00  0.00     0.061 A 
HETATM    8  C   UNL     1     -46.047 -51.311  13.962  1.00  0.00     0.048 A 
HETATM    9  C   UNL     1     -47.053 -51.471  14.896  1.00  0.00     0.090 A 
HETATM   10  N   UNL     1     -47.007 -52.374  15.891  1.00  0.00    -0.368 N 
HETATM   11  C   UNL     1     -45.908 -53.169  15.967  1.00  0.00     0.029 A 
ATOM     12  HN  UNL     1     -47.769 -52.459  16.564  1.00  0.00     0.165 HD
HETATM   13  C   UNL     1     -45.903 -54.114  17.135  1.00  0.00     0.070 C 
HETATM   14  C   UNL     1     -44.851 -53.088  15.046  1.00  0.00     0.083 A 
HETATM   15 CL   UNL     1     -43.495 -54.163  15.153  1.00  0.00    -0.080 Cl
ENDBRANCH   1   7
BRANCH   4  16
HETATM   16  C   UNL     1     -40.460 -50.845  12.495  1.00  0.00     0.172 C 
HETATM   17  C   UNL     1     -40.095 -49.936  11.319  1.00  0.00     0.034 C 
HETATM   18  C   UNL     1     -39.063 -48.889  11.732  1.00  0.00     0.004 C 
HETATM   19  C   UNL     1     -37.617 -49.369  11.700  1.00  0.00     0.015 C 
HETATM   20  C   UNL     1     -37.370 -50.851  11.942  1.00  0.00     0.095 C 
HETATM   21  N   UNL     1     -38.101 -51.468  13.030  1.00  0.00    -0.261 NA
HETATM   22  C   UNL     1     -39.399 -51.893  12.858  1.00  0.00     0.220 C 
HETATM   23  H   UNL     1     -37.577 -52.221  13.462  1.00  0.00     0.130 HD
HETATM   24  O   UNL     1     -39.697 -53.052  13.153  1.00  0.00    -0.278 OA
ENDBRANCH   4  16
TORSDOF 2
ENDMDL
MODEL 9
REMARK VINA RESULT:      -5.7      3.934      6.550
REMARK  2 active torsions:
REMARK  status: ('A' for Active; 'I' for Inactive)
REMARK    1  A    between atoms: C_7  and  N_8 
REMARK       I    between atoms: N_8  and  C_9 
REMARK       I    between atoms: C_9  and  N_11 
REMARK    2  A    between atoms: N_11  and  C_12 
ROOT
HETATM    1  N   UNL     1     -42.130 -47.280  13.283  1.00  0.00    -0.307 N 
HETATM    2  C   UNL     1     -42.914 -48.283  12.763  1.00  0.00     0.321 C 
HETATM    3  O   UNL     1     -43.529 -48.217  11.704  1.00  0.00    -0.247 OA
HETATM    4  N   UNL     1     -42.977 -49.403  13.563  1.00  0.00    -0.330 N 
HETATM    5  H   UNL     1     -42.033 -47.254  14.291  1.00  0.00     0.170 HD
HETATM    6  H   UNL     1     -42.136 -49.627  14.085  1.00  0.00     0.165 HD
ENDROOT
BRANCH   1   7
HETATM    7  C   UNL     1     -41.771 -46.091  12.573  1.00  0.00     0.061 A 
HETATM    8  C   UNL     1     -42.487 -44.903  12.756  1.00  0.00     0.048 A 
HETATM    9  C   UNL     1     -42.106 -43.769  12.064  1.00  0.00     0.090 A 
HETATM   10  N   UNL     1     -41.092 -43.742  11.181  1.00  0.00    -0.368 N 
HETATM   11  C   UNL     1     -40.411 -44.899  10.972  1.00  0.00     0.029 A 
ATOM     12  HN  UNL     1     -40.843 -42.885  10.686  1.00  0.00     0.165 HD
HETATM   13  C   UNL     1     -39.329 -44.805   9.934  1.00  0.00     0.070 C 
HETATM   14  C   UNL     1     -40.718 -46.090  11.651  1.00  0.00     0.083 A 
HETATM   15 CL   UNL     1     -39.782 -47.526  11.390  1.00  0.00    -0.080 Cl
ENDBRANCH   1   7
BRANCH   4  16
HETATM   16  C   UNL     1     -43.701 -50.565  13.019  1.00  0.00     0.172 C 
HETATM   17  C   UNL     1     -44.785 -51.030  13.994  1.00  0.00     0.034 C 
HETATM   18  C   UNL     1     -45.866 -51.831  13.273  1.00  0.00     0.004 C 
HETATM   19  C   UNL     1     -45.540 -53.305  13.066  1.00  0.00     0.015 C 
HETATM   20  C   UNL     1     -44.071 -53.681  12.939  1.00  0.00     0.095 C 
HETATM   21  N   UNL     1     -43.250 -52.841  12.091  1.00  0.00    -0.261 NA
HETATM   22  C   UNL     1     -42.725 -51.659  12.565  1.00  0.00     0.220 C 
HETATM   23  H   UNL     1     -42.503 -53.363  11.646  1.00  0.00     0.130 HD
HETATM   24  O   UNL     1     -41.513 -51.455  12.461  1.00  0.00    -0.278 OA
ENDBRANCH   4  16
TORSDOF 2
ENDMDL
