MODEL 1
REMARK VINA RESULT:      -6.3      0.000      0.000
REMARK  6 active torsions:
REMARK  status: ('A' for Active; 'I' for Inactive)
REMARK    1  A    between atoms: N_5  and  C_6 
REMARK    2  A    between atoms: C_6  and  C_7 
REMARK    3  A    between atoms: C_7  and  O_8 
REMARK    4  A    between atoms: C_12  and  C_19 
REMARK    5  A    between atoms: C_14  and  C_15 
REMARK    6  A    between atoms: C_15  and  O_17 
ROOT
HETATM    1  C   UNL     1     -37.635 -50.690  12.086  1.00  0.00     0.070 C 
HETATM    2  C   UNL     1     -39.076 -50.348  11.934  1.00  0.00     0.037 A 
HETATM    3  N   UNL     1     -39.406 -49.308  11.156  1.00  0.00    -0.300 N 
ATOM      4  HN  UNL     1     -38.781 -48.701  10.626  1.00  0.00     0.187 HD
HETATM    5  N   UNL     1     -40.751 -49.248  11.233  1.00  0.00    -0.274 N 
HETATM    6  C   UNL     1     -41.298 -50.244  12.001  1.00  0.00     0.136 A 
HETATM    7  N   UNL     1     -42.613 -50.451  12.227  1.00  0.00    -0.338 N 
ATOM      8  HN  UNL     1     -43.345 -49.870  11.818  1.00  0.00     0.167 HD
HETATM    9  C   UNL     1     -42.873 -51.498  13.045  1.00  0.00     0.069 A 
HETATM   10  C   UNL     1     -41.895 -52.310  13.613  1.00  0.00     0.052 A 
HETATM   11  C   UNL     1     -40.545 -52.078  13.323  1.00  0.00     0.056 A 
HETATM   12  C   UNL     1     -40.227 -50.985  12.491  1.00  0.00     0.050 A 
ENDROOT
BRANCH   9  13
HETATM   13  C   UNL     1     -44.292 -51.735  13.301  1.00  0.00     0.101 A 
HETATM   14  C   UNL     1     -45.235 -51.145  14.119  1.00  0.00     0.041 A 
HETATM   15  C   UNL     1     -46.453 -51.841  13.910  1.00  0.00     0.027 A 
HETATM   16  C   UNL     1     -46.181 -52.813  12.978  1.00  0.00     0.142 A 
HETATM   17  O   UNL     1     -44.879 -52.757  12.601  1.00  0.00    -0.321 OA
ENDBRANCH   9  13
BRANCH  11  18
HETATM   18  C   UNL     1     -39.490 -52.915  13.933  1.00  0.00     0.177 C 
HETATM   19  O   UNL     1     -38.923 -52.627  14.971  1.00  0.00    -0.646 OA
BRANCH  18  20
HETATM   20  O   UNL     1     -39.206 -54.041  13.243  1.00  0.00    -0.773 OA
HETATM   21  H   UNL     1     -39.754 -54.228  12.459  1.00  0.00     0.167 HD
ENDBRANCH  18  20
ENDBRANCH  11  18
BRANCH   5  22
HETATM   22  C   UNL     1     -41.487 -48.235  10.496  1.00  0.00     0.177 C 
BRANCH  22  23
HETATM   23  C   UNL     1     -41.135 -46.796  10.881  1.00  0.00     0.185 C 
BRANCH  23  24
HETATM   24  O   UNL     1     -39.916 -46.377  10.269  1.00  0.00    -0.399 OA
HETATM   25  H   UNL     1     -40.189 -45.734   9.577  1.00  0.00     0.209 HD
ENDBRANCH  23  24
ENDBRANCH  22  23
ENDBRANCH   5  22
TORSDOF 6
ENDMDL
MODEL 2
REMARK VINA RESULT:      -6.2      1.849      5.273
REMARK  6 active torsions:
REMARK  status: ('A' for Active; 'I' for Inactive)
REMARK    1  A    between atoms: N_5  and  C_6 
REMARK    2  A    between atoms: C_6  and  C_7 
REMARK    3  A    between atoms: C_7  and  O_8 
REMARK    4  A    between atoms: C_12  and  C_19 
REMARK    5  A    between atoms: C_14  and  C_15 
REMARK    6  A    between atoms: C_15  and  O_17 
ROOT
HETATM    1  C   UNL     1     -39.264 -54.078  13.969  1.00  0.00     0.070 C 
HETATM    2  C   UNL     1     -40.312 -53.222  13.347  1.00  0.00     0.037 A 
HETATM    3  N   UNL     1     -41.564 -53.694  13.280  1.00  0.00    -0.300 N 
ATOM      4  HN  UNL     1     -41.913 -54.591  13.618  1.00  0.00     0.187 HD
HETATM    5  N   UNL     1     -42.258 -52.714  12.666  1.00  0.00    -0.274 N 
HETATM    6  C   UNL     1     -41.499 -51.609  12.375  1.00  0.00     0.136 A 
HETATM    7  N   UNL     1     -41.932 -50.470  11.796  1.00  0.00    -0.338 N 
ATOM      8  HN  UNL     1     -42.904 -50.318  11.525  1.00  0.00     0.167 HD
HETATM    9  C   UNL     1     -40.961 -49.545  11.606  1.00  0.00     0.069 A 
HETATM   10  C   UNL     1     -39.629 -49.722  11.969  1.00  0.00     0.052 A 
HETATM   11  C   UNL     1     -39.232 -50.909  12.600  1.00  0.00     0.056 A 
HETATM   12  C   UNL     1     -40.206 -51.907  12.799  1.00  0.00     0.050 A 
ENDROOT
BRANCH   9  13
HETATM   13  C   UNL     1     -41.413 -48.305  10.978  1.00  0.00     0.101 A 
HETATM   14  C   UNL     1     -42.509 -47.956  10.213  1.00  0.00     0.041 A 
HETATM   15  C   UNL     1     -42.372 -46.579   9.905  1.00  0.00     0.027 A 
HETATM   16  C   UNL     1     -41.203 -46.169  10.499  1.00  0.00     0.142 A 
HETATM   17  O   UNL     1     -40.615 -47.204  11.152  1.00  0.00    -0.321 OA
ENDBRANCH   9  13
BRANCH  11  18
HETATM   18  C   UNL     1     -37.819 -51.125  12.974  1.00  0.00     0.177 C 
HETATM   19  O   UNL     1     -37.021 -51.713  12.267  1.00  0.00    -0.646 OA
BRANCH  18  20
HETATM   20  O   UNL     1     -37.477 -50.607  14.173  1.00  0.00    -0.773 OA
HETATM   21  H   UNL     1     -36.765 -51.058  14.662  1.00  0.00     0.167 HD
ENDBRANCH  18  20
ENDBRANCH  11  18
BRANCH   5  22
HETATM   22  C   UNL     1     -43.683 -52.860  12.423  1.00  0.00     0.177 C 
BRANCH  22  23
HETATM   23  C   UNL     1     -44.286 -54.152  12.977  1.00  0.00     0.185 C 
BRANCH  23  24
HETATM   24  O   UNL     1     -45.709 -54.152  12.865  1.00  0.00    -0.399 OA
HETATM   25  H   UNL     1     -46.031 -53.824  13.733  1.00  0.00     0.209 HD
ENDBRANCH  23  24
ENDBRANCH  22  23
ENDBRANCH   5  22
TORSDOF 6
ENDMDL
MODEL 3
REMARK VINA RESULT:      -6.0      2.532      5.686
REMARK  6 active torsions:
REMARK  status: ('A' for Active; 'I' for Inactive)
REMARK    1  A    between atoms: N_5  and  C_6 
REMARK    2  A    between atoms: C_6  and  C_7 
REMARK    3  A    between atoms: C_7  and  O_8 
REMARK    4  A    between atoms: C_12  and  C_19 
REMARK    5  A    between atoms: C_14  and  C_15 
REMARK    6  A    between atoms: C_15  and  O_17 
ROOT
HETATM    1  C   UNL     1     -46.039 -51.634  12.979  1.00  0.00     0.070 C 
HETATM    2  C   UNL     1     -44.571 -51.710  13.221  1.00  0.00     0.037 A 
HETATM    3  N   UNL     1     -43.808 -50.678  12.835  1.00  0.00    -0.300 N 
ATOM      4  HN  UNL     1     -44.107 -49.810  12.390  1.00  0.00     0.187 HD
HETATM    5  N   UNL     1     -42.555 -51.046  13.171  1.00  0.00    -0.274 N 
HETATM    6  C   UNL     1     -42.495 -52.264  13.799  1.00  0.00     0.136 A 
HETATM    7  N   UNL     1     -41.384 -52.866  14.275  1.00  0.00    -0.338 N 
ATOM      8  HN  UNL     1     -40.457 -52.445  14.219  1.00  0.00     0.167 HD
HETATM    9  C   UNL     1     -41.611 -54.079  14.832  1.00  0.00     0.069 A 
HETATM   10  C   UNL     1     -42.866 -54.676  14.926  1.00  0.00     0.052 A 
HETATM   11  C   UNL     1     -43.995 -53.997  14.449  1.00  0.00     0.056 A 
HETATM   12  C   UNL     1     -43.802 -52.740  13.843  1.00  0.00     0.050 A 
ENDROOT
BRANCH   9  13
HETATM   13  C   UNL     1     -40.419 -54.746  15.351  1.00  0.00     0.101 A 
HETATM   14  C   UNL     1     -39.074 -54.696  15.039  1.00  0.00     0.041 A 
HETATM   15  C   UNL     1     -38.415 -55.592  15.918  1.00  0.00     0.027 A 
HETATM   16  C   UNL     1     -39.395 -56.135  16.714  1.00  0.00     0.142 A 
HETATM   17  O   UNL     1     -40.610 -55.630  16.381  1.00  0.00    -0.321 OA
ENDBRANCH   9  13
BRANCH  11  18
HETATM   18  C   UNL     1     -45.333 -54.623  14.520  1.00  0.00     0.177 C 
HETATM   19  O   UNL     1     -46.013 -54.635  15.529  1.00  0.00    -0.646 OA
BRANCH  18  20
HETATM   20  O   UNL     1     -45.747 -55.180  13.362  1.00  0.00    -0.773 OA
HETATM   21  H   UNL     1     -45.102 -55.729  12.880  1.00  0.00     0.167 HD
ENDBRANCH  18  20
ENDBRANCH  11  18
BRANCH   5  22
HETATM   22  C   UNL     1     -41.432 -50.160  12.915  1.00  0.00     0.177 C 
BRANCH  22  23
HETATM   23  C   UNL     1     -40.639 -50.497  11.652  1.00  0.00     0.185 C 
BRANCH  23  24
HETATM   24  O   UNL     1     -39.736 -51.580  11.877  1.00  0.00    -0.399 OA
HETATM   25  H   UNL     1     -40.258 -52.389  11.679  1.00  0.00     0.209 HD
ENDBRANCH  23  24
ENDBRANCH  22  23
ENDBRANCH   5  22
TORSDOF 6
ENDMDL
MODEL 4
REMARK VINA RESULT:      -5.9      1.653      4.241
REMARK  6 active torsions:
REMARK  status: ('A' for Active; 'I' for Inactive)
REMARK    1  A    between atoms: N_5  and  C_6 
REMARK    2  A    between atoms: C_6  and  C_7 
REMARK    3  A    between atoms: C_7  and  O_8 
REMARK    4  A    between atoms: C_12  and  C_19 
REMARK    5  A    between atoms: C_14  and  C_15 
REMARK    6  A    between atoms: C_15  and  O_17 
ROOT
HETATM    1  C   UNL     1     -38.125 -49.701  11.708  1.00  0.00     0.070 C 
HETATM    2  C   UNL     1     -39.108 -50.459  12.529  1.00  0.00     0.037 A 
HETATM    3  N   UNL     1     -38.654 -51.440  13.321  1.00  0.00    -0.300 N 
ATOM      4  HN  UNL     1     -37.689 -51.745  13.451  1.00  0.00     0.187 HD
HETATM    5  N   UNL     1     -39.763 -51.934  13.910  1.00  0.00    -0.274 N 
HETATM    6  C   UNL     1     -40.910 -51.271  13.553  1.00  0.00     0.136 A 
HETATM    7  N   UNL     1     -42.155 -51.523  14.009  1.00  0.00    -0.338 N 
ATOM      8  HN  UNL     1     -42.359 -52.248  14.697  1.00  0.00     0.167 HD
HETATM    9  C   UNL     1     -43.110 -50.727  13.471  1.00  0.00     0.069 A 
HETATM   10  C   UNL     1     -42.861 -49.728  12.534  1.00  0.00     0.052 A 
HETATM   11  C   UNL     1     -41.546 -49.480  12.116  1.00  0.00     0.056 A 
HETATM   12  C   UNL     1     -40.523 -50.298  12.636  1.00  0.00     0.050 A 
ENDROOT
BRANCH   9  13
HETATM   13  C   UNL     1     -44.465 -50.988  13.952  1.00  0.00     0.101 A 
HETATM   14  C   UNL     1     -45.054 -51.023  15.201  1.00  0.00     0.041 A 
HETATM   15  C   UNL     1     -46.422 -51.336  15.001  1.00  0.00     0.027 A 
HETATM   16  C   UNL     1     -46.587 -51.475  13.644  1.00  0.00     0.142 A 
HETATM   17  O   UNL     1     -45.411 -51.265  13.000  1.00  0.00    -0.321 OA
ENDBRANCH   9  13
BRANCH  11  18
HETATM   18  C   UNL     1     -41.263 -48.438  11.107  1.00  0.00     0.177 C 
HETATM   19  O   UNL     1     -40.975 -47.290  11.392  1.00  0.00    -0.646 OA
BRANCH  18  20
HETATM   20  O   UNL     1     -41.343 -48.866   9.829  1.00  0.00    -0.773 OA
HETATM   21  H   UNL     1     -40.512 -48.898   9.320  1.00  0.00     0.167 HD
ENDBRANCH  18  20
ENDBRANCH  11  18
BRANCH   5  22
HETATM   22  C   UNL     1     -39.668 -53.024  14.866  1.00  0.00     0.177 C 
BRANCH  22  23
HETATM   23  C   UNL     1     -39.634 -54.416  14.233  1.00  0.00     0.185 C 
BRANCH  23  24
HETATM   24  O   UNL     1     -38.545 -54.545  13.319  1.00  0.00    -0.399 OA
HETATM   25  H   UNL     1     -38.934 -54.965  12.520  1.00  0.00     0.209 HD
ENDBRANCH  23  24
ENDBRANCH  22  23
ENDBRANCH   5  22
TORSDOF 6
ENDMDL
MODEL 5
REMARK VINA RESULT:      -5.8      3.912      6.569
REMARK  6 active torsions:
REMARK  status: ('A' for Active; 'I' for Inactive)
REMARK    1  A    between atoms: N_5  and  C_6 
REMARK    2  A    between atoms: C_6  and  C_7 
REMARK    3  A    between atoms: C_7  and  O_8 
REMARK    4  A    between atoms: C_12  and  C_19 
REMARK    5  A    between atoms: C_14  and  C_15 
REMARK    6  A    between atoms: C_15  and  O_17 
ROOT
HETATM    1  C   UNL     1     -42.454 -43.248  11.919  1.00  0.00     0.070 C 
HETATM    2  C   UNL     1     -42.194 -44.675  11.582  1.00  0.00     0.037 A 
HETATM    3  N   UNL     1     -43.018 -45.287  10.721  1.00  0.00    -0.300 N 
ATOM      4  HN  UNL     1     -43.825 -44.892  10.239  1.00  0.00     0.187 HD
HETATM    5  N   UNL     1     -42.538 -46.544  10.637  1.00  0.00    -0.274 N 
HETATM    6  C   UNL     1     -41.405 -46.747  11.383  1.00  0.00     0.136 A 
HETATM    7  N   UNL     1     -40.691 -47.889  11.463  1.00  0.00    -0.338 N 
ATOM      8  HN  UNL     1     -40.933 -48.733  10.944  1.00  0.00     0.167 HD
HETATM    9  C   UNL     1     -39.625 -47.816  12.295  1.00  0.00     0.069 A 
HETATM   10  C   UNL     1     -39.268 -46.678  13.013  1.00  0.00     0.052 A 
HETATM   11  C   UNL     1     -40.020 -45.504  12.872  1.00  0.00     0.056 A 
HETATM   12  C   UNL     1     -41.150 -45.541  12.031  1.00  0.00     0.050 A 
ENDROOT
BRANCH   9  13
HETATM   13  C   UNL     1     -38.842 -49.046  12.394  1.00  0.00     0.101 A 
HETATM   14  C   UNL     1     -37.737 -49.541  11.731  1.00  0.00     0.041 A 
HETATM   15  C   UNL     1     -37.451 -50.809  12.299  1.00  0.00     0.027 A 
HETATM   16  C   UNL     1     -38.397 -51.012  13.273  1.00  0.00     0.142 A 
HETATM   17  O   UNL     1     -39.243 -49.953  13.342  1.00  0.00    -0.321 OA
ENDBRANCH   9  13
BRANCH  11  18
HETATM   18  C   UNL     1     -39.670 -44.291  13.641  1.00  0.00     0.177 C 
HETATM   19  O   UNL     1     -38.989 -43.387  13.194  1.00  0.00    -0.646 OA
BRANCH  18  20
HETATM   20  O   UNL     1     -40.178 -44.262  14.892  1.00  0.00    -0.773 OA
HETATM   21  H   UNL     1     -39.955 -45.009  15.477  1.00  0.00     0.167 HD
ENDBRANCH  18  20
ENDBRANCH  11  18
BRANCH   5  22
HETATM   22  C   UNL     1     -43.175 -47.521   9.770  1.00  0.00     0.177 C 
BRANCH  22  23
HETATM   23  C   UNL     1     -43.713 -46.942   8.459  1.00  0.00     0.185 C 
BRANCH  23  24
HETATM   24  O   UNL     1     -42.742 -46.118   7.817  1.00  0.00    -0.399 OA
HETATM   25  H   UNL     1     -43.218 -45.284   7.605  1.00  0.00     0.209 HD
ENDBRANCH  23  24
ENDBRANCH  22  23
ENDBRANCH   5  22
TORSDOF 6
ENDMDL
MODEL 6
REMARK VINA RESULT:      -5.8      2.710      6.235
REMARK  6 active torsions:
REMARK  status: ('A' for Active; 'I' for Inactive)
REMARK    1  A    between atoms: N_5  and  C_6 
REMARK    2  A    between atoms: C_6  and  C_7 
REMARK    3  A    between atoms: C_7  and  O_8 
REMARK    4  A    between atoms: C_12  and  C_19 
REMARK    5  A    between atoms: C_14  and  C_15 
REMARK    6  A    between atoms: C_15  and  O_17 
ROOT
HETATM    1  C   UNL     1     -41.948 -56.383  16.492  1.00  0.00     0.070 C 
HETATM    2  C   UNL     1     -42.037 -55.253  15.527  1.00  0.00     0.037 A 
HETATM    3  N   UNL     1     -43.240 -54.932  15.032  1.00  0.00    -0.300 N 
ATOM      4  HN  UNL     1     -44.139 -55.366  15.240  1.00  0.00     0.187 HD
HETATM    5  N   UNL     1     -42.992 -53.903  14.195  1.00  0.00    -0.274 N 
HETATM    6  C   UNL     1     -41.673 -53.526  14.170  1.00  0.00     0.136 A 
HETATM    7  N   UNL     1     -41.143 -52.512  13.455  1.00  0.00    -0.338 N 
ATOM      8  HN  UNL     1     -41.701 -51.903  12.857  1.00  0.00     0.167 HD
HETATM    9  C   UNL     1     -39.804 -52.375  13.603  1.00  0.00     0.069 A 
HETATM   10  C   UNL     1     -39.018 -53.188  14.415  1.00  0.00     0.052 A 
HETATM   11  C   UNL     1     -39.618 -54.208  15.165  1.00  0.00     0.056 A 
HETATM   12  C   UNL     1     -41.007 -54.399  15.027  1.00  0.00     0.050 A 
ENDROOT
BRANCH   9  13
HETATM   13  C   UNL     1     -39.213 -51.281  12.834  1.00  0.00     0.101 A 
HETATM   14  C   UNL     1     -39.679 -50.065  12.374  1.00  0.00     0.041 A 
HETATM   15  C   UNL     1     -38.606 -49.450  11.682  1.00  0.00     0.027 A 
HETATM   16  C   UNL     1     -37.550 -50.326  11.759  1.00  0.00     0.142 A 
HETATM   17  O   UNL     1     -37.905 -51.435  12.455  1.00  0.00    -0.321 OA
ENDBRANCH   9  13
BRANCH  11  18
HETATM   18  C   UNL     1     -38.798 -55.095  16.017  1.00  0.00     0.177 C 
HETATM   19  O   UNL     1     -38.815 -55.058  17.234  1.00  0.00    -0.646 OA
BRANCH  18  20
HETATM   20  O   UNL     1     -38.026 -55.965  15.331  1.00  0.00    -0.773 OA
HETATM   21  H   UNL     1     -37.558 -56.644  15.850  1.00  0.00     0.167 HD
ENDBRANCH  18  20
ENDBRANCH  11  18
BRANCH   5  22
HETATM   22  C   UNL     1     -44.077 -53.265  13.468  1.00  0.00     0.177 C 
BRANCH  22  23
HETATM   23  C   UNL     1     -45.471 -53.766  13.852  1.00  0.00     0.185 C 
BRANCH  23  24
HETATM   24  O   UNL     1     -45.704 -55.085  13.361  1.00  0.00    -0.399 OA
HETATM   25  H   UNL     1     -44.922 -55.605  13.652  1.00  0.00     0.209 HD
ENDBRANCH  23  24
ENDBRANCH  22  23
ENDBRANCH   5  22
TORSDOF 6
ENDMDL
MODEL 7
REMARK VINA RESULT:      -5.7      1.587      1.938
REMARK  6 active torsions:
REMARK  status: ('A' for Active; 'I' for Inactive)
REMARK    1  A    between atoms: N_5  and  C_6 
REMARK    2  A    between atoms: C_6  and  C_7 
REMARK    3  A    between atoms: C_7  and  O_8 
REMARK    4  A    between atoms: C_12  and  C_19 
REMARK    5  A    between atoms: C_14  and  C_15 
REMARK    6  A    between atoms: C_15  and  O_17 
ROOT
HETATM    1  C   UNL     1     -38.740 -49.863  11.289  1.00  0.00     0.070 C 
HETATM    2  C   UNL     1     -40.168 -49.524  11.541  1.00  0.00     0.037 A 
HETATM    3  N   UNL     1     -40.678 -48.437  10.947  1.00  0.00    -0.300 N 
ATOM      4  HN  UNL     1     -40.208 -47.789  10.316  1.00  0.00     0.187 HD
HETATM    5  N   UNL     1     -41.957 -48.393  11.375  1.00  0.00    -0.274 N 
HETATM    6  C   UNL     1     -42.295 -49.443  12.190  1.00  0.00     0.136 A 
HETATM    7  N   UNL     1     -43.508 -49.677  12.735  1.00  0.00    -0.338 N 
ATOM      8  HN  UNL     1     -44.315 -49.075  12.571  1.00  0.00     0.167 HD
HETATM    9  C   UNL     1     -43.557 -50.779  13.519  1.00  0.00     0.069 A 
HETATM   10  C   UNL     1     -42.472 -51.620  13.757  1.00  0.00     0.052 A 
HETATM   11  C   UNL     1     -41.241 -51.357  13.142  1.00  0.00     0.056 A 
HETATM   12  C   UNL     1     -41.140 -50.208  12.333  1.00  0.00     0.050 A 
ENDROOT
BRANCH   9  13
HETATM   13  C   UNL     1     -44.862 -51.045  14.119  1.00  0.00     0.101 A 
HETATM   14  C   UNL     1     -46.092 -51.427  13.620  1.00  0.00     0.041 A 
HETATM   15  C   UNL     1     -46.973 -51.521  14.727  1.00  0.00     0.027 A 
HETATM   16  C   UNL     1     -46.230 -51.191  15.834  1.00  0.00     0.142 A 
HETATM   17  O   UNL     1     -44.953 -50.903  15.479  1.00  0.00    -0.321 OA
ENDBRANCH   9  13
BRANCH  11  18
HETATM   18  C   UNL     1     -40.072 -52.225  13.399  1.00  0.00     0.177 C 
HETATM   19  O   UNL     1     -39.853 -53.252  12.783  1.00  0.00    -0.646 OA
BRANCH  18  20
HETATM   20  O   UNL     1     -39.255 -51.780  14.377  1.00  0.00    -0.773 OA
HETATM   21  H   UNL     1     -39.198 -52.321  15.185  1.00  0.00     0.167 HD
ENDBRANCH  18  20
ENDBRANCH  11  18
BRANCH   5  22
HETATM   22  C   UNL     1     -42.850 -47.338  10.925  1.00  0.00     0.177 C 
BRANCH  22  23
HETATM   23  C   UNL     1     -42.969 -47.221   9.404  1.00  0.00     0.185 C 
BRANCH  23  24
HETATM   24  O   UNL     1     -42.580 -48.432   8.757  1.00  0.00    -0.399 OA
HETATM   25  H   UNL     1     -43.425 -48.871   8.513  1.00  0.00     0.209 HD
ENDBRANCH  23  24
ENDBRANCH  22  23
ENDBRANCH   5  22
TORSDOF 6
ENDMDL
MODEL 8
REMARK VINA RESULT:      -5.7      2.488      3.871
REMARK  6 active torsions:
REMARK  status: ('A' for Active; 'I' for Inactive)
REMARK    1  A    between atoms: N_5  and  C_6 
REMARK    2  A    between atoms: C_6  and  C_7 
REMARK    3  A    between atoms: C_7  and  O_8 
REMARK    4  A    between atoms: C_12  and  C_19 
REMARK    5  A    between atoms: C_14  and  C_15 
REMARK    6  A    between atoms: C_15  and  O_17 
ROOT
HETATM    1  C   UNL     1     -39.632 -45.279  11.574  1.00  0.00     0.070 C 
HETATM    2  C   UNL     1     -40.498 -46.453  11.275  1.00  0.00     0.037 A 
HETATM    3  N   UNL     1     -41.398 -46.345  10.288  1.00  0.00    -0.300 N 
ATOM      4  HN  UNL     1     -41.573 -45.542   9.685  1.00  0.00     0.187 HD
HETATM    5  N   UNL     1     -42.022 -47.541  10.274  1.00  0.00    -0.274 N 
HETATM    6  C   UNL     1     -41.521 -48.428  11.192  1.00  0.00     0.136 A 
HETATM    7  N   UNL     1     -41.924 -49.703  11.379  1.00  0.00    -0.338 N 
ATOM      8  HN  UNL     1     -42.658 -50.140  10.822  1.00  0.00     0.167 HD
HETATM    9  C   UNL     1     -41.269 -50.349  12.372  1.00  0.00     0.069 A 
HETATM   10  C   UNL     1     -40.261 -49.779  13.146  1.00  0.00     0.052 A 
HETATM   11  C   UNL     1     -39.852 -48.463  12.893  1.00  0.00     0.056 A 
HETATM   12  C   UNL     1     -40.521 -47.746  11.881  1.00  0.00     0.050 A 
ENDROOT
BRANCH   9  13
HETATM   13  C   UNL     1     -41.696 -51.729  12.588  1.00  0.00     0.101 A 
HETATM   14  C   UNL     1     -41.031 -52.926  12.771  1.00  0.00     0.041 A 
HETATM   15  C   UNL     1     -42.023 -53.926  12.932  1.00  0.00     0.027 A 
HETATM   16  C   UNL     1     -43.233 -53.282  12.839  1.00  0.00     0.142 A 
HETATM   17  O   UNL     1     -43.047 -51.953  12.633  1.00  0.00    -0.321 OA
ENDBRANCH   9  13
BRANCH  11  18
HETATM   18  C   UNL     1     -38.798 -47.832  13.716  1.00  0.00     0.177 C 
HETATM   19  O   UNL     1     -37.617 -48.107  13.617  1.00  0.00    -0.646 OA
BRANCH  18  20
HETATM   20  O   UNL     1     -39.255 -46.913  14.593  1.00  0.00    -0.773 OA
HETATM   21  H   UNL     1     -39.054 -47.062  15.535  1.00  0.00     0.167 HD
ENDBRANCH  18  20
ENDBRANCH  11  18
BRANCH   5  22
HETATM   22  C   UNL     1     -43.074 -47.813   9.309  1.00  0.00     0.177 C 
BRANCH  22  23
HETATM   23  C   UNL     1     -43.635 -46.567   8.622  1.00  0.00     0.185 C 
BRANCH  23  24
HETATM   24  O   UNL     1     -42.684 -45.994   7.725  1.00  0.00    -0.399 OA
HETATM   25  H   UNL     1     -42.725 -45.027   7.897  1.00  0.00     0.209 HD
ENDBRANCH  23  24
ENDBRANCH  22  23
ENDBRANCH   5  22
TORSDOF 6
ENDMDL
MODEL 9
REMARK VINA RESULT:      -5.5      2.815      5.566
REMARK  6 active torsions:
REMARK  status: ('A' for Active; 'I' for Inactive)
REMARK    1  A    between atoms: N_5  and  C_6 
REMARK    2  A    between atoms: C_6  and  C_7 
REMARK    3  A    between atoms: C_7  and  O_8 
REMARK    4  A    between atoms: C_12  and  C_19 
REMARK    5  A    between atoms: C_14  and  C_15 
REMARK    6  A    between atoms: C_15  and  O_17 
ROOT
HETATM    1  C   UNL     1     -40.634 -50.243  11.468  1.00  0.00     0.070 C 
HETATM    2  C   UNL     1     -41.095 -51.452  12.204  1.00  0.00     0.037 A 
HETATM    3  N   UNL     1     -42.323 -51.924  11.949  1.00  0.00    -0.300 N 
ATOM      4  HN  UNL     1     -43.009 -51.559  11.287  1.00  0.00     0.187 HD
HETATM    5  N   UNL     1     -42.447 -52.990  12.765  1.00  0.00    -0.274 N 
HETATM    6  C   UNL     1     -41.320 -53.244  13.505  1.00  0.00     0.136 A 
HETATM    7  N   UNL     1     -41.145 -54.260  14.376  1.00  0.00    -0.338 N 
ATOM      8  HN  UNL     1     -41.860 -54.966  14.557  1.00  0.00     0.167 HD
HETATM    9  C   UNL     1     -39.938 -54.260  14.988  1.00  0.00     0.069 A 
HETATM   10  C   UNL     1     -38.943 -53.313  14.758  1.00  0.00     0.052 A 
HETATM   11  C   UNL     1     -39.157 -52.295  13.819  1.00  0.00     0.056 A 
HETATM   12  C   UNL     1     -40.408 -52.246  13.173  1.00  0.00     0.050 A 
ENDROOT
BRANCH   9  13
HETATM   13  C   UNL     1     -39.733 -55.353  15.935  1.00  0.00     0.101 A 
HETATM   14  C   UNL     1     -38.620 -55.925  16.521  1.00  0.00     0.041 A 
HETATM   15  C   UNL     1     -39.089 -56.965  17.364  1.00  0.00     0.027 A 
HETATM   16  C   UNL     1     -40.457 -56.966  17.243  1.00  0.00     0.142 A 
HETATM   17  O   UNL     1     -40.858 -55.995  16.384  1.00  0.00    -0.321 OA
ENDBRANCH   9  13
BRANCH  11  18
HETATM   18  C   UNL     1     -38.122 -51.267  13.576  1.00  0.00     0.177 C 
HETATM   19  O   UNL     1     -37.967 -50.292  14.287  1.00  0.00    -0.646 OA
BRANCH  18  20
HETATM   20  O   UNL     1     -37.351 -51.503  12.493  1.00  0.00    -0.773 OA
HETATM   21  H   UNL     1     -37.490 -52.347  12.026  1.00  0.00     0.167 HD
ENDBRANCH  18  20
ENDBRANCH  11  18
BRANCH   5  22
HETATM   22  C   UNL     1     -43.664 -53.784  12.762  1.00  0.00     0.177 C 
BRANCH  22  23
HETATM   23  C   UNL     1     -44.947 -52.968  12.589  1.00  0.00     0.185 C 
BRANCH  23  24
HETATM   24  O   UNL     1     -46.105 -53.753  12.869  1.00  0.00    -0.399 OA
HETATM   25  H   UNL     1     -46.751 -53.509  12.170  1.00  0.00     0.209 HD
ENDBRANCH  23  24
ENDBRANCH  22  23
ENDBRANCH   5  22
TORSDOF 6
ENDMDL
