MODEL 1
REMARK VINA RESULT:      -6.6      0.000      0.000
REMARK  5 active torsions:
REMARK  status: ('A' for Active; 'I' for Inactive)
REMARK    1  A    between atoms: O_2  and  C_3 
REMARK    2  A    between atoms: C_9  and  N_10 
REMARK       I    between atoms: N_10  and  C_11 
REMARK       I    between atoms: C_11  and  N_13 
REMARK    3  A    between atoms: N_13  and  C_14 
REMARK    4  A    between atoms: C_14  and  C_15 
REMARK    5  A    between atoms: C_15  and  C_21 
REMARK       I    between atoms: C_21  and  N_23 
ROOT
HETATM    1  N   UNL     1     -41.943 -49.397  11.174  1.00  0.00    -0.305 N 
HETATM    2  C   UNL     1     -42.162 -49.932  12.420  1.00  0.00     0.320 C 
HETATM    3  O   UNL     1     -42.025 -49.341  13.484  1.00  0.00    -0.247 OA
HETATM    4  N   UNL     1     -42.652 -51.215  12.384  1.00  0.00    -0.342 N 
HETATM    5  H   UNL     1     -42.303 -49.899  10.371  1.00  0.00     0.171 HD
HETATM    6  H   UNL     1     -42.570 -51.761  11.537  1.00  0.00     0.164 HD
ENDROOT
BRANCH   4   7
HETATM    7  C   UNL     1     -43.172 -51.888  13.578  1.00  0.00     0.143 C 
BRANCH   7   8
HETATM    8  C   UNL     1     -42.775 -53.398  13.650  1.00  0.00     0.060 C 
HETATM    9  C   UNL     1     -43.753 -54.274  12.833  1.00  0.00     0.047 C 
HETATM   10  C   UNL     1     -45.131 -54.322  13.494  1.00  0.00     0.168 C 
HETATM   11  O   UNL     1     -45.007 -54.895  14.797  1.00  0.00    -0.391 OA
HETATM   12  C   UNL     1     -44.213 -54.087  15.661  1.00  0.00     0.168 C 
HETATM   13  C   UNL     1     -42.800 -53.926  15.107  1.00  0.00     0.047 C 
BRANCH   8  14
HETATM   14  C   UNL     1     -41.316 -53.490  13.166  1.00  0.00     0.226 C 
HETATM   15  O   UNL     1     -40.409 -52.786  13.610  1.00  0.00    -0.273 OA
HETATM   16  N   UNL     1     -40.994 -54.471  12.283  1.00  0.00    -0.369 N 
HETATM   17  H   UNL     1     -41.662 -55.089  11.846  1.00  0.00     0.159 HD
HETATM   18  H   UNL     1     -40.025 -54.538  12.000  1.00  0.00     0.159 HD
ENDBRANCH   8  14
ENDBRANCH   7   8
ENDBRANCH   4   7
BRANCH   1  19
HETATM   19  C   UNL     1     -41.497 -48.071  10.913  1.00  0.00     0.087 A 
HETATM   20  C   UNL     1     -42.276 -47.203  10.134  1.00  0.00     0.169 A 
HETATM   21  N   UNL     1     -41.930 -45.920   9.844  1.00  0.00    -0.345 N 
HETATM   22  C   UNL     1     -40.762 -45.475  10.353  1.00  0.00     0.090 A 
ATOM     23  HN  UNL     1     -42.525 -45.323   9.269  1.00  0.00     0.167 HD
HETATM   24  C   UNL     1     -39.925 -46.244  11.134  1.00  0.00     0.019 A 
HETATM   25  C   UNL     1     -40.296 -47.558  11.406  1.00  0.00     0.035 A 
BRANCH  20  26
HETATM   26  O   UNL     1     -43.488 -47.682   9.657  1.00  0.00    -0.339 OA
HETATM   27  C   UNL     1     -43.583 -47.606   8.234  1.00  0.00     0.211 C 
ENDBRANCH  20  26
ENDBRANCH   1  19
TORSDOF 5
ENDMDL
MODEL 2
REMARK VINA RESULT:      -6.6      3.989      5.307
REMARK  5 active torsions:
REMARK  status: ('A' for Active; 'I' for Inactive)
REMARK    1  A    between atoms: O_2  and  C_3 
REMARK    2  A    between atoms: C_9  and  N_10 
REMARK       I    between atoms: N_10  and  C_11 
REMARK       I    between atoms: C_11  and  N_13 
REMARK    3  A    between atoms: N_13  and  C_14 
REMARK    4  A    between atoms: C_14  and  C_15 
REMARK    5  A    between atoms: C_15  and  C_21 
REMARK       I    between atoms: C_21  and  N_23 
ROOT
HETATM    1  N   UNL     1     -42.334 -48.008   9.527  1.00  0.00    -0.305 N 
HETATM    2  C   UNL     1     -41.946 -48.563  10.722  1.00  0.00     0.320 C 
HETATM    3  O   UNL     1     -42.585 -48.526  11.766  1.00  0.00    -0.247 OA
HETATM    4  N   UNL     1     -40.771 -49.272  10.638  1.00  0.00    -0.342 N 
HETATM    5  H   UNL     1     -41.842 -48.293   8.688  1.00  0.00     0.171 HD
HETATM    6  H   UNL     1     -40.154 -49.132   9.850  1.00  0.00     0.164 HD
ENDROOT
BRANCH   4   7
HETATM    7  C   UNL     1     -40.298 -50.133  11.727  1.00  0.00     0.143 C 
BRANCH   7   8
HETATM    8  C   UNL     1     -39.112 -49.507  12.528  1.00  0.00     0.060 C 
HETATM    9  C   UNL     1     -37.840 -49.400  11.655  1.00  0.00     0.047 C 
HETATM   10  C   UNL     1     -37.264 -50.784  11.352  1.00  0.00     0.168 C 
HETATM   11  O   UNL     1     -36.906 -51.423  12.578  1.00  0.00    -0.391 OA
HETATM   12  C   UNL     1     -38.043 -51.670  13.402  1.00  0.00     0.168 C 
HETATM   13  C   UNL     1     -38.743 -50.364  13.766  1.00  0.00     0.047 C 
BRANCH   8  14
HETATM   14  C   UNL     1     -39.610 -48.149  13.057  1.00  0.00     0.226 C 
HETATM   15  O   UNL     1     -39.367 -47.076  12.507  1.00  0.00    -0.273 OA
HETATM   16  N   UNL     1     -40.451 -48.148  14.125  1.00  0.00    -0.369 N 
HETATM   17  H   UNL     1     -40.701 -48.968  14.658  1.00  0.00     0.159 HD
HETATM   18  H   UNL     1     -40.795 -47.250  14.441  1.00  0.00     0.159 HD
ENDBRANCH   8  14
ENDBRANCH   7   8
ENDBRANCH   4   7
BRANCH   1  19
HETATM   19  C   UNL     1     -43.533 -47.276   9.309  1.00  0.00     0.087 A 
HETATM   20  C   UNL     1     -43.529 -45.874   9.372  1.00  0.00     0.169 A 
HETATM   21  N   UNL     1     -44.627 -45.098   9.167  1.00  0.00    -0.345 N 
HETATM   22  C   UNL     1     -45.780 -45.737   8.881  1.00  0.00     0.090 A 
ATOM     23  HN  UNL     1     -44.580 -44.081   9.227  1.00  0.00     0.167 HD
HETATM   24  C   UNL     1     -45.892 -47.109   8.790  1.00  0.00     0.019 A 
HETATM   25  C   UNL     1     -44.757 -47.883   9.017  1.00  0.00     0.035 A 
BRANCH  20  26
HETATM   26  O   UNL     1     -42.318 -45.248   9.632  1.00  0.00    -0.339 OA
HETATM   27  C   UNL     1     -42.239 -44.748  10.968  1.00  0.00     0.211 C 
ENDBRANCH  20  26
ENDBRANCH   1  19
TORSDOF 5
ENDMDL
MODEL 3
REMARK VINA RESULT:      -6.5      3.885      5.046
REMARK  5 active torsions:
REMARK  status: ('A' for Active; 'I' for Inactive)
REMARK    1  A    between atoms: O_2  and  C_3 
REMARK    2  A    between atoms: C_9  and  N_10 
REMARK       I    between atoms: N_10  and  C_11 
REMARK       I    between atoms: C_11  and  N_13 
REMARK    3  A    between atoms: N_13  and  C_14 
REMARK    4  A    between atoms: C_14  and  C_15 
REMARK    5  A    between atoms: C_15  and  C_21 
REMARK       I    between atoms: C_21  and  N_23 
ROOT
HETATM    1  N   UNL     1     -42.106 -48.079   9.598  1.00  0.00    -0.305 N 
HETATM    2  C   UNL     1     -41.772 -48.687  10.784  1.00  0.00     0.320 C 
HETATM    3  O   UNL     1     -42.441 -48.666  11.809  1.00  0.00    -0.247 OA
HETATM    4  N   UNL     1     -40.617 -49.428  10.710  1.00  0.00    -0.342 N 
HETATM    5  H   UNL     1     -41.597 -48.350   8.765  1.00  0.00     0.171 HD
HETATM    6  H   UNL     1     -39.972 -49.280   9.946  1.00  0.00     0.164 HD
ENDROOT
BRANCH   4   7
HETATM    7  C   UNL     1     -40.202 -50.340  11.781  1.00  0.00     0.143 C 
BRANCH   7   8
HETATM    8  C   UNL     1     -38.866 -49.910  12.466  1.00  0.00     0.060 C 
HETATM    9  C   UNL     1     -38.812 -50.383  13.937  1.00  0.00     0.047 C 
HETATM   10  C   UNL     1     -39.819 -49.618  14.797  1.00  0.00     0.168 C 
HETATM   11  O   UNL     1     -39.498 -48.226  14.770  1.00  0.00    -0.391 OA
HETATM   12  C   UNL     1     -39.637 -47.674  13.463  1.00  0.00     0.168 C 
HETATM   13  C   UNL     1     -38.701 -48.369  12.478  1.00  0.00     0.047 C 
BRANCH   8  14
HETATM   14  C   UNL     1     -37.727 -50.474  11.596  1.00  0.00     0.226 C 
HETATM   15  O   UNL     1     -37.112 -51.504  11.870  1.00  0.00    -0.273 OA
HETATM   16  N   UNL     1     -37.463 -49.862  10.411  1.00  0.00    -0.369 N 
HETATM   17  H   UNL     1     -37.897 -49.006  10.100  1.00  0.00     0.159 HD
HETATM   18  H   UNL     1     -36.733 -50.265   9.837  1.00  0.00     0.159 HD
ENDBRANCH   8  14
ENDBRANCH   7   8
ENDBRANCH   4   7
BRANCH   1  19
HETATM   19  C   UNL     1     -43.276 -47.304   9.370  1.00  0.00     0.087 A 
HETATM   20  C   UNL     1     -43.234 -45.907   9.490  1.00  0.00     0.169 A 
HETATM   21  N   UNL     1     -44.302 -45.090   9.281  1.00  0.00    -0.345 N 
HETATM   22  C   UNL     1     -45.462 -45.683   8.932  1.00  0.00     0.090 A 
ATOM     23  HN  UNL     1     -44.228 -44.078   9.383  1.00  0.00     0.167 HD
HETATM   24  C   UNL     1     -45.610 -47.047   8.782  1.00  0.00     0.019 A 
HETATM   25  C   UNL     1     -44.506 -47.862   9.014  1.00  0.00     0.035 A 
BRANCH  20  26
HETATM   26  O   UNL     1     -42.015 -45.327   9.815  1.00  0.00    -0.339 OA
HETATM   27  C   UNL     1     -41.975 -44.865  11.165  1.00  0.00     0.211 C 
ENDBRANCH  20  26
ENDBRANCH   1  19
TORSDOF 5
ENDMDL
MODEL 4
REMARK VINA RESULT:      -6.5      2.399      3.269
REMARK  5 active torsions:
REMARK  status: ('A' for Active; 'I' for Inactive)
REMARK    1  A    between atoms: O_2  and  C_3 
REMARK    2  A    between atoms: C_9  and  N_10 
REMARK       I    between atoms: N_10  and  C_11 
REMARK       I    between atoms: C_11  and  N_13 
REMARK    3  A    between atoms: N_13  and  C_14 
REMARK    4  A    between atoms: C_14  and  C_15 
REMARK    5  A    between atoms: C_15  and  C_21 
REMARK       I    between atoms: C_21  and  N_23 
ROOT
HETATM    1  N   UNL     1     -42.841 -49.407  11.610  1.00  0.00    -0.305 N 
HETATM    2  C   UNL     1     -43.124 -49.750  12.910  1.00  0.00     0.320 C 
HETATM    3  O   UNL     1     -43.022 -49.011  13.881  1.00  0.00    -0.247 OA
HETATM    4  N   UNL     1     -43.638 -51.018  13.040  1.00  0.00    -0.342 N 
HETATM    5  H   UNL     1     -43.175 -50.018  10.873  1.00  0.00     0.171 HD
HETATM    6  H   UNL     1     -43.530 -51.684  12.287  1.00  0.00     0.164 HD
ENDROOT
BRANCH   4   7
HETATM    7  C   UNL     1     -44.223 -51.501  14.295  1.00  0.00     0.143 C 
BRANCH   7   8
HETATM    8  C   UNL     1     -45.564 -52.275  14.086  1.00  0.00     0.060 C 
HETATM    9  C   UNL     1     -46.779 -51.409  14.490  1.00  0.00     0.047 C 
HETATM   10  C   UNL     1     -46.821 -51.194  16.003  1.00  0.00     0.168 C 
HETATM   11  O   UNL     1     -46.944 -52.459  16.655  1.00  0.00    -0.391 OA
HETATM   12  C   UNL     1     -45.804 -53.285  16.433  1.00  0.00     0.168 C 
HETATM   13  C   UNL     1     -45.618 -53.565  14.944  1.00  0.00     0.047 C 
BRANCH   8  14
HETATM   14  C   UNL     1     -45.587 -52.719  12.611  1.00  0.00     0.226 C 
HETATM   15  O   UNL     1     -44.795 -53.532  12.136  1.00  0.00    -0.273 OA
HETATM   16  N   UNL     1     -46.600 -52.272  11.824  1.00  0.00    -0.369 N 
HETATM   17  H   UNL     1     -47.290 -51.592  12.110  1.00  0.00     0.159 HD
HETATM   18  H   UNL     1     -46.619 -52.598  10.866  1.00  0.00     0.159 HD
ENDBRANCH   8  14
ENDBRANCH   7   8
ENDBRANCH   4   7
BRANCH   1  19
HETATM   19  C   UNL     1     -42.357 -48.141  11.178  1.00  0.00     0.087 A 
HETATM   20  C   UNL     1     -40.980 -47.925  11.022  1.00  0.00     0.169 A 
HETATM   21  N   UNL     1     -40.434 -46.751  10.605  1.00  0.00    -0.345 N 
HETATM   22  C   UNL     1     -41.291 -45.747  10.325  1.00  0.00     0.090 A 
ATOM     23  HN  UNL     1     -39.426 -46.636  10.508  1.00  0.00     0.167 HD
HETATM   24  C   UNL     1     -42.662 -45.856  10.441  1.00  0.00     0.019 A 
HETATM   25  C   UNL     1     -43.195 -47.064  10.881  1.00  0.00     0.035 A 
BRANCH  20  26
HETATM   26  O   UNL     1     -40.130 -48.991  11.283  1.00  0.00    -0.339 OA
HETATM   27  C   UNL     1     -39.315 -48.768  12.435  1.00  0.00     0.211 C 
ENDBRANCH  20  26
ENDBRANCH   1  19
TORSDOF 5
ENDMDL
MODEL 5
REMARK VINA RESULT:      -6.5      2.457      7.302
REMARK  5 active torsions:
REMARK  status: ('A' for Active; 'I' for Inactive)
REMARK    1  A    between atoms: O_2  and  C_3 
REMARK    2  A    between atoms: C_9  and  N_10 
REMARK       I    between atoms: N_10  and  C_11 
REMARK       I    between atoms: C_11  and  N_13 
REMARK    3  A    between atoms: N_13  and  C_14 
REMARK    4  A    between atoms: C_14  and  C_15 
REMARK    5  A    between atoms: C_15  and  C_21 
REMARK       I    between atoms: C_21  and  N_23 
ROOT
HETATM    1  N   UNL     1     -44.708 -51.341  12.628  1.00  0.00    -0.305 N 
HETATM    2  C   UNL     1     -43.844 -50.460  13.232  1.00  0.00     0.320 C 
HETATM    3  O   UNL     1     -43.318 -50.616  14.327  1.00  0.00    -0.247 OA
HETATM    4  N   UNL     1     -43.529 -49.379  12.445  1.00  0.00    -0.342 N 
HETATM    5  H   UNL     1     -44.898 -51.219  11.641  1.00  0.00     0.171 HD
HETATM    6  H   UNL     1     -44.108 -49.151  11.648  1.00  0.00     0.164 HD
ENDROOT
BRANCH   4   7
HETATM    7  C   UNL     1     -42.455 -48.443  12.793  1.00  0.00     0.143 C 
BRANCH   7   8
HETATM    8  C   UNL     1     -41.406 -48.264  11.650  1.00  0.00     0.060 C 
HETATM    9  C   UNL     1     -40.472 -47.063  11.928  1.00  0.00     0.047 C 
HETATM   10  C   UNL     1     -41.231 -45.740  11.813  1.00  0.00     0.168 C 
HETATM   11  O   UNL     1     -41.741 -45.604  10.486  1.00  0.00    -0.391 OA
HETATM   12  C   UNL     1     -42.705 -46.609  10.181  1.00  0.00     0.168 C 
HETATM   13  C   UNL     1     -42.090 -48.001  10.284  1.00  0.00     0.047 C 
BRANCH   8  14
HETATM   14  C   UNL     1     -40.661 -49.606  11.525  1.00  0.00     0.226 C 
HETATM   15  O   UNL     1     -40.449 -50.354  12.479  1.00  0.00    -0.273 OA
HETATM   16  N   UNL     1     -40.317 -50.035  10.282  1.00  0.00    -0.369 N 
HETATM   17  H   UNL     1     -40.431 -49.494   9.438  1.00  0.00     0.159 HD
HETATM   18  H   UNL     1     -39.857 -50.934  10.215  1.00  0.00     0.159 HD
ENDBRANCH   8  14
ENDBRANCH   7   8
ENDBRANCH   4   7
BRANCH   1  19
HETATM   19  C   UNL     1     -45.154 -52.571  13.186  1.00  0.00     0.087 A 
HETATM   20  C   UNL     1     -46.264 -52.598  14.044  1.00  0.00     0.169 A 
HETATM   21  N   UNL     1     -46.762 -53.729  14.611  1.00  0.00    -0.345 N 
HETATM   22  C   UNL     1     -46.137 -54.887  14.311  1.00  0.00     0.090 A 
ATOM     23  HN  UNL     1     -47.570 -53.703  15.233  1.00  0.00     0.167 HD
HETATM   24  C   UNL     1     -45.042 -54.971  13.477  1.00  0.00     0.019 A 
HETATM   25  C   UNL     1     -44.543 -53.798  12.918  1.00  0.00     0.035 A 
BRANCH  20  26
HETATM   26  O   UNL     1     -46.905 -51.394  14.301  1.00  0.00    -0.339 OA
HETATM   27  C   UNL     1     -47.184 -51.212  15.689  1.00  0.00     0.211 C 
ENDBRANCH  20  26
ENDBRANCH   1  19
TORSDOF 5
ENDMDL
MODEL 6
REMARK VINA RESULT:      -6.5      2.196      7.292
REMARK  5 active torsions:
REMARK  status: ('A' for Active; 'I' for Inactive)
REMARK    1  A    between atoms: O_2  and  C_3 
REMARK    2  A    between atoms: C_9  and  N_10 
REMARK       I    between atoms: N_10  and  C_11 
REMARK       I    between atoms: C_11  and  N_13 
REMARK    3  A    between atoms: N_13  and  C_14 
REMARK    4  A    between atoms: C_14  and  C_15 
REMARK    5  A    between atoms: C_15  and  C_21 
REMARK       I    between atoms: C_21  and  N_23 
ROOT
HETATM    1  N   UNL     1     -44.794 -51.040  12.657  1.00  0.00    -0.305 N 
HETATM    2  C   UNL     1     -43.945 -50.105  13.197  1.00  0.00     0.320 C 
HETATM    3  O   UNL     1     -43.523 -50.105  14.347  1.00  0.00    -0.247 OA
HETATM    4  N   UNL     1     -43.514 -49.170  12.287  1.00  0.00    -0.342 N 
HETATM    5  H   UNL     1     -44.893 -51.067  11.649  1.00  0.00     0.171 HD
HETATM    6  H   UNL     1     -44.011 -49.050  11.415  1.00  0.00     0.164 HD
ENDROOT
BRANCH   4   7
HETATM    7  C   UNL     1     -42.432 -48.227  12.587  1.00  0.00     0.143 C 
BRANCH   7   8
HETATM    8  C   UNL     1     -41.368 -48.136  11.446  1.00  0.00     0.060 C 
HETATM    9  C   UNL     1     -40.425 -46.927  11.654  1.00  0.00     0.047 C 
HETATM   10  C   UNL     1     -41.168 -45.608  11.441  1.00  0.00     0.168 C 
HETATM   11  O   UNL     1     -41.662 -45.557  10.102  1.00  0.00    -0.391 OA
HETATM   12  C   UNL     1     -42.633 -46.571   9.854  1.00  0.00     0.168 C 
HETATM   13  C   UNL     1     -42.034 -47.959  10.057  1.00  0.00     0.047 C 
BRANCH   8  14
HETATM   14  C   UNL     1     -40.636 -49.490  11.421  1.00  0.00     0.226 C 
HETATM   15  O   UNL     1     -40.462 -50.185  12.422  1.00  0.00    -0.273 OA
HETATM   16  N   UNL     1     -40.259 -49.992  10.216  1.00  0.00    -0.369 N 
HETATM   17  H   UNL     1     -40.340 -49.498   9.339  1.00  0.00     0.159 HD
HETATM   18  H   UNL     1     -39.807 -50.899  10.214  1.00  0.00     0.159 HD
ENDBRANCH   8  14
ENDBRANCH   7   8
ENDBRANCH   4   7
BRANCH   1  19
HETATM   19  C   UNL     1     -45.344 -52.153  13.352  1.00  0.00     0.087 A 
HETATM   20  C   UNL     1     -44.755 -53.421  13.235  1.00  0.00     0.169 A 
HETATM   21  N   UNL     1     -45.210 -54.534  13.871  1.00  0.00    -0.345 N 
HETATM   22  C   UNL     1     -46.293 -54.384  14.662  1.00  0.00     0.090 A 
ATOM     23  HN  UNL     1     -44.753 -55.439  13.756  1.00  0.00     0.167 HD
HETATM   24  C   UNL     1     -46.943 -53.182  14.849  1.00  0.00     0.019 A 
HETATM   25  C   UNL     1     -46.466 -52.060  14.177  1.00  0.00     0.035 A 
BRANCH  20  26
HETATM   26  O   UNL     1     -43.621 -53.532  12.443  1.00  0.00    -0.339 OA
HETATM   27  C   UNL     1     -42.451 -53.827  13.206  1.00  0.00     0.211 C 
ENDBRANCH  20  26
ENDBRANCH   1  19
TORSDOF 5
ENDMDL
MODEL 7
REMARK VINA RESULT:      -6.4      2.120      2.666
REMARK  5 active torsions:
REMARK  status: ('A' for Active; 'I' for Inactive)
REMARK    1  A    between atoms: O_2  and  C_3 
REMARK    2  A    between atoms: C_9  and  N_10 
REMARK       I    between atoms: N_10  and  C_11 
REMARK       I    between atoms: C_11  and  N_13 
REMARK    3  A    between atoms: N_13  and  C_14 
REMARK    4  A    between atoms: C_14  and  C_15 
REMARK    5  A    between atoms: C_15  and  C_21 
REMARK       I    between atoms: C_21  and  N_23 
ROOT
HETATM    1  N   UNL     1     -42.672 -49.337  11.560  1.00  0.00    -0.305 N 
HETATM    2  C   UNL     1     -42.958 -49.684  12.858  1.00  0.00     0.320 C 
HETATM    3  O   UNL     1     -42.658 -49.035  13.852  1.00  0.00    -0.247 OA
HETATM    4  N   UNL     1     -43.717 -50.825  12.962  1.00  0.00    -0.342 N 
HETATM    5  H   UNL     1     -43.160 -49.825  10.818  1.00  0.00     0.171 HD
HETATM    6  H   UNL     1     -43.785 -51.458  12.177  1.00  0.00     0.164 HD
ENDROOT
BRANCH   4   7
HETATM    7  C   UNL     1     -44.328 -51.245  14.227  1.00  0.00     0.143 C 
BRANCH   7   8
HETATM    8  C   UNL     1     -45.574 -52.166  14.027  1.00  0.00     0.060 C 
HETATM    9  C   UNL     1     -46.878 -51.440  14.435  1.00  0.00     0.047 C 
HETATM   10  C   UNL     1     -46.937 -51.225  15.947  1.00  0.00     0.168 C 
HETATM   11  O   UNL     1     -46.914 -52.493  16.604  1.00  0.00    -0.391 OA
HETATM   12  C   UNL     1     -45.689 -53.187  16.379  1.00  0.00     0.168 C 
HETATM   13  C   UNL     1     -45.479 -53.450  14.891  1.00  0.00     0.047 C 
BRANCH   8  14
HETATM   14  C   UNL     1     -45.554 -52.615  12.555  1.00  0.00     0.226 C 
HETATM   15  O   UNL     1     -44.715 -53.390  12.094  1.00  0.00    -0.273 OA
HETATM   16  N   UNL     1     -46.576 -52.222  11.751  1.00  0.00    -0.369 N 
HETATM   17  H   UNL     1     -47.303 -51.577  12.024  1.00  0.00     0.159 HD
HETATM   18  H   UNL     1     -46.565 -52.552  10.794  1.00  0.00     0.159 HD
ENDBRANCH   8  14
ENDBRANCH   7   8
ENDBRANCH   4   7
BRANCH   1  19
HETATM   19  C   UNL     1     -41.958 -48.175  11.155  1.00  0.00     0.087 A 
HETATM   20  C   UNL     1     -42.521 -47.284  10.230  1.00  0.00     0.169 A 
HETATM   21  N   UNL     1     -41.913 -46.147   9.798  1.00  0.00    -0.345 N 
HETATM   22  C   UNL     1     -40.693 -45.878  10.308  1.00  0.00     0.090 A 
ATOM     23  HN  UNL     1     -42.357 -45.528   9.120  1.00  0.00     0.167 HD
HETATM   24  C   UNL     1     -40.052 -46.684  11.225  1.00  0.00     0.019 A 
HETATM   25  C   UNL     1     -40.691 -47.849  11.643  1.00  0.00     0.035 A 
BRANCH  20  26
HETATM   26  O   UNL     1     -43.792 -47.573   9.754  1.00  0.00    -0.339 OA
HETATM   27  C   UNL     1     -43.845 -47.605   8.327  1.00  0.00     0.211 C 
ENDBRANCH  20  26
ENDBRANCH   1  19
TORSDOF 5
ENDMDL
MODEL 8
REMARK VINA RESULT:      -6.2      1.907      3.001
REMARK  5 active torsions:
REMARK  status: ('A' for Active; 'I' for Inactive)
REMARK    1  A    between atoms: O_2  and  C_3 
REMARK    2  A    between atoms: C_9  and  N_10 
REMARK       I    between atoms: N_10  and  C_11 
REMARK       I    between atoms: C_11  and  N_13 
REMARK    3  A    between atoms: N_13  and  C_14 
REMARK    4  A    between atoms: C_14  and  C_15 
REMARK    5  A    between atoms: C_15  and  C_21 
REMARK       I    between atoms: C_21  and  N_23 
ROOT
HETATM    1  N   UNL     1     -43.096 -49.478  11.863  1.00  0.00    -0.305 N 
HETATM    2  C   UNL     1     -42.928 -50.211  13.012  1.00  0.00     0.320 C 
HETATM    3  O   UNL     1     -42.198 -49.912  13.948  1.00  0.00    -0.247 OA
HETATM    4  N   UNL     1     -43.743 -51.316  13.078  1.00  0.00    -0.342 N 
HETATM    5  H   UNL     1     -43.885 -49.702  11.267  1.00  0.00     0.171 HD
HETATM    6  H   UNL     1     -44.182 -51.669  12.239  1.00  0.00     0.164 HD
ENDROOT
BRANCH   4   7
HETATM    7  C   UNL     1     -43.896 -52.103  14.306  1.00  0.00     0.143 C 
BRANCH   7   8
HETATM    8  C   UNL     1     -43.836 -53.644  14.055  1.00  0.00     0.060 C 
HETATM    9  C   UNL     1     -43.609 -54.418  15.375  1.00  0.00     0.047 C 
HETATM   10  C   UNL     1     -42.202 -54.174  15.920  1.00  0.00     0.168 C 
HETATM   11  O   UNL     1     -41.242 -54.635  14.968  1.00  0.00    -0.391 OA
HETATM   12  C   UNL     1     -41.299 -53.893  13.753  1.00  0.00     0.168 C 
HETATM   13  C   UNL     1     -42.673 -54.021  13.101  1.00  0.00     0.047 C 
BRANCH   8  14
HETATM   14  C   UNL     1     -45.144 -54.022  13.336  1.00  0.00     0.226 C 
HETATM   15  O   UNL     1     -45.543 -53.461  12.316  1.00  0.00    -0.273 OA
HETATM   16  N   UNL     1     -45.836 -55.099  13.790  1.00  0.00    -0.369 N 
HETATM   17  H   UNL     1     -45.605 -55.618  14.625  1.00  0.00     0.159 HD
HETATM   18  H   UNL     1     -46.677 -55.354  13.287  1.00  0.00     0.159 HD
ENDBRANCH   8  14
ENDBRANCH   7   8
ENDBRANCH   4   7
BRANCH   1  19
HETATM   19  C   UNL     1     -42.430 -48.259  11.557  1.00  0.00     0.087 A 
HETATM   20  C   UNL     1     -41.140 -48.276  11.008  1.00  0.00     0.169 A 
HETATM   21  N   UNL     1     -40.436 -47.159  10.678  1.00  0.00    -0.345 N 
HETATM   22  C   UNL     1     -41.040 -45.972  10.897  1.00  0.00     0.090 A 
ATOM     23  HN  UNL     1     -39.497 -47.216  10.284  1.00  0.00     0.167 HD
HETATM   24  C   UNL     1     -42.307 -45.845  11.428  1.00  0.00     0.019 A 
HETATM   25  C   UNL     1     -43.002 -47.003  11.769  1.00  0.00     0.035 A 
BRANCH  20  26
HETATM   26  O   UNL     1     -40.563 -49.514  10.762  1.00  0.00    -0.339 OA
HETATM   27  C   UNL     1     -39.428 -49.761  11.592  1.00  0.00     0.211 C 
ENDBRANCH  20  26
ENDBRANCH   1  19
TORSDOF 5
ENDMDL
MODEL 9
REMARK VINA RESULT:      -6.1      2.609      6.866
REMARK  5 active torsions:
REMARK  status: ('A' for Active; 'I' for Inactive)
REMARK    1  A    between atoms: O_2  and  C_3 
REMARK    2  A    between atoms: C_9  and  N_10 
REMARK       I    between atoms: N_10  and  C_11 
REMARK       I    between atoms: C_11  and  N_13 
REMARK    3  A    between atoms: N_13  and  C_14 
REMARK    4  A    between atoms: C_14  and  C_15 
REMARK    5  A    between atoms: C_15  and  C_21 
REMARK       I    between atoms: C_21  and  N_23 
ROOT
HETATM    1  N   UNL     1     -44.605 -50.719  12.888  1.00  0.00    -0.305 N 
HETATM    2  C   UNL     1     -43.684 -49.944  13.550  1.00  0.00     0.320 C 
HETATM    3  O   UNL     1     -43.381 -50.049  14.731  1.00  0.00    -0.247 OA
HETATM    4  N   UNL     1     -43.031 -49.054  12.731  1.00  0.00    -0.342 N 
HETATM    5  H   UNL     1     -44.608 -50.694  11.875  1.00  0.00     0.171 HD
HETATM    6  H   UNL     1     -43.417 -48.828  11.824  1.00  0.00     0.164 HD
ENDROOT
BRANCH   4   7
HETATM    7  C   UNL     1     -41.856 -48.299  13.175  1.00  0.00     0.143 C 
BRANCH   7   8
HETATM    8  C   UNL     1     -40.542 -48.731  12.449  1.00  0.00     0.060 C 
HETATM    9  C   UNL     1     -39.908 -49.969  13.127  1.00  0.00     0.047 C 
HETATM   10  C   UNL     1     -39.354 -49.615  14.508  1.00  0.00     0.168 C 
HETATM   11  O   UNL     1     -38.338 -48.621  14.366  1.00  0.00    -0.391 OA
HETATM   12  C   UNL     1     -38.859 -47.397  13.854  1.00  0.00     0.168 C 
HETATM   13  C   UNL     1     -39.478 -47.604  12.475  1.00  0.00     0.047 C 
BRANCH   8  14
HETATM   14  C   UNL     1     -40.913 -48.961  10.972  1.00  0.00     0.226 C 
HETATM   15  O   UNL     1     -41.597 -48.176  10.316  1.00  0.00    -0.273 OA
HETATM   16  N   UNL     1     -40.369 -50.030  10.334  1.00  0.00    -0.369 N 
HETATM   17  H   UNL     1     -39.810 -50.741  10.783  1.00  0.00     0.159 HD
HETATM   18  H   UNL     1     -40.598 -50.149   9.355  1.00  0.00     0.159 HD
ENDBRANCH   8  14
ENDBRANCH   7   8
ENDBRANCH   4   7
BRANCH   1  19
HETATM   19  C   UNL     1     -45.379 -51.759  13.473  1.00  0.00     0.087 A 
HETATM   20  C   UNL     1     -45.115 -53.100  13.159  1.00  0.00     0.169 A 
HETATM   21  N   UNL     1     -45.798 -54.155  13.680  1.00  0.00    -0.345 N 
HETATM   22  C   UNL     1     -46.785 -53.869  14.554  1.00  0.00     0.090 A 
ATOM     23  HN  UNL     1     -45.575 -55.116  13.421  1.00  0.00     0.167 HD
HETATM   24  C   UNL     1     -47.124 -52.586  14.933  1.00  0.00     0.019 A 
HETATM   25  C   UNL     1     -46.417 -51.523  14.377  1.00  0.00     0.035 A 
BRANCH  20  26
HETATM   26  O   UNL     1     -44.069 -53.360  12.285  1.00  0.00    -0.339 OA
HETATM   27  C   UNL     1     -42.893 -53.810  12.960  1.00  0.00     0.211 C 
ENDBRANCH  20  26
ENDBRANCH   1  19
TORSDOF 5
ENDMDL
