MODEL 1
REMARK VINA RESULT:      -5.4      0.000      0.000
REMARK  9 active torsions:
REMARK  status: ('A' for Active; 'I' for Inactive)
REMARK    1  A    between atoms: N_5  and  C_6 
REMARK    2  A    between atoms: C_6  and  C_7 
REMARK    3  A    between atoms: C_7  and  O_8 
REMARK    4  A    between atoms: C_7  and  C_9 
REMARK    5  A    between atoms: C_9  and  O_10 
REMARK    6  A    between atoms: O_10  and  C_11 
REMARK    7  A    between atoms: C_11  and  C_12 
REMARK    8  A    between atoms: C_19  and  C_20 
REMARK    9  A    between atoms: C_20  and  N_21 
ROOT
HETATM    1  C   UNL     1     -41.436 -55.469  16.263  1.00  0.00     0.070 C 
HETATM    2  C   UNL     1     -42.213 -54.910  15.089  1.00  0.00     0.029 A 
HETATM    3  N   UNL     1     -43.449 -55.284  14.971  1.00  0.00    -0.300 N 
ATOM      4  HN  UNL     1     -43.853 -55.958  15.622  1.00  0.00     0.187 HD
HETATM    5  N   UNL     1     -44.205 -54.754  13.948  1.00  0.00    -0.254 N 
HETATM    6  C   UNL     1     -43.698 -53.895  12.977  1.00  0.00     0.282 A 
HETATM    7  O   UNL     1     -44.347 -53.462  12.029  1.00  0.00    -0.265 OA
HETATM    8  C   UNL     1     -42.287 -53.511  13.157  1.00  0.00     0.103 A 
HETATM    9  C   UNL     1     -41.531 -53.975  14.168  1.00  0.00    -0.013 A 
HETATM   10  C   UNL     1     -40.084 -53.647  14.410  1.00  0.00     0.052 C 
ENDROOT
BRANCH   5  11
HETATM   11  C   UNL     1     -45.604 -55.188  13.860  1.00  0.00     0.186 C 
BRANCH  11  12
HETATM   12  C   UNL     1     -46.515 -54.572  14.940  1.00  0.00     0.162 C 
BRANCH  12  13
HETATM   13  O   UNL     1     -45.852 -54.543  16.208  1.00  0.00    -0.392 OA
HETATM   14  H   UNL     1     -46.526 -54.198  16.833  1.00  0.00     0.210 HD
ENDBRANCH  12  13
BRANCH  12  15
HETATM   15  C   UNL     1     -46.988 -53.164  14.564  1.00  0.00     0.201 C 
BRANCH  15  16
HETATM   16  O   UNL     1     -46.189 -52.211  15.253  1.00  0.00    -0.384 OA
BRANCH  16  17
HETATM   17  C   UNL     1     -45.754 -51.150  14.410  1.00  0.00     0.213 C 
BRANCH  17  18
HETATM   18  C   UNL     1     -44.343 -50.849  14.804  1.00  0.00     0.006 A 
HETATM   19  C   UNL     1     -43.421 -50.042  14.165  1.00  0.00     0.017 A 
HETATM   20  C   UNL     1     -42.176 -49.984  14.854  1.00  0.00     0.008 A 
HETATM   21  C   UNL     1     -42.181 -50.767  15.986  1.00  0.00     0.050 A 
HETATM   22  S   UNL     1     -43.677 -51.564  16.213  1.00  0.00    -0.104 SA
ENDBRANCH  17  18
ENDBRANCH  16  17
ENDBRANCH  15  16
ENDBRANCH  12  15
ENDBRANCH  11  12
ENDBRANCH   5  11
BRANCH   8  23
HETATM   23  C   UNL     1     -41.639 -52.581  12.144  1.00  0.00    -0.031 C 
BRANCH  23  24
HETATM   24  N   UNL     1     -41.102 -51.809  11.303  1.00  0.00    -0.365 N 
ATOM     25  HN2 UNL     1     -41.544 -52.449  11.964  1.00  0.00     0.165 HD
ATOM     26  HN1 UNL     1     -40.668 -51.185  10.624  1.00  0.00     0.165 HD
ENDBRANCH  23  24
ENDBRANCH   8  23
TORSDOF 9
ENDMDL
MODEL 2
REMARK VINA RESULT:      -5.0      2.744      5.770
REMARK  9 active torsions:
REMARK  status: ('A' for Active; 'I' for Inactive)
REMARK    1  A    between atoms: N_5  and  C_6 
REMARK    2  A    between atoms: C_6  and  C_7 
REMARK    3  A    between atoms: C_7  and  O_8 
REMARK    4  A    between atoms: C_7  and  C_9 
REMARK    5  A    between atoms: C_9  and  O_10 
REMARK    6  A    between atoms: O_10  and  C_11 
REMARK    7  A    between atoms: C_11  and  C_12 
REMARK    8  A    between atoms: C_19  and  C_20 
REMARK    9  A    between atoms: C_20  and  N_21 
ROOT
HETATM    1  C   UNL     1     -46.483 -51.603  12.385  1.00  0.00     0.070 C 
HETATM    2  C   UNL     1     -45.306 -51.207  13.253  1.00  0.00     0.029 A 
HETATM    3  N   UNL     1     -44.235 -50.806  12.643  1.00  0.00    -0.300 N 
ATOM      4  HN  UNL     1     -44.187 -50.803  11.623  1.00  0.00     0.187 HD
HETATM    5  N   UNL     1     -43.163 -50.384  13.399  1.00  0.00    -0.254 N 
HETATM    6  C   UNL     1     -43.128 -50.438  14.790  1.00  0.00     0.282 A 
HETATM    7  O   UNL     1     -42.158 -50.119  15.471  1.00  0.00    -0.265 OA
HETATM    8  C   UNL     1     -44.370 -50.909  15.428  1.00  0.00     0.103 A 
HETATM    9  C   UNL     1     -45.450 -51.287  14.723  1.00  0.00    -0.013 A 
HETATM   10  C   UNL     1     -46.743 -51.797  15.297  1.00  0.00     0.052 C 
ENDROOT
BRANCH   5  11
HETATM   11  C   UNL     1     -41.975 -49.920  12.671  1.00  0.00     0.186 C 
BRANCH  11  12
HETATM   12  C   UNL     1     -41.216 -51.044  11.940  1.00  0.00     0.162 C 
BRANCH  12  13
HETATM   13  O   UNL     1     -40.698 -50.579  10.689  1.00  0.00    -0.392 OA
HETATM   14  H   UNL     1     -40.645 -51.384  10.128  1.00  0.00     0.210 HD
ENDBRANCH  12  13
BRANCH  12  15
HETATM   15  C   UNL     1     -40.082 -51.625  12.792  1.00  0.00     0.201 C 
BRANCH  15  16
HETATM   16  O   UNL     1     -40.222 -53.040  12.841  1.00  0.00    -0.384 OA
BRANCH  16  17
HETATM   17  C   UNL     1     -40.222 -53.543  14.173  1.00  0.00     0.213 C 
BRANCH  17  18
HETATM   18  C   UNL     1     -41.636 -53.917  14.482  1.00  0.00     0.006 A 
HETATM   19  C   UNL     1     -42.677 -54.163  13.606  1.00  0.00     0.017 A 
HETATM   20  C   UNL     1     -43.883 -54.513  14.276  1.00  0.00     0.008 A 
HETATM   21  C   UNL     1     -43.731 -54.501  15.644  1.00  0.00     0.050 A 
HETATM   22  S   UNL     1     -42.143 -54.072  16.112  1.00  0.00    -0.104 SA
ENDBRANCH  17  18
ENDBRANCH  16  17
ENDBRANCH  15  16
ENDBRANCH  12  15
ENDBRANCH  11  12
ENDBRANCH   5  11
BRANCH   8  23
HETATM   23  C   UNL     1     -44.429 -51.010  16.944  1.00  0.00    -0.031 C 
BRANCH  23  24
HETATM   24  N   UNL     1     -44.478 -51.093  18.201  1.00  0.00    -0.365 N 
ATOM     25  HN2 UNL     1     -44.446 -51.050  17.182  1.00  0.00     0.165 HD
ATOM     26  HN1 UNL     1     -44.517 -51.160  19.218  1.00  0.00     0.165 HD
ENDBRANCH  23  24
ENDBRANCH   8  23
TORSDOF 9
ENDMDL
MODEL 3
REMARK VINA RESULT:      -4.9      2.904      4.734
REMARK  9 active torsions:
REMARK  status: ('A' for Active; 'I' for Inactive)
REMARK    1  A    between atoms: N_5  and  C_6 
REMARK    2  A    between atoms: C_6  and  C_7 
REMARK    3  A    between atoms: C_7  and  O_8 
REMARK    4  A    between atoms: C_7  and  C_9 
REMARK    5  A    between atoms: C_9  and  O_10 
REMARK    6  A    between atoms: O_10  and  C_11 
REMARK    7  A    between atoms: C_11  and  C_12 
REMARK    8  A    between atoms: C_19  and  C_20 
REMARK    9  A    between atoms: C_20  and  N_21 
ROOT
HETATM    1  C   UNL     1     -38.093 -51.613  13.461  1.00  0.00     0.070 C 
HETATM    2  C   UNL     1     -39.368 -50.910  13.044  1.00  0.00     0.029 A 
HETATM    3  N   UNL     1     -40.486 -51.482  13.363  1.00  0.00    -0.300 N 
ATOM      4  HN  UNL     1     -40.493 -52.385  13.836  1.00  0.00     0.187 HD
HETATM    5  N   UNL     1     -41.667 -50.844  13.049  1.00  0.00    -0.254 N 
HETATM    6  C   UNL     1     -41.737 -49.651  12.334  1.00  0.00     0.282 A 
HETATM    7  O   UNL     1     -42.783 -49.104  12.000  1.00  0.00    -0.265 OA
HETATM    8  C   UNL     1     -40.435 -49.052  11.992  1.00  0.00     0.103 A 
HETATM    9  C   UNL     1     -39.263 -49.624  12.320  1.00  0.00    -0.013 A 
HETATM   10  C   UNL     1     -37.897 -49.087  11.991  1.00  0.00     0.052 C 
ENDROOT
BRANCH   5  11
HETATM   11  C   UNL     1     -42.912 -51.515  13.444  1.00  0.00     0.186 C 
BRANCH  11  12
HETATM   12  C   UNL     1     -43.364 -52.612  12.460  1.00  0.00     0.162 C 
BRANCH  12  13
HETATM   13  O   UNL     1     -42.403 -52.784  11.413  1.00  0.00    -0.392 OA
HETATM   14  H   UNL     1     -41.911 -53.598  11.658  1.00  0.00     0.210 HD
ENDBRANCH  12  13
BRANCH  12  15
HETATM   15  C   UNL     1     -43.617 -53.951  13.163  1.00  0.00     0.201 C 
BRANCH  15  16
HETATM   16  O   UNL     1     -44.917 -54.413  12.817  1.00  0.00    -0.384 OA
BRANCH  16  17
HETATM   17  C   UNL     1     -45.656 -54.864  13.947  1.00  0.00     0.213 C 
BRANCH  17  18
HETATM   18  C   UNL     1     -46.095 -53.636  14.680  1.00  0.00     0.006 A 
HETATM   19  C   UNL     1     -46.684 -52.492  14.176  1.00  0.00     0.017 A 
HETATM   20  C   UNL     1     -46.979 -51.537  15.189  1.00  0.00     0.008 A 
HETATM   21  C   UNL     1     -46.586 -51.974  16.434  1.00  0.00     0.050 A 
HETATM   22  S   UNL     1     -45.867 -53.524  16.376  1.00  0.00    -0.104 SA
ENDBRANCH  17  18
ENDBRANCH  16  17
ENDBRANCH  15  16
ENDBRANCH  12  15
ENDBRANCH  11  12
ENDBRANCH   5  11
BRANCH   8  23
HETATM   23  C   UNL     1     -40.404 -47.752  11.204  1.00  0.00    -0.031 C 
BRANCH  23  24
HETATM   24  N   UNL     1     -40.379 -46.673  10.551  1.00  0.00    -0.365 N 
ATOM     25  HN2 UNL     1     -40.381 -47.555  11.065  1.00  0.00     0.165 HD
ATOM     26  HN1 UNL     1     -40.359 -45.801  10.023  1.00  0.00     0.165 HD
ENDBRANCH  23  24
ENDBRANCH   8  23
TORSDOF 9
ENDMDL
MODEL 4
REMARK VINA RESULT:      -4.9      1.967      2.656
REMARK  9 active torsions:
REMARK  status: ('A' for Active; 'I' for Inactive)
REMARK    1  A    between atoms: N_5  and  C_6 
REMARK    2  A    between atoms: C_6  and  C_7 
REMARK    3  A    between atoms: C_7  and  O_8 
REMARK    4  A    between atoms: C_7  and  C_9 
REMARK    5  A    between atoms: C_9  and  O_10 
REMARK    6  A    between atoms: O_10  and  C_11 
REMARK    7  A    between atoms: C_11  and  C_12 
REMARK    8  A    between atoms: C_19  and  C_20 
REMARK    9  A    between atoms: C_20  and  N_21 
ROOT
HETATM    1  C   UNL     1     -41.381 -55.385  16.252  1.00  0.00     0.070 C 
HETATM    2  C   UNL     1     -42.156 -54.843  15.070  1.00  0.00     0.029 A 
HETATM    3  N   UNL     1     -43.395 -55.211  14.961  1.00  0.00    -0.300 N 
ATOM      4  HN  UNL     1     -43.803 -55.869  15.626  1.00  0.00     0.187 HD
HETATM    5  N   UNL     1     -44.149 -54.695  13.930  1.00  0.00    -0.254 N 
HETATM    6  C   UNL     1     -43.639 -53.858  12.941  1.00  0.00     0.282 A 
HETATM    7  O   UNL     1     -44.286 -53.439  11.986  1.00  0.00    -0.265 OA
HETATM    8  C   UNL     1     -42.224 -53.480  13.112  1.00  0.00     0.103 A 
HETATM    9  C   UNL     1     -41.470 -53.930  14.130  1.00  0.00    -0.013 A 
HETATM   10  C   UNL     1     -40.020 -53.607  14.362  1.00  0.00     0.052 C 
ENDROOT
BRANCH   5  11
HETATM   11  C   UNL     1     -45.552 -55.121  13.852  1.00  0.00     0.186 C 
BRANCH  11  12
HETATM   12  C   UNL     1     -46.459 -54.471  14.915  1.00  0.00     0.162 C 
BRANCH  12  13
HETATM   13  O   UNL     1     -45.928 -54.674  16.229  1.00  0.00    -0.392 OA
HETATM   14  H   UNL     1     -45.398 -55.498  16.158  1.00  0.00     0.210 HD
ENDBRANCH  12  13
BRANCH  12  15
HETATM   15  C   UNL     1     -46.668 -52.974  14.660  1.00  0.00     0.201 C 
BRANCH  15  16
HETATM   16  O   UNL     1     -45.679 -52.243  15.374  1.00  0.00    -0.384 OA
BRANCH  16  17
HETATM   17  C   UNL     1     -46.146 -50.969  15.805  1.00  0.00     0.213 C 
BRANCH  17  18
HETATM   18  C   UNL     1     -46.837 -51.193  17.112  1.00  0.00     0.006 A 
HETATM   19  C   UNL     1     -48.166 -50.989  17.433  1.00  0.00     0.017 A 
HETATM   20  C   UNL     1     -48.461 -51.334  18.782  1.00  0.00     0.008 A 
HETATM   21  C   UNL     1     -47.343 -51.771  19.456  1.00  0.00     0.050 A 
HETATM   22  S   UNL     1     -45.950 -51.763  18.464  1.00  0.00    -0.104 SA
ENDBRANCH  17  18
ENDBRANCH  16  17
ENDBRANCH  15  16
ENDBRANCH  12  15
ENDBRANCH  11  12
ENDBRANCH   5  11
BRANCH   8  23
HETATM   23  C   UNL     1     -41.572 -52.574  12.079  1.00  0.00    -0.031 C 
BRANCH  23  24
HETATM   24  N   UNL     1     -41.032 -51.823  11.223  1.00  0.00    -0.365 N 
ATOM     25  HN2 UNL     1     -41.486 -52.412  11.921  1.00  0.00     0.165 HD
ATOM     26  HN1 UNL     1     -40.594 -51.216  10.530  1.00  0.00     0.165 HD
ENDBRANCH  23  24
ENDBRANCH   8  23
TORSDOF 9
ENDMDL
MODEL 5
REMARK VINA RESULT:      -4.8      3.175      5.527
REMARK  9 active torsions:
REMARK  status: ('A' for Active; 'I' for Inactive)
REMARK    1  A    between atoms: N_5  and  C_6 
REMARK    2  A    between atoms: C_6  and  C_7 
REMARK    3  A    between atoms: C_7  and  O_8 
REMARK    4  A    between atoms: C_7  and  C_9 
REMARK    5  A    between atoms: C_9  and  O_10 
REMARK    6  A    between atoms: O_10  and  C_11 
REMARK    7  A    between atoms: C_11  and  C_12 
REMARK    8  A    between atoms: C_19  and  C_20 
REMARK    9  A    between atoms: C_20  and  N_21 
ROOT
HETATM    1  C   UNL     1     -43.107 -50.497  13.050  1.00  0.00     0.070 C 
HETATM    2  C   UNL     1     -43.210 -51.901  13.609  1.00  0.00     0.029 A 
HETATM    3  N   UNL     1     -42.101 -52.480  13.950  1.00  0.00    -0.300 N 
ATOM      4  HN  UNL     1     -41.205 -52.016  13.803  1.00  0.00     0.187 HD
HETATM    5  N   UNL     1     -42.159 -53.736  14.514  1.00  0.00    -0.254 N 
HETATM    6  C   UNL     1     -43.337 -54.462  14.670  1.00  0.00     0.282 A 
HETATM    7  O   UNL     1     -43.394 -55.602  15.119  1.00  0.00    -0.265 OA
HETATM    8  C   UNL     1     -44.564 -53.756  14.259  1.00  0.00     0.103 A 
HETATM    9  C   UNL     1     -44.549 -52.513  13.745  1.00  0.00    -0.013 A 
HETATM   10  C   UNL     1     -45.751 -51.735  13.285  1.00  0.00     0.052 C 
ENDROOT
BRANCH   5  11
HETATM   11  C   UNL     1     -40.884 -54.351  14.904  1.00  0.00     0.186 C 
BRANCH  11  12
HETATM   12  C   UNL     1     -39.759 -54.156  13.868  1.00  0.00     0.162 C 
BRANCH  12  13
HETATM   13  O   UNL     1     -40.294 -54.088  12.542  1.00  0.00    -0.392 OA
HETATM   14  H   UNL     1     -39.861 -53.304  12.139  1.00  0.00     0.210 HD
ENDBRANCH  12  13
BRANCH  12  15
HETATM   15  C   UNL     1     -38.917 -52.909  14.157  1.00  0.00     0.201 C 
BRANCH  15  16
HETATM   16  O   UNL     1     -39.051 -52.001  13.071  1.00  0.00    -0.384 OA
BRANCH  16  17
HETATM   17  C   UNL     1     -37.965 -51.085  12.986  1.00  0.00     0.213 C 
BRANCH  17  18
HETATM   18  C   UNL     1     -38.570 -49.729  12.802  1.00  0.00     0.006 A 
HETATM   19  C   UNL     1     -39.257 -49.230  11.711  1.00  0.00     0.017 A 
HETATM   20  C   UNL     1     -39.702 -47.893  11.911  1.00  0.00     0.008 A 
HETATM   21  C   UNL     1     -39.322 -47.406  13.142  1.00  0.00     0.050 A 
HETATM   22  S   UNL     1     -38.436 -48.556  14.044  1.00  0.00    -0.104 SA
ENDBRANCH  17  18
ENDBRANCH  16  17
ENDBRANCH  15  16
ENDBRANCH  12  15
ENDBRANCH  11  12
ENDBRANCH   5  11
BRANCH   8  23
HETATM   23  C   UNL     1     -45.902 -54.466  14.383  1.00  0.00    -0.031 C 
BRANCH  23  24
HETATM   24  N   UNL     1     -47.012 -55.056  14.486  1.00  0.00    -0.365 N 
ATOM     25  HN2 UNL     1     -46.118 -54.568  14.426  1.00  0.00     0.165 HD
ATOM     26  HN1 UNL     1     -47.910 -55.533  14.569  1.00  0.00     0.165 HD
ENDBRANCH  23  24
ENDBRANCH   8  23
TORSDOF 9
ENDMDL
MODEL 6
REMARK VINA RESULT:      -4.8      2.837      5.133
REMARK  9 active torsions:
REMARK  status: ('A' for Active; 'I' for Inactive)
REMARK    1  A    between atoms: N_5  and  C_6 
REMARK    2  A    between atoms: C_6  and  C_7 
REMARK    3  A    between atoms: C_7  and  O_8 
REMARK    4  A    between atoms: C_7  and  C_9 
REMARK    5  A    between atoms: C_9  and  O_10 
REMARK    6  A    between atoms: O_10  and  C_11 
REMARK    7  A    between atoms: C_11  and  C_12 
REMARK    8  A    between atoms: C_19  and  C_20 
REMARK    9  A    between atoms: C_20  and  N_21 
ROOT
HETATM    1  C   UNL     1     -42.548 -47.227  12.797  1.00  0.00     0.070 C 
HETATM    2  C   UNL     1     -41.754 -48.513  12.708  1.00  0.00     0.029 A 
HETATM    3  N   UNL     1     -42.295 -49.575  13.218  1.00  0.00    -0.300 N 
ATOM      4  HN  UNL     1     -43.197 -49.522  13.693  1.00  0.00     0.187 HD
HETATM    5  N   UNL     1     -41.628 -50.775  13.107  1.00  0.00    -0.254 N 
HETATM    6  C   UNL     1     -40.360 -50.907  12.547  1.00  0.00     0.282 A 
HETATM    7  O   UNL     1     -39.732 -51.960  12.494  1.00  0.00    -0.265 OA
HETATM    8  C   UNL     1     -39.791 -49.667  11.990  1.00  0.00     0.103 A 
HETATM    9  C   UNL     1     -40.433 -48.486  12.042  1.00  0.00    -0.013 A 
HETATM   10  C   UNL     1     -39.914 -47.177  11.516  1.00  0.00     0.052 C 
ENDROOT
BRANCH   5  11
HETATM   11  C   UNL     1     -42.282 -51.957  13.682  1.00  0.00     0.186 C 
BRANCH  11  12
HETATM   12  C   UNL     1     -43.204 -52.699  12.694  1.00  0.00     0.162 C 
BRANCH  12  13
HETATM   13  O   UNL     1     -42.597 -52.787  11.400  1.00  0.00    -0.392 OA
HETATM   14  H   UNL     1     -41.632 -52.815  11.580  1.00  0.00     0.210 HD
ENDBRANCH  12  13
BRANCH  12  15
HETATM   15  C   UNL     1     -43.581 -54.098  13.192  1.00  0.00     0.201 C 
BRANCH  15  16
HETATM   16  O   UNL     1     -44.939 -54.355  12.858  1.00  0.00    -0.384 OA
BRANCH  16  17
HETATM   17  C   UNL     1     -45.696 -54.820  13.970  1.00  0.00     0.213 C 
BRANCH  17  18
HETATM   18  C   UNL     1     -46.118 -53.604  14.731  1.00  0.00     0.006 A 
HETATM   19  C   UNL     1     -46.704 -52.446  14.256  1.00  0.00     0.017 A 
HETATM   20  C   UNL     1     -46.981 -51.509  15.291  1.00  0.00     0.008 A 
HETATM   21  C   UNL     1     -46.577 -51.972  16.522  1.00  0.00     0.050 A 
HETATM   22  S   UNL     1     -45.870 -53.526  16.426  1.00  0.00    -0.104 SA
ENDBRANCH  17  18
ENDBRANCH  16  17
ENDBRANCH  15  16
ENDBRANCH  12  15
ENDBRANCH  11  12
ENDBRANCH   5  11
BRANCH   8  23
HETATM   23  C   UNL     1     -38.407 -49.706  11.362  1.00  0.00    -0.031 C 
BRANCH  23  24
HETATM   24  N   UNL     1     -37.260 -49.739  10.840  1.00  0.00    -0.365 N 
ATOM     25  HN2 UNL     1     -38.192 -49.737  11.256  1.00  0.00     0.165 HD
ATOM     26  HN1 UNL     1     -36.332 -49.765  10.418  1.00  0.00     0.165 HD
ENDBRANCH  23  24
ENDBRANCH   8  23
TORSDOF 9
ENDMDL
MODEL 7
REMARK VINA RESULT:      -4.8      2.651      4.566
REMARK  9 active torsions:
REMARK  status: ('A' for Active; 'I' for Inactive)
REMARK    1  A    between atoms: N_5  and  C_6 
REMARK    2  A    between atoms: C_6  and  C_7 
REMARK    3  A    between atoms: C_7  and  O_8 
REMARK    4  A    between atoms: C_7  and  C_9 
REMARK    5  A    between atoms: C_9  and  O_10 
REMARK    6  A    between atoms: O_10  and  C_11 
REMARK    7  A    between atoms: C_11  and  C_12 
REMARK    8  A    between atoms: C_19  and  C_20 
REMARK    9  A    between atoms: C_20  and  N_21 
ROOT
HETATM    1  C   UNL     1     -45.170 -51.979  17.198  1.00  0.00     0.070 C 
HETATM    2  C   UNL     1     -44.892 -52.533  15.816  1.00  0.00     0.029 A 
HETATM    3  N   UNL     1     -43.865 -53.314  15.692  1.00  0.00    -0.300 N 
ATOM      4  HN  UNL     1     -43.256 -53.503  16.488  1.00  0.00     0.187 HD
HETATM    5  N   UNL     1     -43.612 -53.882  14.462  1.00  0.00    -0.254 N 
HETATM    6  C   UNL     1     -44.350 -53.606  13.314  1.00  0.00     0.282 A 
HETATM    7  O   UNL     1     -44.099 -54.061  12.203  1.00  0.00    -0.265 OA
HETATM    8  C   UNL     1     -45.501 -52.706  13.514  1.00  0.00     0.103 A 
HETATM    9  C   UNL     1     -45.803 -52.168  14.709  1.00  0.00    -0.013 A 
HETATM   10  C   UNL     1     -46.944 -51.230  14.989  1.00  0.00     0.052 C 
ENDROOT
BRANCH   5  11
HETATM   11  C   UNL     1     -42.450 -54.775  14.367  1.00  0.00     0.186 C 
BRANCH  11  12
HETATM   12  C   UNL     1     -41.101 -54.065  14.599  1.00  0.00     0.162 C 
BRANCH  12  13
HETATM   13  O   UNL     1     -40.426 -54.616  15.735  1.00  0.00    -0.392 OA
HETATM   14  H   UNL     1     -41.125 -54.712  16.417  1.00  0.00     0.210 HD
ENDBRANCH  12  13
BRANCH  12  15
HETATM   15  C   UNL     1     -40.193 -54.132  13.366  1.00  0.00     0.201 C 
BRANCH  15  16
HETATM   16  O   UNL     1     -40.377 -52.952  12.595  1.00  0.00    -0.384 OA
BRANCH  16  17
HETATM   17  C   UNL     1     -40.102 -51.766  13.334  1.00  0.00     0.213 C 
BRANCH  17  18
HETATM   18  C   UNL     1     -41.146 -50.771  12.938  1.00  0.00     0.006 A 
HETATM   19  C   UNL     1     -42.409 -50.585  13.469  1.00  0.00     0.017 A 
HETATM   20  C   UNL     1     -43.114 -49.520  12.841  1.00  0.00     0.008 A 
HETATM   21  C   UNL     1     -42.374 -48.939  11.836  1.00  0.00     0.050 A 
HETATM   22  S   UNL     1     -40.842 -49.676  11.654  1.00  0.00    -0.104 SA
ENDBRANCH  17  18
ENDBRANCH  16  17
ENDBRANCH  15  16
ENDBRANCH  12  15
ENDBRANCH  11  12
ENDBRANCH   5  11
BRANCH   8  23
HETATM   23  C   UNL     1     -46.366 -52.338  12.320  1.00  0.00    -0.031 C 
BRANCH  23  24
HETATM   24  N   UNL     1     -47.084 -52.032  11.329  1.00  0.00    -0.365 N 
ATOM     25  HN2 UNL     1     -46.499 -52.254  12.135  1.00  0.00     0.165 HD
ATOM     26  HN1 UNL     1     -47.664 -51.785  10.528  1.00  0.00     0.165 HD
ENDBRANCH  23  24
ENDBRANCH   8  23
TORSDOF 9
ENDMDL
MODEL 8
REMARK VINA RESULT:      -4.7      4.616      7.275
REMARK  9 active torsions:
REMARK  status: ('A' for Active; 'I' for Inactive)
REMARK    1  A    between atoms: N_5  and  C_6 
REMARK    2  A    between atoms: C_6  and  C_7 
REMARK    3  A    between atoms: C_7  and  O_8 
REMARK    4  A    between atoms: C_7  and  C_9 
REMARK    5  A    between atoms: C_9  and  O_10 
REMARK    6  A    between atoms: O_10  and  C_11 
REMARK    7  A    between atoms: C_11  and  C_12 
REMARK    8  A    between atoms: C_19  and  C_20 
REMARK    9  A    between atoms: C_20  and  N_21 
ROOT
HETATM    1  C   UNL     1     -44.548 -47.498   8.995  1.00  0.00     0.070 C 
HETATM    2  C   UNL     1     -43.238 -47.341   9.738  1.00  0.00     0.029 A 
HETATM    3  N   UNL     1     -42.636 -48.430  10.104  1.00  0.00    -0.300 N 
ATOM      4  HN  UNL     1     -43.059 -49.342   9.931  1.00  0.00     0.187 HD
HETATM    5  N   UNL     1     -41.414 -48.329  10.733  1.00  0.00    -0.254 N 
HETATM    6  C   UNL     1     -40.816 -47.119  11.074  1.00  0.00     0.282 A 
HETATM    7  O   UNL     1     -39.756 -47.018  11.684  1.00  0.00    -0.265 OA
HETATM    8  C   UNL     1     -41.548 -45.916  10.639  1.00  0.00     0.103 A 
HETATM    9  C   UNL     1     -42.721 -45.977   9.985  1.00  0.00    -0.013 A 
HETATM   10  C   UNL     1     -43.537 -44.800   9.526  1.00  0.00     0.052 C 
ENDROOT
BRANCH   5  11
HETATM   11  C   UNL     1     -40.756 -49.585  11.116  1.00  0.00     0.186 C 
BRANCH  11  12
HETATM   12  C   UNL     1     -41.406 -50.281  12.328  1.00  0.00     0.162 C 
BRANCH  12  13
HETATM   13  O   UNL     1     -42.646 -49.654  12.671  1.00  0.00    -0.392 OA
HETATM   14  H   UNL     1     -42.604 -48.770  12.244  1.00  0.00     0.210 HD
ENDBRANCH  12  13
BRANCH  12  15
HETATM   15  C   UNL     1     -41.625 -51.778  12.087  1.00  0.00     0.201 C 
BRANCH  15  16
HETATM   16  O   UNL     1     -42.554 -52.268  13.047  1.00  0.00    -0.384 OA
BRANCH  16  17
HETATM   17  C   UNL     1     -43.641 -52.966  12.449  1.00  0.00     0.213 C 
BRANCH  17  18
HETATM   18  C   UNL     1     -44.856 -52.615  13.247  1.00  0.00     0.006 A 
HETATM   19  C   UNL     1     -45.569 -51.431  13.261  1.00  0.00     0.017 A 
HETATM   20  C   UNL     1     -46.688 -51.478  14.140  1.00  0.00     0.008 A 
HETATM   21  C   UNL     1     -46.781 -52.690  14.786  1.00  0.00     0.050 A 
HETATM   22  S   UNL     1     -45.527 -53.760  14.332  1.00  0.00    -0.104 SA
ENDBRANCH  17  18
ENDBRANCH  16  17
ENDBRANCH  15  16
ENDBRANCH  12  15
ENDBRANCH  11  12
ENDBRANCH   5  11
BRANCH   8  23
HETATM   23  C   UNL     1     -40.980 -44.546  10.970  1.00  0.00    -0.031 C 
BRANCH  23  24
HETATM   24  N   UNL     1     -40.508 -43.409  11.244  1.00  0.00    -0.365 N 
ATOM     25  HN2 UNL     1     -40.913 -44.321  11.030  1.00  0.00     0.165 HD
ATOM     26  HN1 UNL     1     -40.126 -42.490  11.467  1.00  0.00     0.165 HD
ENDBRANCH  23  24
ENDBRANCH   8  23
TORSDOF 9
ENDMDL
MODEL 9
REMARK VINA RESULT:      -4.7      3.263      5.161
REMARK  9 active torsions:
REMARK  status: ('A' for Active; 'I' for Inactive)
REMARK    1  A    between atoms: N_5  and  C_6 
REMARK    2  A    between atoms: C_6  and  C_7 
REMARK    3  A    between atoms: C_7  and  O_8 
REMARK    4  A    between atoms: C_7  and  C_9 
REMARK    5  A    between atoms: C_9  and  O_10 
REMARK    6  A    between atoms: O_10  and  C_11 
REMARK    7  A    between atoms: C_11  and  C_12 
REMARK    8  A    between atoms: C_19  and  C_20 
REMARK    9  A    between atoms: C_20  and  N_21 
ROOT
HETATM    1  C   UNL     1     -44.741 -51.822  16.883  1.00  0.00     0.070 C 
HETATM    2  C   UNL     1     -44.528 -52.280  15.456  1.00  0.00     0.029 A 
HETATM    3  N   UNL     1     -43.405 -52.872  15.190  1.00  0.00    -0.300 N 
ATOM      4  HN  UNL     1     -42.691 -52.980  15.911  1.00  0.00     0.187 HD
HETATM    5  N   UNL     1     -43.198 -53.353  13.916  1.00  0.00    -0.254 N 
HETATM    6  C   UNL     1     -44.091 -53.170  12.864  1.00  0.00     0.282 A 
HETATM    7  O   UNL     1     -43.891 -53.544  11.712  1.00  0.00    -0.265 OA
HETATM    8  C   UNL     1     -45.345 -52.484  13.223  1.00  0.00     0.103 A 
HETATM    9  C   UNL     1     -45.601 -52.040  14.466  1.00  0.00    -0.013 A 
HETATM   10  C   UNL     1     -46.843 -51.316  14.906  1.00  0.00     0.052 C 
ENDROOT
BRANCH   5  11
HETATM   11  C   UNL     1     -41.922 -54.034  13.660  1.00  0.00     0.186 C 
BRANCH  11  12
HETATM   12  C   UNL     1     -40.869 -53.142  12.975  1.00  0.00     0.162 C 
BRANCH  12  13
HETATM   13  O   UNL     1     -40.779 -53.442  11.578  1.00  0.00    -0.392 OA
HETATM   14  H   UNL     1     -40.471 -54.374  11.543  1.00  0.00     0.210 HD
ENDBRANCH  12  13
BRANCH  12  15
HETATM   15  C   UNL     1     -41.157 -51.650  13.172  1.00  0.00     0.201 C 
BRANCH  15  16
HETATM   16  O   UNL     1     -40.933 -50.971  11.942  1.00  0.00    -0.384 OA
BRANCH  16  17
HETATM   17  C   UNL     1     -39.749 -50.182  11.961  1.00  0.00     0.213 C 
BRANCH  17  18
HETATM   18  C   UNL     1     -40.162 -48.792  11.594  1.00  0.00     0.006 A 
HETATM   19  C   UNL     1     -39.498 -47.602  11.828  1.00  0.00     0.017 A 
HETATM   20  C   UNL     1     -40.199 -46.476  11.312  1.00  0.00     0.008 A 
HETATM   21  C   UNL     1     -41.387 -46.839  10.720  1.00  0.00     0.050 A 
HETATM   22  S   UNL     1     -41.651 -48.527  10.787  1.00  0.00    -0.104 SA
ENDBRANCH  17  18
ENDBRANCH  16  17
ENDBRANCH  15  16
ENDBRANCH  12  15
ENDBRANCH  11  12
ENDBRANCH   5  11
BRANCH   8  23
HETATM   23  C   UNL     1     -46.384 -52.230  12.142  1.00  0.00    -0.031 C 
BRANCH  23  24
HETATM   24  N   UNL     1     -47.245 -52.020  11.244  1.00  0.00    -0.365 N 
ATOM     25  HN2 UNL     1     -46.565 -52.183  11.988  1.00  0.00     0.165 HD
ATOM     26  HN1 UNL     1     -47.940 -51.850  10.518  1.00  0.00     0.165 HD
ENDBRANCH  23  24
ENDBRANCH   8  23
TORSDOF 9
ENDMDL
