MODEL 1
REMARK VINA RESULT:      -7.4      0.000      0.000
REMARK  4 active torsions:
REMARK  status: ('A' for Active; 'I' for Inactive)
REMARK    1  A    between atoms: N_1  and  C_14 
REMARK    2  A    between atoms: N_2  and  C_15 
REMARK    3  A    between atoms: C_9  and  C_14 
REMARK    4  A    between atoms: C_10  and  C_17 
ROOT
HETATM    1  C   UNL     1     -39.053 -50.913  12.438  1.00  0.00     0.223 C 
ENDROOT
BRANCH   1   2
HETATM    2  N   UNL     1     -39.854 -51.567  13.475  1.00  0.00    -0.256 N 
HETATM    3  C   UNL     1     -40.671 -52.630  13.105  1.00  0.00     0.334 C 
HETATM    4  N   UNL     1     -41.525 -53.112  14.094  1.00  0.00    -0.279 N 
HETATM    5  O   UNL     1     -40.649 -53.124  11.979  1.00  0.00    -0.246 OA
HETATM    6  C   UNL     1     -41.346 -52.805  15.424  1.00  0.00     0.146 C 
HETATM    7  C   UNL     1     -40.392 -51.960  15.809  1.00  0.00     0.200 C 
HETATM    8  C   UNL     1     -39.552 -51.278  14.800  1.00  0.00     0.292 C 
HETATM    9  F   UNL     1     -40.165 -51.674  17.106  1.00  0.00    -0.199 F 
HETATM   10  O   UNL     1     -38.632 -50.541  15.155  1.00  0.00    -0.264 OA
BRANCH   4  11
HETATM   11  C   UNL     1     -42.646 -53.919  13.644  1.00  0.00     0.232 C 
HETATM   12  O   UNL     1     -43.650 -53.100  13.023  1.00  0.00    -0.366 OA
HETATM   13  C   UNL     1     -44.902 -53.795  13.141  1.00  0.00     0.170 C 
HETATM   14  C   UNL     1     -44.647 -55.051  13.960  1.00  0.00     0.031 C 
HETATM   15  C   UNL     1     -43.384 -54.702  14.715  1.00  0.00     0.056 C 
ENDBRANCH   4  11
ENDBRANCH   1   2
BRANCH   1  16
HETATM   16  C   UNL     1     -39.846 -49.950  11.618  1.00  0.00     0.159 A 
HETATM   17  O   UNL     1     -39.877 -48.638  12.024  1.00  0.00    -0.276 OA
HETATM   18  C   UNL     1     -40.669 -48.058  11.067  1.00  0.00     0.174 A 
HETATM   19  N   UNL     1     -41.123 -48.939  10.195  1.00  0.00    -0.277 N 
HETATM   20  N   UNL     1     -40.588 -50.163  10.552  1.00  0.00    -0.280 N 
ATOM     21  HN  UNL     1     -41.747 -48.753   9.410  1.00  0.00     0.189 HD
ATOM     22  HN  UNL     1     -40.738 -51.055  10.081  1.00  0.00     0.189 HD
BRANCH  18  23
HETATM   23  C   UNL     1     -40.867 -46.612  11.132  1.00  0.00     0.017 A 
HETATM   24  C   UNL     1     -42.020 -46.039  11.691  1.00  0.00     0.017 A 
HETATM   25  C   UNL     1     -42.172 -44.649  11.761  1.00  0.00     0.025 A 
HETATM   26  C   UNL     1     -41.167 -43.814  11.274  1.00  0.00     0.034 A 
HETATM   27  C   UNL     1     -40.015 -44.359  10.714  1.00  0.00     0.025 A 
HETATM   28 CL   UNL     1     -41.350 -42.106  11.372  1.00  0.00    -0.084 Cl
HETATM   29  C   UNL     1     -39.869 -45.750  10.641  1.00  0.00     0.017 A 
ENDBRANCH  18  23
ENDBRANCH   1  16
TORSDOF 4
ENDMDL
MODEL 2
REMARK VINA RESULT:      -7.2      3.782      6.593
REMARK  4 active torsions:
REMARK  status: ('A' for Active; 'I' for Inactive)
REMARK    1  A    between atoms: N_1  and  C_14 
REMARK    2  A    between atoms: N_2  and  C_15 
REMARK    3  A    between atoms: C_9  and  C_14 
REMARK    4  A    between atoms: C_10  and  C_17 
ROOT
HETATM    1  C   UNL     1     -40.088 -50.100  11.208  1.00  0.00     0.223 C 
ENDROOT
BRANCH   1   2
HETATM    2  N   UNL     1     -39.436 -49.412  12.324  1.00  0.00    -0.256 N 
HETATM    3  C   UNL     1     -38.440 -50.084  13.022  1.00  0.00     0.334 C 
HETATM    4  N   UNL     1     -37.965 -49.447  14.166  1.00  0.00    -0.279 N 
HETATM    5  O   UNL     1     -37.996 -51.174  12.663  1.00  0.00    -0.246 OA
HETATM    6  C   UNL     1     -38.201 -48.113  14.407  1.00  0.00     0.146 C 
HETATM    7  C   UNL     1     -38.971 -47.395  13.592  1.00  0.00     0.200 C 
HETATM    8  C   UNL     1     -39.648 -48.044  12.448  1.00  0.00     0.292 C 
HETATM    9  F   UNL     1     -39.185 -46.078  13.780  1.00  0.00    -0.199 F 
HETATM   10  O   UNL     1     -40.314 -47.372  11.660  1.00  0.00    -0.264 OA
BRANCH   4  11
HETATM   11  C   UNL     1     -37.245 -50.276  15.117  1.00  0.00     0.232 C 
HETATM   12  O   UNL     1     -38.155 -50.935  16.013  1.00  0.00    -0.366 OA
HETATM   13  C   UNL     1     -37.430 -51.229  17.218  1.00  0.00     0.170 C 
HETATM   14  C   UNL     1     -36.041 -50.627  17.070  1.00  0.00     0.031 C 
HETATM   15  C   UNL     1     -36.254 -49.562  16.018  1.00  0.00     0.056 C 
ENDBRANCH   4  11
ENDBRANCH   1   2
BRANCH   1  16
HETATM   16  C   UNL     1     -41.155 -51.042  11.656  1.00  0.00     0.159 A 
HETATM   17  O   UNL     1     -42.080 -50.579  12.561  1.00  0.00    -0.276 OA
HETATM   18  C   UNL     1     -42.885 -51.674  12.739  1.00  0.00     0.174 A 
HETATM   19  N   UNL     1     -42.461 -52.720  12.054  1.00  0.00    -0.277 N 
HETATM   20  N   UNL     1     -41.343 -52.309  11.352  1.00  0.00    -0.280 N 
ATOM     21  HN  UNL     1     -42.878 -53.651  12.044  1.00  0.00     0.189 HD
ATOM     22  HN  UNL     1     -40.775 -52.877  10.723  1.00  0.00     0.189 HD
BRANCH  18  23
HETATM   23  C   UNL     1     -44.056 -51.525  13.600  1.00  0.00     0.017 A 
HETATM   24  C   UNL     1     -45.366 -51.606  13.101  1.00  0.00     0.017 A 
HETATM   25  C   UNL     1     -46.470 -51.483  13.954  1.00  0.00     0.025 A 
HETATM   26  C   UNL     1     -46.274 -51.282  15.319  1.00  0.00     0.034 A 
HETATM   27  C   UNL     1     -44.985 -51.197  15.837  1.00  0.00     0.025 A 
HETATM   28 CL   UNL     1     -47.631 -51.144  16.368  1.00  0.00    -0.084 Cl
HETATM   29  C   UNL     1     -43.883 -51.316  14.980  1.00  0.00     0.017 A 
ENDBRANCH  18  23
ENDBRANCH   1  16
TORSDOF 4
ENDMDL
MODEL 3
REMARK VINA RESULT:      -7.1      3.344      7.066
REMARK  4 active torsions:
REMARK  status: ('A' for Active; 'I' for Inactive)
REMARK    1  A    between atoms: N_1  and  C_14 
REMARK    2  A    between atoms: N_2  and  C_15 
REMARK    3  A    between atoms: C_9  and  C_14 
REMARK    4  A    between atoms: C_10  and  C_17 
ROOT
HETATM    1  C   UNL     1     -39.597 -50.855  12.095  1.00  0.00     0.223 C 
ENDROOT
BRANCH   1   2
HETATM    2  N   UNL     1     -39.600 -49.508  12.669  1.00  0.00    -0.256 N 
HETATM    3  C   UNL     1     -40.276 -48.503  11.987  1.00  0.00     0.334 C 
HETATM    4  N   UNL     1     -40.117 -47.214  12.491  1.00  0.00    -0.279 N 
HETATM    5  O   UNL     1     -40.976 -48.724  11.000  1.00  0.00    -0.246 OA
HETATM    6  C   UNL     1     -39.619 -46.983  13.754  1.00  0.00     0.146 C 
HETATM    7  C   UNL     1     -39.188 -47.987  14.515  1.00  0.00     0.200 C 
HETATM    8  C   UNL     1     -39.171 -49.367  13.983  1.00  0.00     0.292 C 
HETATM    9  F   UNL     1     -38.737 -47.795  15.769  1.00  0.00    -0.199 F 
HETATM   10  O   UNL     1     -38.827 -50.305  14.703  1.00  0.00    -0.264 OA
BRANCH   4  11
HETATM   11  C   UNL     1     -40.459 -46.122  11.597  1.00  0.00     0.232 C 
HETATM   12  O   UNL     1     -39.518 -46.033  10.514  1.00  0.00    -0.366 OA
HETATM   13  C   UNL     1     -39.538 -44.676  10.041  1.00  0.00     0.170 C 
HETATM   14  C   UNL     1     -40.470 -43.892  10.953  1.00  0.00     0.031 C 
HETATM   15  C   UNL     1     -40.486 -44.734  12.209  1.00  0.00     0.056 C 
ENDBRANCH   4  11
ENDBRANCH   1   2
BRANCH   1  16
HETATM   16  C   UNL     1     -40.948 -51.491  12.109  1.00  0.00     0.159 A 
HETATM   17  O   UNL     1     -41.792 -51.179  13.149  1.00  0.00    -0.276 OA
HETATM   18  C   UNL     1     -42.907 -51.915  12.846  1.00  0.00     0.174 A 
HETATM   19  N   UNL     1     -42.742 -52.648  11.760  1.00  0.00    -0.277 N 
HETATM   20  N   UNL     1     -41.474 -52.371  11.283  1.00  0.00    -0.280 N 
ATOM     21  HN  UNL     1     -43.418 -53.293  11.352  1.00  0.00     0.189 HD
ATOM     22  HN  UNL     1     -41.034 -52.769  10.455  1.00  0.00     0.189 HD
BRANCH  18  23
HETATM   23  C   UNL     1     -44.074 -51.771  13.713  1.00  0.00     0.017 A 
HETATM   24  C   UNL     1     -43.968 -51.756  15.113  1.00  0.00     0.017 A 
HETATM   25  C   UNL     1     -45.101 -51.593  15.920  1.00  0.00     0.025 A 
HETATM   26  C   UNL     1     -46.356 -51.438  15.332  1.00  0.00     0.034 A 
HETATM   27  C   UNL     1     -46.486 -51.450  13.946  1.00  0.00     0.025 A 
HETATM   28 CL   UNL     1     -47.746 -51.224  16.323  1.00  0.00    -0.084 Cl
HETATM   29  C   UNL     1     -45.351 -51.618  13.143  1.00  0.00     0.017 A 
ENDBRANCH  18  23
ENDBRANCH   1  16
TORSDOF 4
ENDMDL
MODEL 4
REMARK VINA RESULT:      -7.1      4.110      7.069
REMARK  4 active torsions:
REMARK  status: ('A' for Active; 'I' for Inactive)
REMARK    1  A    between atoms: N_1  and  C_14 
REMARK    2  A    between atoms: N_2  and  C_15 
REMARK    3  A    between atoms: C_9  and  C_14 
REMARK    4  A    between atoms: C_10  and  C_17 
ROOT
HETATM    1  C   UNL     1     -43.735 -53.862  12.634  1.00  0.00     0.223 C 
ENDROOT
BRANCH   1   2
HETATM    2  N   UNL     1     -42.421 -53.563  13.208  1.00  0.00    -0.256 N 
HETATM    3  C   UNL     1     -41.795 -52.378  12.843  1.00  0.00     0.334 C 
HETATM    4  N   UNL     1     -40.487 -52.218  13.294  1.00  0.00    -0.279 N 
HETATM    5  O   UNL     1     -42.351 -51.514  12.165  1.00  0.00    -0.246 OA
HETATM    6  C   UNL     1     -39.964 -52.996  14.301  1.00  0.00     0.146 C 
HETATM    7  C   UNL     1     -40.666 -53.997  14.828  1.00  0.00     0.200 C 
HETATM    8  C   UNL     1     -42.001 -54.334  14.286  1.00  0.00     0.292 C 
HETATM    9  F   UNL     1     -40.197 -54.748  15.844  1.00  0.00    -0.199 F 
HETATM   10  O   UNL     1     -42.676 -55.221  14.808  1.00  0.00    -0.264 OA
BRANCH   4  11
HETATM   11  C   UNL     1     -39.685 -51.216  12.613  1.00  0.00     0.232 C 
HETATM   12  O   UNL     1     -38.327 -51.661  12.465  1.00  0.00    -0.366 OA
HETATM   13  C   UNL     1     -37.503 -50.490  12.351  1.00  0.00     0.170 C 
HETATM   14  C   UNL     1     -38.407 -49.281  12.537  1.00  0.00     0.031 C 
HETATM   15  C   UNL     1     -39.583 -49.862  13.289  1.00  0.00     0.056 C 
ENDBRANCH   4  11
ENDBRANCH   1   2
BRANCH   1  16
HETATM   16  C   UNL     1     -44.782 -52.881  13.048  1.00  0.00     0.159 A 
HETATM   17  O   UNL     1     -44.991 -52.700  14.394  1.00  0.00    -0.276 OA
HETATM   18  C   UNL     1     -45.987 -51.758  14.407  1.00  0.00     0.174 A 
HETATM   19  N   UNL     1     -46.386 -51.437  13.190  1.00  0.00    -0.277 N 
HETATM   20  N   UNL     1     -45.603 -52.164  12.312  1.00  0.00    -0.280 N 
ATOM     21  HN  UNL     1     -47.127 -50.781  12.945  1.00  0.00     0.189 HD
ATOM     22  HN  UNL     1     -45.653 -52.147  11.293  1.00  0.00     0.189 HD
BRANCH  18  23
HETATM   23  C   UNL     1     -46.426 -51.249  15.704  1.00  0.00     0.017 A 
HETATM   24  C   UNL     1     -45.576 -50.513  16.545  1.00  0.00     0.017 A 
HETATM   25  C   UNL     1     -46.031 -50.017  17.774  1.00  0.00     0.025 A 
HETATM   26  C   UNL     1     -47.346 -50.250  18.173  1.00  0.00     0.034 A 
HETATM   27  C   UNL     1     -48.207 -50.978  17.356  1.00  0.00     0.025 A 
HETATM   28 CL   UNL     1     -47.908 -49.629  19.676  1.00  0.00    -0.084 Cl
HETATM   29  C   UNL     1     -47.747 -51.477  16.131  1.00  0.00     0.017 A 
ENDBRANCH  18  23
ENDBRANCH   1  16
TORSDOF 4
ENDMDL
MODEL 5
REMARK VINA RESULT:      -7.0      4.129      7.329
REMARK  4 active torsions:
REMARK  status: ('A' for Active; 'I' for Inactive)
REMARK    1  A    between atoms: N_1  and  C_14 
REMARK    2  A    between atoms: N_2  and  C_15 
REMARK    3  A    between atoms: C_9  and  C_14 
REMARK    4  A    between atoms: C_10  and  C_17 
ROOT
HETATM    1  C   UNL     1     -40.242 -50.059  11.383  1.00  0.00     0.223 C 
ENDROOT
BRANCH   1   2
HETATM    2  N   UNL     1     -40.484 -48.692  11.848  1.00  0.00    -0.256 N 
HETATM    3  C   UNL     1     -39.692 -48.194  12.875  1.00  0.00     0.334 C 
HETATM    4  N   UNL     1     -40.065 -46.952  13.383  1.00  0.00    -0.279 N 
HETATM    5  O   UNL     1     -38.718 -48.802  13.318  1.00  0.00    -0.246 OA
HETATM    6  C   UNL     1     -40.928 -46.119  12.707  1.00  0.00     0.146 C 
HETATM    7  C   UNL     1     -41.512 -46.510  11.576  1.00  0.00     0.200 C 
HETATM    8  C   UNL     1     -41.294 -47.880  11.062  1.00  0.00     0.292 C 
HETATM    9  F   UNL     1     -42.327 -45.701  10.872  1.00  0.00    -0.199 F 
HETATM   10  O   UNL     1     -41.785 -48.224   9.988  1.00  0.00    -0.264 OA
BRANCH   4  11
HETATM   11  C   UNL     1     -39.532 -46.598  14.687  1.00  0.00     0.232 C 
HETATM   12  O   UNL     1     -40.329 -47.168  15.738  1.00  0.00    -0.366 OA
HETATM   13  C   UNL     1     -40.142 -46.352  16.906  1.00  0.00     0.170 C 
HETATM   14  C   UNL     1     -39.261 -45.180  16.504  1.00  0.00     0.031 C 
HETATM   15  C   UNL     1     -39.461 -45.116  15.006  1.00  0.00     0.056 C 
ENDBRANCH   4  11
ENDBRANCH   1   2
BRANCH   1  16
HETATM   16  C   UNL     1     -41.344 -50.997  11.752  1.00  0.00     0.159 A 
HETATM   17  O   UNL     1     -42.215 -50.605  12.740  1.00  0.00    -0.276 OA
HETATM   18  C   UNL     1     -43.071 -51.673  12.812  1.00  0.00     0.174 A 
HETATM   19  N   UNL     1     -42.724 -52.646  11.990  1.00  0.00    -0.277 N 
HETATM   20  N   UNL     1     -41.607 -52.206  11.304  1.00  0.00    -0.280 N 
ATOM     21  HN  UNL     1     -43.189 -53.548  11.882  1.00  0.00     0.189 HD
ATOM     22  HN  UNL     1     -41.089 -52.719  10.590  1.00  0.00     0.189 HD
BRANCH  18  23
HETATM   23  C   UNL     1     -44.206 -51.576  13.727  1.00  0.00     0.017 A 
HETATM   24  C   UNL     1     -44.039 -51.443  15.114  1.00  0.00     0.017 A 
HETATM   25  C   UNL     1     -45.145 -51.329  15.965  1.00  0.00     0.025 A 
HETATM   26  C   UNL     1     -46.434 -51.341  15.435  1.00  0.00     0.034 A 
HETATM   27  C   UNL     1     -46.625 -51.473  14.062  1.00  0.00     0.025 A 
HETATM   28 CL   UNL     1     -47.792 -51.187  16.479  1.00  0.00    -0.084 Cl
HETATM   29  C   UNL     1     -45.516 -51.592  13.215  1.00  0.00     0.017 A 
ENDBRANCH  18  23
ENDBRANCH   1  16
TORSDOF 4
ENDMDL
MODEL 6
REMARK VINA RESULT:      -7.0      2.668      3.385
REMARK  4 active torsions:
REMARK  status: ('A' for Active; 'I' for Inactive)
REMARK    1  A    between atoms: N_1  and  C_14 
REMARK    2  A    between atoms: N_2  and  C_15 
REMARK    3  A    between atoms: C_9  and  C_14 
REMARK    4  A    between atoms: C_10  and  C_17 
ROOT
HETATM    1  C   UNL     1     -41.105 -51.029  13.565  1.00  0.00     0.223 C 
ENDROOT
BRANCH   1   2
HETATM    2  N   UNL     1     -42.403 -51.702  13.639  1.00  0.00    -0.256 N 
HETATM    3  C   UNL     1     -43.435 -51.071  14.323  1.00  0.00     0.334 C 
HETATM    4  N   UNL     1     -44.596 -51.821  14.497  1.00  0.00    -0.279 N 
HETATM    5  O   UNL     1     -43.343 -49.922  14.753  1.00  0.00    -0.246 OA
HETATM    6  C   UNL     1     -44.844 -52.959  13.763  1.00  0.00     0.146 C 
HETATM    7  C   UNL     1     -43.937 -53.437  12.913  1.00  0.00     0.200 C 
HETATM    8  C   UNL     1     -42.612 -52.789  12.798  1.00  0.00     0.292 C 
HETATM    9  F   UNL     1     -44.169 -54.523  12.151  1.00  0.00    -0.199 F 
HETATM   10  O   UNL     1     -41.794 -53.194  11.973  1.00  0.00    -0.264 OA
BRANCH   4  11
HETATM   11  C   UNL     1     -45.513 -51.366  15.527  1.00  0.00     0.232 C 
HETATM   12  O   UNL     1     -45.399 -52.178  16.708  1.00  0.00    -0.366 OA
HETATM   13  C   UNL     1     -46.649 -52.087  17.411  1.00  0.00     0.170 C 
HETATM   14  C   UNL     1     -47.591 -51.254  16.555  1.00  0.00     0.031 C 
HETATM   15  C   UNL     1     -46.988 -51.390  15.174  1.00  0.00     0.056 C 
ENDBRANCH   4  11
ENDBRANCH   1   2
BRANCH   1  16
HETATM   16  C   UNL     1     -41.010 -50.085  12.412  1.00  0.00     0.159 A 
HETATM   17  O   UNL     1     -41.206 -48.747  12.661  1.00  0.00    -0.276 OA
HETATM   18  C   UNL     1     -41.046 -48.195  11.417  1.00  0.00     0.174 A 
HETATM   19  N   UNL     1     -40.830 -49.109  10.490  1.00  0.00    -0.277 N 
HETATM   20  N   UNL     1     -40.805 -50.331  11.135  1.00  0.00    -0.280 N 
ATOM     21  HN  UNL     1     -40.706 -48.945   9.490  1.00  0.00     0.189 HD
ATOM     22  HN  UNL     1     -40.656 -51.244  10.706  1.00  0.00     0.189 HD
BRANCH  18  23
HETATM   23  C   UNL     1     -41.110 -46.739  11.306  1.00  0.00     0.017 A 
HETATM   24  C   UNL     1     -42.251 -46.010  11.676  1.00  0.00     0.017 A 
HETATM   25  C   UNL     1     -42.275 -44.613  11.580  1.00  0.00     0.025 A 
HETATM   26  C   UNL     1     -41.153 -43.929  11.115  1.00  0.00     0.034 A 
HETATM   27  C   UNL     1     -40.010 -44.630  10.741  1.00  0.00     0.025 A 
HETATM   28 CL   UNL     1     -41.179 -42.212  11.010  1.00  0.00    -0.084 Cl
HETATM   29  C   UNL     1     -39.991 -46.028  10.834  1.00  0.00     0.017 A 
ENDBRANCH  18  23
ENDBRANCH   1  16
TORSDOF 4
ENDMDL
MODEL 7
REMARK VINA RESULT:      -6.9      2.462      3.566
REMARK  4 active torsions:
REMARK  status: ('A' for Active; 'I' for Inactive)
REMARK    1  A    between atoms: N_1  and  C_14 
REMARK    2  A    between atoms: N_2  and  C_15 
REMARK    3  A    between atoms: C_9  and  C_14 
REMARK    4  A    between atoms: C_10  and  C_17 
ROOT
HETATM    1  C   UNL     1     -40.799 -54.232  13.138  1.00  0.00     0.223 C 
ENDROOT
BRANCH   1   2
HETATM    2  N   UNL     1     -41.750 -54.228  14.251  1.00  0.00    -0.256 N 
HETATM    3  C   UNL     1     -43.099 -54.052  13.966  1.00  0.00     0.334 C 
HETATM    4  N   UNL     1     -43.938 -53.900  15.067  1.00  0.00    -0.279 N 
HETATM    5  O   UNL     1     -43.538 -54.030  12.816  1.00  0.00    -0.246 OA
HETATM    6  C   UNL     1     -43.538 -54.238  16.339  1.00  0.00     0.146 C 
HETATM    7  C   UNL     1     -42.293 -54.646  16.580  1.00  0.00     0.200 C 
HETATM    8  C   UNL     1     -41.296 -54.673  15.487  1.00  0.00     0.292 C 
HETATM    9  F   UNL     1     -41.885 -55.025  17.807  1.00  0.00    -0.199 F 
HETATM   10  O   UNL     1     -40.162 -55.104  15.694  1.00  0.00    -0.264 OA
BRANCH   4  11
HETATM   11  C   UNL     1     -45.245 -53.321  14.810  1.00  0.00     0.232 C 
HETATM   12  O   UNL     1     -45.124 -51.959  14.367  1.00  0.00    -0.366 OA
HETATM   13  C   UNL     1     -46.355 -51.293  14.692  1.00  0.00     0.170 C 
HETATM   14  C   UNL     1     -47.220 -52.284  15.455  1.00  0.00     0.031 C 
HETATM   15  C   UNL     1     -46.201 -53.267  15.988  1.00  0.00     0.056 C 
ENDBRANCH   4  11
ENDBRANCH   1   2
BRANCH   1  16
HETATM   16  C   UNL     1     -40.746 -52.924  12.421  1.00  0.00     0.159 A 
HETATM   17  O   UNL     1     -40.381 -51.812  13.142  1.00  0.00    -0.276 OA
HETATM   18  C   UNL     1     -40.433 -50.823  12.195  1.00  0.00     0.174 A 
HETATM   19  N   UNL     1     -40.844 -51.275  11.025  1.00  0.00    -0.277 N 
HETATM   20  N   UNL     1     -41.044 -52.635  11.172  1.00  0.00    -0.280 N 
ATOM     21  HN  UNL     1     -40.987 -50.727  10.176  1.00  0.00     0.189 HD
ATOM     22  HN  UNL     1     -41.361 -53.286  10.453  1.00  0.00     0.189 HD
BRANCH  18  23
HETATM   23  C   UNL     1     -40.022 -49.479  12.592  1.00  0.00     0.017 A 
HETATM   24  C   UNL     1     -40.152 -48.374  11.735  1.00  0.00     0.017 A 
HETATM   25  C   UNL     1     -39.771 -47.092  12.151  1.00  0.00     0.025 A 
HETATM   26  C   UNL     1     -39.257 -46.901  13.432  1.00  0.00     0.034 A 
HETATM   27  C   UNL     1     -39.117 -47.981  14.299  1.00  0.00     0.025 A 
HETATM   28 CL   UNL     1     -38.801 -45.323  13.946  1.00  0.00    -0.084 Cl
HETATM   29  C   UNL     1     -39.495 -49.262  13.878  1.00  0.00     0.017 A 
ENDBRANCH  18  23
ENDBRANCH   1  16
TORSDOF 4
ENDMDL
MODEL 8
REMARK VINA RESULT:      -6.9      3.653      7.735
REMARK  4 active torsions:
REMARK  status: ('A' for Active; 'I' for Inactive)
REMARK    1  A    between atoms: N_1  and  C_14 
REMARK    2  A    between atoms: N_2  and  C_15 
REMARK    3  A    between atoms: C_9  and  C_14 
REMARK    4  A    between atoms: C_10  and  C_17 
ROOT
HETATM    1  C   UNL     1     -38.202 -51.613  14.634  1.00  0.00     0.223 C 
ENDROOT
BRANCH   1   2
HETATM    2  N   UNL     1     -38.262 -50.607  13.572  1.00  0.00    -0.256 N 
HETATM    3  C   UNL     1     -38.833 -49.374  13.863  1.00  0.00     0.334 C 
HETATM    4  N   UNL     1     -39.007 -48.514  12.781  1.00  0.00    -0.279 N 
HETATM    5  O   UNL     1     -39.168 -49.049  15.001  1.00  0.00    -0.246 OA
HETATM    6  C   UNL     1     -38.360 -48.713  11.583  1.00  0.00     0.146 C 
HETATM    7  C   UNL     1     -37.604 -49.792  11.383  1.00  0.00     0.200 C 
HETATM    8  C   UNL     1     -37.507 -50.834  12.428  1.00  0.00     0.292 C 
HETATM    9  F   UNL     1     -36.926 -49.991  10.236  1.00  0.00    -0.199 F 
HETATM   10  O   UNL     1     -36.765 -51.803  12.269  1.00  0.00    -0.264 OA
BRANCH   4  11
HETATM   11  C   UNL     1     -39.944 -47.420  12.967  1.00  0.00     0.232 C 
HETATM   12  O   UNL     1     -40.748 -47.229  11.791  1.00  0.00    -0.366 OA
HETATM   13  C   UNL     1     -41.191 -45.863  11.794  1.00  0.00     0.170 C 
HETATM   14  C   UNL     1     -40.538 -45.177  12.984  1.00  0.00     0.031 C 
HETATM   15  C   UNL     1     -39.340 -46.058  13.255  1.00  0.00     0.056 C 
ENDBRANCH   4  11
ENDBRANCH   1   2
BRANCH   1  16
HETATM   16  C   UNL     1     -39.081 -52.790  14.365  1.00  0.00     0.159 A 
HETATM   17  O   UNL     1     -40.427 -52.652  14.606  1.00  0.00    -0.276 OA
HETATM   18  C   UNL     1     -40.911 -53.886  14.256  1.00  0.00     0.174 A 
HETATM   19  N   UNL     1     -39.949 -54.713  13.891  1.00  0.00    -0.277 N 
HETATM   20  N   UNL     1     -38.765 -54.002  13.960  1.00  0.00    -0.280 N 
ATOM     21  HN  UNL     1     -40.058 -55.689  13.611  1.00  0.00     0.189 HD
ATOM     22  HN  UNL     1     -37.832 -54.349  13.740  1.00  0.00     0.189 HD
BRANCH  18  23
HETATM   23  C   UNL     1     -42.356 -54.090  14.309  1.00  0.00     0.017 A 
HETATM   24  C   UNL     1     -43.160 -54.050  13.160  1.00  0.00     0.017 A 
HETATM   25  C   UNL     1     -44.541 -54.272  13.238  1.00  0.00     0.025 A 
HETATM   26  C   UNL     1     -45.132 -54.543  14.471  1.00  0.00     0.034 A 
HETATM   27  C   UNL     1     -44.356 -54.588  15.625  1.00  0.00     0.025 A 
HETATM   28 CL   UNL     1     -46.826 -54.830  14.564  1.00  0.00    -0.084 Cl
HETATM   29  C   UNL     1     -42.976 -54.359  15.544  1.00  0.00     0.017 A 
ENDBRANCH  18  23
ENDBRANCH   1  16
TORSDOF 4
ENDMDL
MODEL 9
REMARK VINA RESULT:      -6.7      2.351      2.926
REMARK  4 active torsions:
REMARK  status: ('A' for Active; 'I' for Inactive)
REMARK    1  A    between atoms: N_1  and  C_14 
REMARK    2  A    between atoms: N_2  and  C_15 
REMARK    3  A    between atoms: C_9  and  C_14 
REMARK    4  A    between atoms: C_10  and  C_17 
ROOT
HETATM    1  C   UNL     1     -40.095 -48.915  13.570  1.00  0.00     0.223 C 
ENDROOT
BRANCH   1   2
HETATM    2  N   UNL     1     -40.936 -50.089  13.329  1.00  0.00    -0.256 N 
HETATM    3  C   UNL     1     -42.302 -49.981  13.563  1.00  0.00     0.334 C 
HETATM    4  N   UNL     1     -43.030 -51.165  13.469  1.00  0.00    -0.279 N 
HETATM    5  O   UNL     1     -42.847 -48.912  13.835  1.00  0.00    -0.246 OA
HETATM    6  C   UNL     1     -42.517 -52.288  12.860  1.00  0.00     0.146 C 
HETATM    7  C   UNL     1     -41.264 -52.312  12.411  1.00  0.00     0.200 C 
HETATM    8  C   UNL     1     -40.376 -51.148  12.625  1.00  0.00     0.292 C 
HETATM    9  F   UNL     1     -40.749 -53.382  11.774  1.00  0.00    -0.199 F 
HETATM   10  O   UNL     1     -39.236 -51.145  12.161  1.00  0.00    -0.264 OA
BRANCH   4  11
HETATM   11  C   UNL     1     -44.344 -51.168  14.088  1.00  0.00     0.232 C 
HETATM   12  O   UNL     1     -44.480 -52.277  14.994  1.00  0.00    -0.366 OA
HETATM   13  C   UNL     1     -45.882 -52.569  15.103  1.00  0.00     0.170 C 
HETATM   14  C   UNL     1     -46.614 -51.648  14.139  1.00  0.00     0.031 C 
HETATM   15  C   UNL     1     -45.531 -51.280  13.149  1.00  0.00     0.056 C 
ENDBRANCH   4  11
ENDBRANCH   1   2
BRANCH   1  16
HETATM   16  C   UNL     1     -40.155 -47.924  12.455  1.00  0.00     0.159 A 
HETATM   17  O   UNL     1     -40.747 -46.710  12.708  1.00  0.00    -0.276 OA
HETATM   18  C   UNL     1     -40.625 -46.072  11.502  1.00  0.00     0.174 A 
HETATM   19  N   UNL     1     -40.064 -46.839  10.586  1.00  0.00    -0.277 N 
HETATM   20  N   UNL     1     -39.759 -48.037  11.205  1.00  0.00    -0.280 N 
ATOM     21  HN  UNL     1     -39.890 -46.596   9.611  1.00  0.00     0.189 HD
ATOM     22  HN  UNL     1     -39.314 -48.849  10.777  1.00  0.00     0.189 HD
BRANCH  18  23
HETATM   23  C   UNL     1     -41.088 -44.689  11.414  1.00  0.00     0.017 A 
HETATM   24  C   UNL     1     -42.417 -44.363  11.100  1.00  0.00     0.017 A 
HETATM   25  C   UNL     1     -42.838 -43.029  11.045  1.00  0.00     0.025 A 
HETATM   26  C   UNL     1     -41.932 -42.003  11.309  1.00  0.00     0.034 A 
HETATM   27  C   UNL     1     -40.609 -42.301  11.621  1.00  0.00     0.025 A 
HETATM   28 CL   UNL     1     -42.454 -40.364  11.254  1.00  0.00    -0.084 Cl
HETATM   29  C   UNL     1     -40.190 -43.636  11.670  1.00  0.00     0.017 A 
ENDBRANCH  18  23
ENDBRANCH   1  16
TORSDOF 4
ENDMDL
