MODEL 1
REMARK VINA RESULT:      -6.1      0.000      0.000
REMARK  4 active torsions:
REMARK  status: ('A' for Active; 'I' for Inactive)
REMARK    1  A    between atoms: O_2  and  C_3 
REMARK    2  A    between atoms: C_9  and  N_10 
REMARK       I    between atoms: N_10  and  C_11 
REMARK       I    between atoms: C_11  and  N_13 
REMARK    3  A    between atoms: N_13  and  C_14 
REMARK    4  A    between atoms: C_14  and  C_15 
ROOT
HETATM    1  N   UNL     1     -40.673 -49.514  10.403  1.00  0.00    -0.305 N 
HETATM    2  C   UNL     1     -41.424 -48.365  10.533  1.00  0.00     0.320 C 
HETATM    3  O   UNL     1     -41.343 -47.568  11.458  1.00  0.00    -0.247 OA
HETATM    4  N   UNL     1     -42.336 -48.185   9.522  1.00  0.00    -0.340 N 
HETATM    5  H   UNL     1     -40.481 -49.846   9.465  1.00  0.00     0.171 HD
HETATM    6  H   UNL     1     -42.530 -48.926   8.864  1.00  0.00     0.164 HD
ENDROOT
BRANCH   1   7
HETATM    7  C   UNL     1     -39.880 -50.068  11.446  1.00  0.00     0.087 A 
HETATM    8  C   UNL     1     -40.407 -50.967  12.386  1.00  0.00     0.169 A 
HETATM    9  N   UNL     1     -39.695 -51.474  13.423  1.00  0.00    -0.345 N 
HETATM   10  C   UNL     1     -38.398 -51.117  13.521  1.00  0.00     0.090 A 
ATOM     11  HN  UNL     1     -40.124 -52.101  14.103  1.00  0.00     0.167 HD
HETATM   12  C   UNL     1     -37.780 -50.252  12.646  1.00  0.00     0.019 A 
HETATM   13  C   UNL     1     -38.538 -49.710  11.610  1.00  0.00     0.035 A 
BRANCH   8  14
HETATM   14  O   UNL     1     -41.713 -51.399  12.218  1.00  0.00    -0.339 OA
HETATM   15  C   UNL     1     -41.904 -52.785  12.519  1.00  0.00     0.211 C 
ENDBRANCH   8  14
ENDBRANCH   1   7
BRANCH   4  16
HETATM   16  C   UNL     1     -43.228 -47.025   9.512  1.00  0.00     0.156 C 
BRANCH  16  17
HETATM   17  C   UNL     1     -44.514 -47.219   8.701  1.00  0.00     0.139 C 
HETATM   18  C   UNL     1     -45.774 -47.540   9.494  1.00  0.00     0.035 C 
HETATM   19  C   UNL     1     -46.547 -48.492   8.600  1.00  0.00     0.029 C 
HETATM   20  C   UNL     1     -45.702 -48.625   7.350  1.00  0.00     0.168 C 
HETATM   21  O   UNL     1     -44.370 -48.293   7.755  1.00  0.00    -0.384 OA
ENDBRANCH  16  17
ENDBRANCH   4  16
TORSDOF 4
ENDMDL
MODEL 2
REMARK VINA RESULT:      -6.0      1.163      2.118
REMARK  4 active torsions:
REMARK  status: ('A' for Active; 'I' for Inactive)
REMARK    1  A    between atoms: O_2  and  C_3 
REMARK    2  A    between atoms: C_9  and  N_10 
REMARK       I    between atoms: N_10  and  C_11 
REMARK       I    between atoms: C_11  and  N_13 
REMARK    3  A    between atoms: N_13  and  C_14 
REMARK    4  A    between atoms: C_14  and  C_15 
ROOT
HETATM    1  N   UNL     1     -40.943 -49.510  10.483  1.00  0.00    -0.305 N 
HETATM    2  C   UNL     1     -41.791 -48.430  10.609  1.00  0.00     0.320 C 
HETATM    3  O   UNL     1     -42.153 -47.935  11.666  1.00  0.00    -0.247 OA
HETATM    4  N   UNL     1     -42.247 -47.945   9.407  1.00  0.00    -0.340 N 
HETATM    5  H   UNL     1     -40.369 -49.564   9.650  1.00  0.00     0.171 HD
HETATM    6  H   UNL     1     -42.097 -48.461   8.552  1.00  0.00     0.164 HD
ENDROOT
BRANCH   1   7
HETATM    7  C   UNL     1     -40.572 -50.360  11.563  1.00  0.00     0.087 A 
HETATM    8  C   UNL     1     -39.285 -50.339  12.120  1.00  0.00     0.169 A 
HETATM    9  N   UNL     1     -38.882 -51.171  13.113  1.00  0.00    -0.345 N 
HETATM   10  C   UNL     1     -39.791 -52.033  13.610  1.00  0.00     0.090 A 
ATOM     11  HN  UNL     1     -37.927 -51.145  13.470  1.00  0.00     0.167 HD
HETATM   12  C   UNL     1     -41.084 -52.127  13.144  1.00  0.00     0.019 A 
HETATM   13  C   UNL     1     -41.468 -51.292  12.097  1.00  0.00     0.035 A 
BRANCH   8  14
HETATM   14  O   UNL     1     -38.389 -49.384  11.665  1.00  0.00    -0.339 OA
HETATM   15  C   UNL     1     -37.261 -49.934  10.977  1.00  0.00     0.211 C 
ENDBRANCH   8  14
ENDBRANCH   1   7
BRANCH   4  16
HETATM   16  C   UNL     1     -43.170 -46.811   9.356  1.00  0.00     0.156 C 
BRANCH  16  17
HETATM   17  C   UNL     1     -44.486 -47.095   8.624  1.00  0.00     0.139 C 
HETATM   18  C   UNL     1     -45.703 -47.368   9.497  1.00  0.00     0.035 C 
HETATM   19  C   UNL     1     -46.495 -48.406   8.722  1.00  0.00     0.029 C 
HETATM   20  C   UNL     1     -45.703 -48.630   7.451  1.00  0.00     0.168 C 
HETATM   21  O   UNL     1     -44.361 -48.243   7.765  1.00  0.00    -0.384 OA
ENDBRANCH  16  17
ENDBRANCH   4  16
TORSDOF 4
ENDMDL
MODEL 3
REMARK VINA RESULT:      -6.0      1.775      3.312
REMARK  4 active torsions:
REMARK  status: ('A' for Active; 'I' for Inactive)
REMARK    1  A    between atoms: O_2  and  C_3 
REMARK    2  A    between atoms: C_9  and  N_10 
REMARK       I    between atoms: N_10  and  C_11 
REMARK       I    between atoms: C_11  and  N_13 
REMARK    3  A    between atoms: N_13  and  C_14 
REMARK    4  A    between atoms: C_14  and  C_15 
ROOT
HETATM    1  N   UNL     1     -41.160 -51.480  11.414  1.00  0.00    -0.305 N 
HETATM    2  C   UNL     1     -41.248 -50.129  11.673  1.00  0.00     0.320 C 
HETATM    3  O   UNL     1     -41.462 -49.632  12.769  1.00  0.00    -0.247 OA
HETATM    4  N   UNL     1     -41.103 -49.343  10.555  1.00  0.00    -0.340 N 
HETATM    5  H   UNL     1     -40.570 -51.775  10.645  1.00  0.00     0.171 HD
HETATM    6  H   UNL     1     -41.111 -49.752   9.633  1.00  0.00     0.164 HD
ENDROOT
BRANCH   1   7
HETATM    7  C   UNL     1     -41.557 -52.493  12.330  1.00  0.00     0.087 A 
HETATM    8  C   UNL     1     -40.633 -53.167  13.143  1.00  0.00     0.169 A 
HETATM    9  N   UNL     1     -40.968 -54.173  13.989  1.00  0.00    -0.345 N 
HETATM   10  C   UNL     1     -42.272 -54.508  14.072  1.00  0.00     0.090 A 
ATOM     11  HN  UNL     1     -40.261 -54.658  14.542  1.00  0.00     0.167 HD
HETATM   12  C   UNL     1     -43.261 -53.903  13.328  1.00  0.00     0.019 A 
HETATM   13  C   UNL     1     -42.891 -52.899  12.436  1.00  0.00     0.035 A 
BRANCH   8  14
HETATM   14  O   UNL     1     -39.311 -52.749  13.118  1.00  0.00    -0.339 OA
HETATM   15  C   UNL     1     -38.921 -52.006  14.277  1.00  0.00     0.211 C 
ENDBRANCH   8  14
ENDBRANCH   1   7
BRANCH   4  16
HETATM   16  C   UNL     1     -41.186 -47.885  10.647  1.00  0.00     0.156 C 
BRANCH  16  17
HETATM   17  C   UNL     1     -42.451 -47.280  10.026  1.00  0.00     0.139 C 
HETATM   18  C   UNL     1     -43.728 -47.388  10.849  1.00  0.00     0.035 C 
HETATM   19  C   UNL     1     -44.823 -47.587   9.816  1.00  0.00     0.029 C 
HETATM   20  C   UNL     1     -44.109 -47.546   8.480  1.00  0.00     0.168 C 
HETATM   21  O   UNL     1     -42.751 -47.899   8.763  1.00  0.00    -0.384 OA
ENDBRANCH  16  17
ENDBRANCH   4  16
TORSDOF 4
ENDMDL
MODEL 4
REMARK VINA RESULT:      -5.8      3.150      5.089
REMARK  4 active torsions:
REMARK  status: ('A' for Active; 'I' for Inactive)
REMARK    1  A    between atoms: O_2  and  C_3 
REMARK    2  A    between atoms: C_9  and  N_10 
REMARK       I    between atoms: N_10  and  C_11 
REMARK       I    between atoms: C_11  and  N_13 
REMARK    3  A    between atoms: N_13  and  C_14 
REMARK    4  A    between atoms: C_14  and  C_15 
ROOT
HETATM    1  N   UNL     1     -42.876 -52.696  12.091  1.00  0.00    -0.305 N 
HETATM    2  C   UNL     1     -42.272 -51.536  12.526  1.00  0.00     0.320 C 
HETATM    3  O   UNL     1     -42.206 -51.167  13.690  1.00  0.00    -0.247 OA
HETATM    4  N   UNL     1     -41.751 -50.772  11.510  1.00  0.00    -0.340 N 
HETATM    5  H   UNL     1     -42.515 -53.129  11.249  1.00  0.00     0.171 HD
HETATM    6  H   UNL     1     -41.965 -50.981  10.546  1.00  0.00     0.164 HD
ENDROOT
BRANCH   1   7
HETATM    7  C   UNL     1     -43.729 -53.500  12.899  1.00  0.00     0.087 A 
HETATM    8  C   UNL     1     -45.127 -53.421  12.814  1.00  0.00     0.169 A 
HETATM    9  N   UNL     1     -45.969 -54.133  13.604  1.00  0.00    -0.345 N 
HETATM   10  C   UNL     1     -45.419 -54.989  14.489  1.00  0.00     0.090 A 
ATOM     11  HN  UNL     1     -46.981 -54.024  13.532  1.00  0.00     0.167 HD
HETATM   12  C   UNL     1     -44.060 -55.151  14.645  1.00  0.00     0.019 A 
HETATM   13  C   UNL     1     -43.211 -54.382  13.852  1.00  0.00     0.035 A 
BRANCH   8  14
HETATM   14  O   UNL     1     -45.680 -52.609  11.837  1.00  0.00    -0.339 OA
HETATM   15  C   UNL     1     -46.619 -51.655  12.344  1.00  0.00     0.211 C 
ENDBRANCH   8  14
ENDBRANCH   1   7
BRANCH   4  16
HETATM   16  C   UNL     1     -41.089 -49.498  11.792  1.00  0.00     0.156 C 
BRANCH  16  17
HETATM   17  C   UNL     1     -41.826 -48.265  11.257  1.00  0.00     0.139 C 
HETATM   18  C   UNL     1     -43.262 -48.076  11.729  1.00  0.00     0.035 C 
HETATM   19  C   UNL     1     -43.975 -47.479  10.530  1.00  0.00     0.029 C 
HETATM   20  C   UNL     1     -42.902 -47.335   9.471  1.00  0.00     0.168 C 
HETATM   21  O   UNL     1     -41.893 -48.289   9.820  1.00  0.00    -0.384 OA
ENDBRANCH  16  17
ENDBRANCH   4  16
TORSDOF 4
ENDMDL
MODEL 5
REMARK VINA RESULT:      -5.7      3.520      6.927
REMARK  4 active torsions:
REMARK  status: ('A' for Active; 'I' for Inactive)
REMARK    1  A    between atoms: O_2  and  C_3 
REMARK    2  A    between atoms: C_9  and  N_10 
REMARK       I    between atoms: N_10  and  C_11 
REMARK       I    between atoms: C_11  and  N_13 
REMARK    3  A    between atoms: N_13  and  C_14 
REMARK    4  A    between atoms: C_14  and  C_15 
ROOT
HETATM    1  N   UNL     1     -43.715 -52.504  12.166  1.00  0.00    -0.305 N 
HETATM    2  C   UNL     1     -42.677 -51.796  12.734  1.00  0.00     0.320 C 
HETATM    3  O   UNL     1     -42.300 -51.902  13.893  1.00  0.00    -0.247 OA
HETATM    4  N   UNL     1     -42.088 -50.898  11.878  1.00  0.00    -0.340 N 
HETATM    5  H   UNL     1     -43.669 -52.689  11.171  1.00  0.00     0.171 HD
HETATM    6  H   UNL     1     -42.513 -50.679  10.988  1.00  0.00     0.164 HD
ENDROOT
BRANCH   1   7
HETATM    7  C   UNL     1     -44.657 -53.269  12.909  1.00  0.00     0.087 A 
HETATM    8  C   UNL     1     -45.933 -52.779  13.223  1.00  0.00     0.169 A 
HETATM    9  N   UNL     1     -46.836 -53.459  13.973  1.00  0.00    -0.345 N 
HETATM   10  C   UNL     1     -46.489 -54.689  14.401  1.00  0.00     0.090 A 
ATOM     11  HN  UNL     1     -47.743 -53.055  14.204  1.00  0.00     0.167 HD
HETATM   12  C   UNL     1     -45.267 -55.268  14.140  1.00  0.00     0.019 A 
HETATM   13  C   UNL     1     -44.338 -54.538  13.402  1.00  0.00     0.035 A 
BRANCH   8  14
HETATM   14  O   UNL     1     -46.313 -51.554  12.697  1.00  0.00    -0.339 OA
HETATM   15  C   UNL     1     -47.135 -51.659  11.530  1.00  0.00     0.211 C 
ENDBRANCH   8  14
ENDBRANCH   1   7
BRANCH   4  16
HETATM   16  C   UNL     1     -40.982 -50.050  12.322  1.00  0.00     0.156 C 
BRANCH  16  17
HETATM   17  C   UNL     1     -39.589 -50.594  11.984  1.00  0.00     0.139 C 
HETATM   18  C   UNL     1     -38.806 -51.213  13.134  1.00  0.00     0.035 C 
HETATM   19  C   UNL     1     -37.362 -50.840  12.847  1.00  0.00     0.029 C 
HETATM   20  C   UNL     1     -37.411 -50.068  11.545  1.00  0.00     0.168 C 
HETATM   21  O   UNL     1     -38.745 -49.555  11.457  1.00  0.00    -0.384 OA
ENDBRANCH  16  17
ENDBRANCH   4  16
TORSDOF 4
ENDMDL
MODEL 6
REMARK VINA RESULT:      -5.7      2.916      4.488
REMARK  4 active torsions:
REMARK  status: ('A' for Active; 'I' for Inactive)
REMARK    1  A    between atoms: O_2  and  C_3 
REMARK    2  A    between atoms: C_9  and  N_10 
REMARK       I    between atoms: N_10  and  C_11 
REMARK       I    between atoms: C_11  and  N_13 
REMARK    3  A    between atoms: N_13  and  C_14 
REMARK    4  A    between atoms: C_14  and  C_15 
ROOT
HETATM    1  N   UNL     1     -40.961 -50.942  11.300  1.00  0.00    -0.305 N 
HETATM    2  C   UNL     1     -41.371 -49.648  11.542  1.00  0.00     0.320 C 
HETATM    3  O   UNL     1     -41.812 -49.234  12.605  1.00  0.00    -0.247 OA
HETATM    4  N   UNL     1     -41.276 -48.825  10.446  1.00  0.00    -0.340 N 
HETATM    5  H   UNL     1     -40.236 -51.083  10.605  1.00  0.00     0.171 HD
HETATM    6  H   UNL     1     -41.089 -49.206   9.530  1.00  0.00     0.164 HD
ENDROOT
BRANCH   1   7
HETATM    7  C   UNL     1     -41.228 -52.037  12.168  1.00  0.00     0.087 A 
HETATM    8  C   UNL     1     -40.228 -52.621  12.961  1.00  0.00     0.169 A 
HETATM    9  N   UNL     1     -40.435 -53.698  13.759  1.00  0.00    -0.345 N 
HETATM   10  C   UNL     1     -41.685 -54.201  13.814  1.00  0.00     0.090 A 
ATOM     11  HN  UNL     1     -39.674 -54.112  14.297  1.00  0.00     0.167 HD
HETATM   12  C   UNL     1     -42.740 -53.697  13.086  1.00  0.00     0.019 A 
HETATM   13  C   UNL     1     -42.499 -52.616  12.241  1.00  0.00     0.035 A 
BRANCH   8  14
HETATM   14  O   UNL     1     -38.972 -52.035  12.968  1.00  0.00    -0.339 OA
HETATM   15  C   UNL     1     -38.695 -51.282  14.153  1.00  0.00     0.211 C 
ENDBRANCH   8  14
ENDBRANCH   1   7
BRANCH   4  16
HETATM   16  C   UNL     1     -41.686 -47.423  10.522  1.00  0.00     0.156 C 
BRANCH  16  17
HETATM   17  C   UNL     1     -40.532 -46.432  10.716  1.00  0.00     0.139 C 
HETATM   18  C   UNL     1     -40.149 -46.111  12.155  1.00  0.00     0.035 C 
HETATM   19  C   UNL     1     -39.749 -44.647  12.118  1.00  0.00     0.029 C 
HETATM   20  C   UNL     1     -39.896 -44.240  10.666  1.00  0.00     0.168 C 
HETATM   21  O   UNL     1     -40.833 -45.165  10.105  1.00  0.00    -0.384 OA
ENDBRANCH  16  17
ENDBRANCH   4  16
TORSDOF 4
ENDMDL
MODEL 7
REMARK VINA RESULT:      -5.6      3.177      5.132
REMARK  4 active torsions:
REMARK  status: ('A' for Active; 'I' for Inactive)
REMARK    1  A    between atoms: O_2  and  C_3 
REMARK    2  A    between atoms: C_9  and  N_10 
REMARK       I    between atoms: N_10  and  C_11 
REMARK       I    between atoms: C_11  and  N_13 
REMARK    3  A    between atoms: N_13  and  C_14 
REMARK    4  A    between atoms: C_14  and  C_15 
ROOT
HETATM    1  N   UNL     1     -41.110 -51.068  13.083  1.00  0.00    -0.305 N 
HETATM    2  C   UNL     1     -41.890 -52.096  12.598  1.00  0.00     0.320 C 
HETATM    3  O   UNL     1     -41.513 -52.967  11.828  1.00  0.00    -0.247 OA
HETATM    4  N   UNL     1     -43.192 -52.054  13.037  1.00  0.00    -0.340 N 
HETATM    5  H   UNL     1     -41.338 -50.694  13.996  1.00  0.00     0.171 HD
HETATM    6  H   UNL     1     -43.547 -51.242  13.519  1.00  0.00     0.164 HD
ENDROOT
BRANCH   1   7
HETATM    7  C   UNL     1     -39.832 -50.725  12.560  1.00  0.00     0.087 A 
HETATM    8  C   UNL     1     -39.683 -49.917  11.423  1.00  0.00     0.169 A 
HETATM    9  N   UNL     1     -38.484 -49.613  10.868  1.00  0.00    -0.345 N 
HETATM   10  C   UNL     1     -37.378 -50.090  11.475  1.00  0.00     0.090 A 
ATOM     11  HN  UNL     1     -38.420 -49.047  10.022  1.00  0.00     0.167 HD
HETATM   12  C   UNL     1     -37.411 -50.882  12.601  1.00  0.00     0.019 A 
HETATM   13  C   UNL     1     -38.655 -51.216  13.134  1.00  0.00     0.035 A 
BRANCH   8  14
HETATM   14  O   UNL     1     -40.821 -49.355  10.865  1.00  0.00    -0.339 OA
HETATM   15  C   UNL     1     -40.962 -47.956  11.130  1.00  0.00     0.211 C 
ENDBRANCH   8  14
ENDBRANCH   1   7
BRANCH   4  16
HETATM   16  C   UNL     1     -44.162 -53.061  12.606  1.00  0.00     0.156 C 
BRANCH  16  17
HETATM   17  C   UNL     1     -45.563 -52.891  13.206  1.00  0.00     0.139 C 
HETATM   18  C   UNL     1     -46.093 -51.467  13.298  1.00  0.00     0.035 C 
HETATM   19  C   UNL     1     -46.900 -51.450  14.584  1.00  0.00     0.029 C 
HETATM   20  C   UNL     1     -46.808 -52.864  15.119  1.00  0.00     0.168 C 
HETATM   21  O   UNL     1     -45.615 -53.411  14.546  1.00  0.00    -0.384 OA
ENDBRANCH  16  17
ENDBRANCH   4  16
TORSDOF 4
ENDMDL
MODEL 8
REMARK VINA RESULT:      -5.6      1.652      2.334
REMARK  4 active torsions:
REMARK  status: ('A' for Active; 'I' for Inactive)
REMARK    1  A    between atoms: O_2  and  C_3 
REMARK    2  A    between atoms: C_9  and  N_10 
REMARK       I    between atoms: N_10  and  C_11 
REMARK       I    between atoms: C_11  and  N_13 
REMARK    3  A    between atoms: N_13  and  C_14 
REMARK    4  A    between atoms: C_14  and  C_15 
ROOT
HETATM    1  N   UNL     1     -40.517 -50.855  11.398  1.00  0.00    -0.305 N 
HETATM    2  C   UNL     1     -41.058 -49.592  11.517  1.00  0.00     0.320 C 
HETATM    3  O   UNL     1     -41.335 -49.038  12.571  1.00  0.00    -0.247 OA
HETATM    4  N   UNL     1     -41.305 -48.983  10.311  1.00  0.00    -0.340 N 
HETATM    5  H   UNL     1     -39.932 -51.042  10.591  1.00  0.00     0.171 HD
HETATM    6  H   UNL     1     -41.250 -49.505   9.448  1.00  0.00     0.164 HD
ENDROOT
BRANCH   1   7
HETATM    7  C   UNL     1     -40.440 -51.791  12.466  1.00  0.00     0.087 A 
HETATM    8  C   UNL     1     -41.499 -52.660  12.773  1.00  0.00     0.169 A 
HETATM    9  N   UNL     1     -41.481 -53.528  13.815  1.00  0.00    -0.345 N 
HETATM   10  C   UNL     1     -40.362 -53.576  14.566  1.00  0.00     0.090 A 
ATOM     11  HN  UNL     1     -42.284 -54.122  14.023  1.00  0.00     0.167 HD
HETATM   12  C   UNL     1     -39.263 -52.776  14.345  1.00  0.00     0.019 A 
HETATM   13  C   UNL     1     -39.316 -51.863  13.294  1.00  0.00     0.035 A 
BRANCH   8  14
HETATM   14  O   UNL     1     -42.604 -52.668  11.936  1.00  0.00    -0.339 OA
HETATM   15  C   UNL     1     -43.808 -53.098  12.577  1.00  0.00     0.211 C 
ENDBRANCH   8  14
ENDBRANCH   1   7
BRANCH   4  16
HETATM   16  C   UNL     1     -41.895 -47.645  10.252  1.00  0.00     0.156 C 
BRANCH  16  17
HETATM   17  C   UNL     1     -43.196 -47.558   9.446  1.00  0.00     0.139 C 
HETATM   18  C   UNL     1     -43.480 -46.230   8.758  1.00  0.00     0.035 C 
HETATM   19  C   UNL     1     -44.988 -46.077   8.846  1.00  0.00     0.029 C 
HETATM   20  C   UNL     1     -45.466 -47.334   9.542  1.00  0.00     0.168 C 
HETATM   21  O   UNL     1     -44.339 -47.811  10.284  1.00  0.00    -0.384 OA
ENDBRANCH  16  17
ENDBRANCH   4  16
TORSDOF 4
ENDMDL
MODEL 9
REMARK VINA RESULT:      -5.5      2.825      5.604
REMARK  4 active torsions:
REMARK  status: ('A' for Active; 'I' for Inactive)
REMARK    1  A    between atoms: O_2  and  C_3 
REMARK    2  A    between atoms: C_9  and  N_10 
REMARK       I    between atoms: N_10  and  C_11 
REMARK       I    between atoms: C_11  and  N_13 
REMARK    3  A    between atoms: N_13  and  C_14 
REMARK    4  A    between atoms: C_14  and  C_15 
ROOT
HETATM    1  N   UNL     1     -41.830 -49.427  11.009  1.00  0.00    -0.305 N 
HETATM    2  C   UNL     1     -42.415 -49.908  12.162  1.00  0.00     0.320 C 
HETATM    3  O   UNL     1     -42.881 -49.219  13.059  1.00  0.00    -0.247 OA
HETATM    4  N   UNL     1     -42.409 -51.279  12.252  1.00  0.00    -0.340 N 
HETATM    5  H   UNL     1     -41.887 -50.002  10.177  1.00  0.00     0.171 HD
HETATM    6  H   UNL     1     -41.867 -51.836  11.608  1.00  0.00     0.164 HD
ENDROOT
BRANCH   1   7
HETATM    7  C   UNL     1     -41.456 -48.068  10.815  1.00  0.00     0.087 A 
HETATM    8  C   UNL     1     -42.229 -47.184  10.048  1.00  0.00     0.169 A 
HETATM    9  N   UNL     1     -41.876 -45.898   9.798  1.00  0.00    -0.345 N 
HETATM   10  C   UNL     1     -40.735 -45.446  10.357  1.00  0.00     0.090 A 
ATOM     11  HN  UNL     1     -42.452 -45.296   9.209  1.00  0.00     0.167 HD
HETATM   12  C   UNL     1     -39.909 -46.227  11.135  1.00  0.00     0.019 A 
HETATM   13  C   UNL     1     -40.269 -47.556  11.348  1.00  0.00     0.035 A 
BRANCH   8  14
HETATM   14  O   UNL     1     -43.446 -47.633   9.558  1.00  0.00    -0.339 OA
HETATM   15  C   UNL     1     -43.554 -47.565   8.133  1.00  0.00     0.211 C 
ENDBRANCH   8  14
ENDBRANCH   1   7
BRANCH   4  16
HETATM   16  C   UNL     1     -42.975 -51.957  13.419  1.00  0.00     0.156 C 
BRANCH  16  17
HETATM   17  C   UNL     1     -44.421 -52.431  13.240  1.00  0.00     0.139 C 
HETATM   18  C   UNL     1     -45.510 -51.398  13.498  1.00  0.00     0.035 C 
HETATM   19  C   UNL     1     -46.643 -52.194  14.121  1.00  0.00     0.029 C 
HETATM   20  C   UNL     1     -46.144 -53.624  14.145  1.00  0.00     0.168 C 
HETATM   21  O   UNL     1     -44.716 -53.530  14.120  1.00  0.00    -0.384 OA
ENDBRANCH  16  17
ENDBRANCH   4  16
TORSDOF 4
ENDMDL
