MODEL 1
REMARK VINA RESULT:      -5.6      0.000      0.000
REMARK  5 active torsions:
REMARK  status: ('A' for Active; 'I' for Inactive)
REMARK    1  A    between atoms: C_2  and  C_3 
REMARK    2  A    between atoms: C_2  and  N_15 
REMARK    3  A    between atoms: C_3  and  N_4 
REMARK       I    between atoms: N_4  and  C_5 
REMARK    4  A    between atoms: C_5  and  C_7 
REMARK    5  A    between atoms: C_7  and  N_9 
ROOT
HETATM    1  N   UNL     1     -42.601 -49.861  12.204  1.00  0.00    -0.357 N 
HETATM    2  C   UNL     1     -41.921 -48.910  11.469  1.00  0.00     0.242 C 
HETATM    3  O   UNL     1     -40.790 -49.109  11.024  1.00  0.00    -0.271 OA
HETATM    4  H   UNL     1     -43.599 -49.759  12.372  1.00  0.00     0.162 HD
ENDROOT
BRANCH   1   5
HETATM    5  C   UNL     1     -42.038 -51.183  12.387  1.00  0.00     0.158 C 
BRANCH   5   6
HETATM    6  C   UNL     1     -42.819 -52.039  13.419  1.00  0.00     0.236 C 
HETATM    7  C   UNL     1     -42.333 -51.645  14.819  1.00  0.00     0.044 C 
BRANCH   6   8
HETATM    8  N   UNL     1     -42.867 -53.479  13.078  1.00  0.00     0.098 N 
HETATM    9  C   UNL     1     -44.176 -53.955  12.583  1.00  0.00     0.299 C 
HETATM   10  C   UNL     1     -45.157 -54.428  13.673  1.00  0.00     0.198 C 
HETATM   11  O   UNL     1     -44.559 -55.386  14.553  1.00  0.00    -0.388 OA
HETATM   12  C   UNL     1     -43.362 -54.868  15.141  1.00  0.00     0.198 C 
HETATM   13  C   UNL     1     -42.351 -54.442  14.067  1.00  0.00     0.299 C 
ENDBRANCH   6   8
ENDBRANCH   5   6
ENDBRANCH   1   5
BRANCH   2  14
HETATM   14  C   UNL     1     -42.665 -47.602  11.257  1.00  0.00     0.195 C 
HETATM   15  C   UNL     1     -41.708 -46.412  11.328  1.00  0.00     0.044 C 
BRANCH  14  16
HETATM   16  N   UNL     1     -43.379 -47.636   9.990  1.00  0.00    -0.290 N 
HETATM   17  C   UNL     1     -44.725 -47.488   9.783  1.00  0.00     0.112 A 
HETATM   18  C   UNL     1     -44.926 -47.657   8.433  1.00  0.00     0.037 A 
HETATM   19  C   UNL     1     -43.644 -47.889   7.908  1.00  0.00     0.108 A 
HETATM   20  N   UNL     1     -42.696 -47.871   8.848  1.00  0.00    -0.309 N 
ATOM     21  HN  UNL     1     -41.691 -48.003   8.732  1.00  0.00     0.186 HD
ENDBRANCH  14  16
ENDBRANCH   2  14
TORSDOF 5
ENDMDL
MODEL 2
REMARK VINA RESULT:      -5.6      3.141      4.316
REMARK  5 active torsions:
REMARK  status: ('A' for Active; 'I' for Inactive)
REMARK    1  A    between atoms: C_2  and  C_3 
REMARK    2  A    between atoms: C_2  and  N_15 
REMARK    3  A    between atoms: C_3  and  N_4 
REMARK       I    between atoms: N_4  and  C_5 
REMARK    4  A    between atoms: C_5  and  C_7 
REMARK    5  A    between atoms: C_7  and  N_9 
ROOT
HETATM    1  N   UNL     1     -42.737 -51.926  12.124  1.00  0.00    -0.357 N 
HETATM    2  C   UNL     1     -41.391 -51.666  11.964  1.00  0.00     0.242 C 
HETATM    3  O   UNL     1     -40.535 -52.545  12.072  1.00  0.00    -0.271 OA
HETATM    4  H   UNL     1     -43.429 -51.244  11.821  1.00  0.00     0.162 HD
ENDROOT
BRANCH   1   5
HETATM    5  C   UNL     1     -43.201 -53.283  12.326  1.00  0.00     0.158 C 
BRANCH   5   6
HETATM    6  C   UNL     1     -43.844 -53.504  13.721  1.00  0.00     0.236 C 
HETATM    7  C   UNL     1     -42.991 -54.531  14.474  1.00  0.00     0.044 C 
BRANCH   6   8
HETATM    8  N   UNL     1     -45.308 -53.720  13.670  1.00  0.00     0.098 N 
HETATM    9  C   UNL     1     -46.077 -52.613  13.062  1.00  0.00     0.299 C 
HETATM   10  C   UNL     1     -46.517 -51.505  14.040  1.00  0.00     0.198 C 
HETATM   11  O   UNL     1     -47.197 -52.039  15.182  1.00  0.00    -0.388 OA
HETATM   12  C   UNL     1     -46.390 -53.013  15.851  1.00  0.00     0.198 C 
HETATM   13  C   UNL     1     -45.988 -54.152  14.904  1.00  0.00     0.299 C 
ENDBRANCH   6   8
ENDBRANCH   5   6
ENDBRANCH   1   5
BRANCH   2  14
HETATM   14  C   UNL     1     -41.043 -50.220  11.650  1.00  0.00     0.195 C 
HETATM   15  C   UNL     1     -41.934 -49.262  12.440  1.00  0.00     0.044 C 
BRANCH  14  16
HETATM   16  N   UNL     1     -39.634 -49.979  11.917  1.00  0.00    -0.290 N 
HETATM   17  C   UNL     1     -39.071 -49.502  13.071  1.00  0.00     0.112 A 
HETATM   18  C   UNL     1     -37.722 -49.389  12.822  1.00  0.00     0.037 A 
HETATM   19  C   UNL     1     -37.567 -49.833  11.499  1.00  0.00     0.108 A 
HETATM   20  N   UNL     1     -38.724 -50.201  10.943  1.00  0.00    -0.309 N 
ATOM     21  HN  UNL     1     -38.884 -50.565  10.003  1.00  0.00     0.186 HD
ENDBRANCH  14  16
ENDBRANCH   2  14
TORSDOF 5
ENDMDL
MODEL 3
REMARK VINA RESULT:      -5.4      3.190      6.881
REMARK  5 active torsions:
REMARK  status: ('A' for Active; 'I' for Inactive)
REMARK    1  A    between atoms: C_2  and  C_3 
REMARK    2  A    between atoms: C_2  and  N_15 
REMARK    3  A    between atoms: C_3  and  N_4 
REMARK       I    between atoms: N_4  and  C_5 
REMARK    4  A    between atoms: C_5  and  C_7 
REMARK    5  A    between atoms: C_7  and  N_9 
ROOT
HETATM    1  N   UNL     1     -39.544 -48.105  11.414  1.00  0.00    -0.357 N 
HETATM    2  C   UNL     1     -38.864 -48.899  12.317  1.00  0.00     0.242 C 
HETATM    3  O   UNL     1     -38.476 -48.473  13.405  1.00  0.00    -0.271 OA
HETATM    4  H   UNL     1     -40.036 -48.529  10.631  1.00  0.00     0.162 HD
ENDROOT
BRANCH   1   5
HETATM    5  C   UNL     1     -39.918 -46.751  11.769  1.00  0.00     0.158 C 
BRANCH   5   6
HETATM    6  C   UNL     1     -40.653 -46.005  10.625  1.00  0.00     0.236 C 
HETATM    7  C   UNL     1     -39.764 -44.839  10.177  1.00  0.00     0.044 C 
BRANCH   6   8
HETATM    8  N   UNL     1     -42.076 -45.722  10.921  1.00  0.00     0.098 N 
HETATM    9  C   UNL     1     -42.672 -46.575  11.971  1.00  0.00     0.299 C 
HETATM   10  C   UNL     1     -43.290 -47.896  11.469  1.00  0.00     0.198 C 
HETATM   11  O   UNL     1     -44.211 -47.681  10.394  1.00  0.00    -0.388 OA
HETATM   12  C   UNL     1     -43.589 -46.973   9.317  1.00  0.00     0.198 C 
HETATM   13  C   UNL     1     -43.014 -45.630   9.790  1.00  0.00     0.299 C 
ENDBRANCH   6   8
ENDBRANCH   5   6
ENDBRANCH   1   5
BRANCH   2  14
HETATM   14  C   UNL     1     -38.627 -50.332  11.868  1.00  0.00     0.195 C 
HETATM   15  C   UNL     1     -37.316 -50.872  12.440  1.00  0.00     0.044 C 
BRANCH  14  16
HETATM   16  N   UNL     1     -39.757 -51.165  12.250  1.00  0.00    -0.290 N 
HETATM   17  C   UNL     1     -39.954 -51.814  13.439  1.00  0.00     0.112 A 
HETATM   18  C   UNL     1     -41.128 -52.517  13.303  1.00  0.00     0.037 A 
HETATM   19  C   UNL     1     -41.572 -52.220  12.004  1.00  0.00     0.108 A 
HETATM   20  N   UNL     1     -40.747 -51.392  11.358  1.00  0.00    -0.309 N 
ATOM     21  HN  UNL     1     -40.842 -51.018  10.414  1.00  0.00     0.186 HD
ENDBRANCH  14  16
ENDBRANCH   2  14
TORSDOF 5
ENDMDL
MODEL 4
REMARK VINA RESULT:      -5.4      4.331      5.368
REMARK  5 active torsions:
REMARK  status: ('A' for Active; 'I' for Inactive)
REMARK    1  A    between atoms: C_2  and  C_3 
REMARK    2  A    between atoms: C_2  and  N_15 
REMARK    3  A    between atoms: C_3  and  N_4 
REMARK       I    between atoms: N_4  and  C_5 
REMARK    4  A    between atoms: C_5  and  C_7 
REMARK    5  A    between atoms: C_7  and  N_9 
ROOT
HETATM    1  N   UNL     1     -39.633 -48.598  11.301  1.00  0.00    -0.357 N 
HETATM    2  C   UNL     1     -40.993 -48.356  11.329  1.00  0.00     0.242 C 
HETATM    3  O   UNL     1     -41.813 -49.246  11.551  1.00  0.00    -0.271 OA
HETATM    4  H   UNL     1     -38.975 -47.822  11.332  1.00  0.00     0.162 HD
ENDROOT
BRANCH   1   5
HETATM    5  C   UNL     1     -39.117 -49.909  11.638  1.00  0.00     0.158 C 
BRANCH   5   6
HETATM    6  C   UNL     1     -37.961 -49.859  12.671  1.00  0.00     0.236 C 
HETATM    7  C   UNL     1     -37.113 -51.123  12.488  1.00  0.00     0.044 C 
BRANCH   6   8
HETATM    8  N   UNL     1     -38.405 -49.511  14.040  1.00  0.00     0.098 N 
HETATM    9  C   UNL     1     -38.240 -48.087  14.402  1.00  0.00     0.299 C 
HETATM   10  C   UNL     1     -36.873 -47.720  15.013  1.00  0.00     0.198 C 
HETATM   11  O   UNL     1     -36.530 -48.574  16.110  1.00  0.00    -0.388 OA
HETATM   12  C   UNL     1     -36.555 -49.950  15.717  1.00  0.00     0.198 C 
HETATM   13  C   UNL     1     -37.928 -50.346  15.156  1.00  0.00     0.299 C 
ENDBRANCH   6   8
ENDBRANCH   5   6
ENDBRANCH   1   5
BRANCH   2  14
HETATM   14  C   UNL     1     -41.399 -46.915  11.063  1.00  0.00     0.195 C 
HETATM   15  C   UNL     1     -40.178 -46.057  10.735  1.00  0.00     0.044 C 
BRANCH  14  16
HETATM   16  N   UNL     1     -42.386 -46.867   9.995  1.00  0.00    -0.290 N 
HETATM   17  C   UNL     1     -43.270 -45.859   9.718  1.00  0.00     0.112 A 
HETATM   18  C   UNL     1     -44.032 -46.296   8.660  1.00  0.00     0.037 A 
HETATM   19  C   UNL     1     -43.526 -47.572   8.361  1.00  0.00     0.108 A 
HETATM   20  N   UNL     1     -42.519 -47.924   9.164  1.00  0.00    -0.309 N 
ATOM     21  HN  UNL     1     -41.977 -48.788   9.153  1.00  0.00     0.186 HD
ENDBRANCH  14  16
ENDBRANCH   2  14
TORSDOF 5
ENDMDL
MODEL 5
REMARK VINA RESULT:      -5.4      3.659      7.061
REMARK  5 active torsions:
REMARK  status: ('A' for Active; 'I' for Inactive)
REMARK    1  A    between atoms: C_2  and  C_3 
REMARK    2  A    between atoms: C_2  and  N_15 
REMARK    3  A    between atoms: C_3  and  N_4 
REMARK       I    between atoms: N_4  and  C_5 
REMARK    4  A    between atoms: C_5  and  C_7 
REMARK    5  A    between atoms: C_7  and  N_9 
ROOT
HETATM    1  N   UNL     1     -40.109 -51.494  11.918  1.00  0.00    -0.357 N 
HETATM    2  C   UNL     1     -41.324 -52.034  12.292  1.00  0.00     0.242 C 
HETATM    3  O   UNL     1     -42.342 -51.350  12.397  1.00  0.00    -0.271 OA
HETATM    4  H   UNL     1     -39.346 -52.102  11.631  1.00  0.00     0.162 HD
ENDROOT
BRANCH   1   5
HETATM    5  C   UNL     1     -40.017 -50.100  11.532  1.00  0.00     0.158 C 
BRANCH   5   6
HETATM    6  C   UNL     1     -38.799 -49.375  12.162  1.00  0.00     0.236 C 
HETATM    7  C   UNL     1     -37.540 -49.846  11.426  1.00  0.00     0.044 C 
BRANCH   6   8
HETATM    8  N   UNL     1     -38.793 -49.405  13.642  1.00  0.00     0.098 N 
HETATM    9  C   UNL     1     -39.914 -48.684  14.282  1.00  0.00     0.299 C 
HETATM   10  C   UNL     1     -39.661 -47.187  14.552  1.00  0.00     0.198 C 
HETATM   11  O   UNL     1     -38.437 -46.971  15.262  1.00  0.00    -0.388 OA
HETATM   12  C   UNL     1     -37.329 -47.553  14.567  1.00  0.00     0.198 C 
HETATM   13  C   UNL     1     -37.542 -49.056  14.337  1.00  0.00     0.299 C 
ENDBRANCH   6   8
ENDBRANCH   5   6
ENDBRANCH   1   5
BRANCH   2  14
HETATM   14  C   UNL     1     -41.310 -53.529  12.567  1.00  0.00     0.195 C 
HETATM   15  C   UNL     1     -40.141 -53.903  13.479  1.00  0.00     0.044 C 
BRANCH  14  16
HETATM   16  N   UNL     1     -42.583 -53.941  13.138  1.00  0.00    -0.290 N 
HETATM   17  C   UNL     1     -42.817 -54.431  14.395  1.00  0.00     0.112 A 
HETATM   18  C   UNL     1     -44.158 -54.732  14.446  1.00  0.00     0.037 A 
HETATM   19  C   UNL     1     -44.651 -54.377  13.179  1.00  0.00     0.108 A 
HETATM   20  N   UNL     1     -43.700 -53.887  12.379  1.00  0.00    -0.309 N 
ATOM     21  HN  UNL     1     -43.795 -53.552  11.421  1.00  0.00     0.186 HD
ENDBRANCH  14  16
ENDBRANCH   2  14
TORSDOF 5
ENDMDL
MODEL 6
REMARK VINA RESULT:      -5.3      2.198      3.212
REMARK  5 active torsions:
REMARK  status: ('A' for Active; 'I' for Inactive)
REMARK    1  A    between atoms: C_2  and  C_3 
REMARK    2  A    between atoms: C_2  and  N_15 
REMARK    3  A    between atoms: C_3  and  N_4 
REMARK       I    between atoms: N_4  and  C_5 
REMARK    4  A    between atoms: C_5  and  C_7 
REMARK    5  A    between atoms: C_7  and  N_9 
ROOT
HETATM    1  N   UNL     1     -41.255 -52.724  13.555  1.00  0.00    -0.357 N 
HETATM    2  C   UNL     1     -41.139 -51.893  12.459  1.00  0.00     0.242 C 
HETATM    3  O   UNL     1     -41.424 -52.264  11.320  1.00  0.00    -0.271 OA
HETATM    4  H   UNL     1     -41.224 -52.337  14.496  1.00  0.00     0.162 HD
ENDROOT
BRANCH   1   5
HETATM    5  C   UNL     1     -41.823 -54.049  13.411  1.00  0.00     0.158 C 
BRANCH   5   6
HETATM    6  C   UNL     1     -43.130 -54.242  14.225  1.00  0.00     0.236 C 
HETATM    7  C   UNL     1     -42.868 -55.318  15.285  1.00  0.00     0.044 C 
BRANCH   6   8
HETATM    8  N   UNL     1     -44.338 -54.377  13.380  1.00  0.00     0.098 N 
HETATM    9  C   UNL     1     -44.752 -53.138  12.688  1.00  0.00     0.299 C 
HETATM   10  C   UNL     1     -45.707 -52.228  13.487  1.00  0.00     0.198 C 
HETATM   11  O   UNL     1     -46.843 -52.947  13.980  1.00  0.00    -0.388 OA
HETATM   12  C   UNL     1     -46.437 -54.071  14.769  1.00  0.00     0.198 C 
HETATM   13  C   UNL     1     -45.528 -55.015  13.969  1.00  0.00     0.299 C 
ENDBRANCH   6   8
ENDBRANCH   5   6
ENDBRANCH   1   5
BRANCH   2  14
HETATM   14  C   UNL     1     -40.632 -50.492  12.760  1.00  0.00     0.195 C 
HETATM   15  C   UNL     1     -39.125 -50.395  12.518  1.00  0.00     0.044 C 
BRANCH  14  16
HETATM   16  N   UNL     1     -41.362 -49.517  11.964  1.00  0.00    -0.290 N 
HETATM   17  C   UNL     1     -42.528 -48.877  12.289  1.00  0.00     0.112 A 
HETATM   18  C   UNL     1     -42.857 -48.102  11.201  1.00  0.00     0.037 A 
HETATM   19  C   UNL     1     -41.824 -48.332  10.276  1.00  0.00     0.108 A 
HETATM   20  N   UNL     1     -40.906 -49.186  10.735  1.00  0.00    -0.309 N 
ATOM     21  HN  UNL     1     -40.060 -49.512  10.269  1.00  0.00     0.186 HD
ENDBRANCH  14  16
ENDBRANCH   2  14
TORSDOF 5
ENDMDL
MODEL 7
REMARK VINA RESULT:      -5.3      3.018      6.403
REMARK  5 active torsions:
REMARK  status: ('A' for Active; 'I' for Inactive)
REMARK    1  A    between atoms: C_2  and  C_3 
REMARK    2  A    between atoms: C_2  and  N_15 
REMARK    3  A    between atoms: C_3  and  N_4 
REMARK       I    between atoms: N_4  and  C_5 
REMARK    4  A    between atoms: C_5  and  C_7 
REMARK    5  A    between atoms: C_7  and  N_9 
ROOT
HETATM    1  N   UNL     1     -42.688 -52.731  11.986  1.00  0.00    -0.357 N 
HETATM    2  C   UNL     1     -42.959 -53.718  12.913  1.00  0.00     0.242 C 
HETATM    3  O   UNL     1     -42.084 -54.202  13.631  1.00  0.00    -0.271 OA
HETATM    4  H   UNL     1     -43.449 -52.202  11.566  1.00  0.00     0.162 HD
ENDROOT
BRANCH   1   5
HETATM    5  C   UNL     1     -41.363 -52.151  11.902  1.00  0.00     0.158 C 
BRANCH   5   6
HETATM    6  C   UNL     1     -41.283 -50.726  12.509  1.00  0.00     0.236 C 
HETATM    7  C   UNL     1     -42.715 -50.214  12.695  1.00  0.00     0.044 C 
BRANCH   6   8
HETATM    8  N   UNL     1     -40.312 -49.844  11.822  1.00  0.00     0.098 N 
HETATM    9  C   UNL     1     -38.898 -50.250  11.963  1.00  0.00     0.299 C 
HETATM   10  C   UNL     1     -38.172 -49.683  13.199  1.00  0.00     0.198 C 
HETATM   11  O   UNL     1     -38.312 -48.261  13.295  1.00  0.00    -0.388 OA
HETATM   12  C   UNL     1     -39.691 -47.879  13.300  1.00  0.00     0.198 C 
HETATM   13  C   UNL     1     -40.416 -48.392  12.047  1.00  0.00     0.299 C 
ENDBRANCH   6   8
ENDBRANCH   5   6
ENDBRANCH   1   5
BRANCH   2  14
HETATM   14  C   UNL     1     -44.411 -54.165  12.976  1.00  0.00     0.195 C 
HETATM   15  C   UNL     1     -44.622 -55.169  14.110  1.00  0.00     0.044 C 
BRANCH  14  16
HETATM   16  N   UNL     1     -45.281 -53.008  13.121  1.00  0.00    -0.290 N 
HETATM   17  C   UNL     1     -45.599 -52.340  14.274  1.00  0.00     0.112 A 
HETATM   18  C   UNL     1     -46.496 -51.361  13.914  1.00  0.00     0.037 A 
HETATM   19  C   UNL     1     -46.646 -51.509  12.525  1.00  0.00     0.108 A 
HETATM   20  N   UNL     1     -45.904 -52.504  12.033  1.00  0.00    -0.309 N 
ATOM     21  HN  UNL     1     -45.826 -52.812  11.064  1.00  0.00     0.186 HD
ENDBRANCH  14  16
ENDBRANCH   2  14
TORSDOF 5
ENDMDL
MODEL 8
REMARK VINA RESULT:      -5.3      1.590      2.520
REMARK  5 active torsions:
REMARK  status: ('A' for Active; 'I' for Inactive)
REMARK    1  A    between atoms: C_2  and  C_3 
REMARK    2  A    between atoms: C_2  and  N_15 
REMARK    3  A    between atoms: C_3  and  N_4 
REMARK       I    between atoms: N_4  and  C_5 
REMARK    4  A    between atoms: C_5  and  C_7 
REMARK    5  A    between atoms: C_7  and  N_9 
ROOT
HETATM    1  N   UNL     1     -42.118 -50.255  11.762  1.00  0.00    -0.357 N 
HETATM    2  C   UNL     1     -41.255 -49.271  11.321  1.00  0.00     0.242 C 
HETATM    3  O   UNL     1     -40.032 -49.408  11.352  1.00  0.00    -0.271 OA
HETATM    4  H   UNL     1     -43.107 -50.210  11.529  1.00  0.00     0.162 HD
ENDROOT
BRANCH   1   5
HETATM    5  C   UNL     1     -41.604 -51.542  12.186  1.00  0.00     0.158 C 
BRANCH   5   6
HETATM    6  C   UNL     1     -42.407 -52.160  13.360  1.00  0.00     0.236 C 
HETATM    7  C   UNL     1     -41.760 -51.694  14.669  1.00  0.00     0.044 C 
BRANCH   6   8
HETATM    8  N   UNL     1     -42.679 -53.606  13.194  1.00  0.00     0.098 N 
HETATM    9  C   UNL     1     -44.001 -53.926  12.616  1.00  0.00     0.299 C 
HETATM   10  C   UNL     1     -45.145 -54.075  13.639  1.00  0.00     0.198 C 
HETATM   11  O   UNL     1     -44.808 -54.987  14.690  1.00  0.00    -0.388 OA
HETATM   12  C   UNL     1     -43.596 -54.594  15.342  1.00  0.00     0.198 C 
HETATM   13  C   UNL     1     -42.433 -54.493  14.344  1.00  0.00     0.299 C 
ENDBRANCH   6   8
ENDBRANCH   5   6
ENDBRANCH   1   5
BRANCH   2  14
HETATM   14  C   UNL     1     -41.925 -48.010  10.801  1.00  0.00     0.195 C 
HETATM   15  C   UNL     1     -43.357 -47.898  11.324  1.00  0.00     0.044 C 
BRANCH  14  16
HETATM   16  N   UNL     1     -41.134 -46.843  11.161  1.00  0.00    -0.290 N 
HETATM   17  C   UNL     1     -41.183 -46.126  12.327  1.00  0.00     0.112 A 
HETATM   18  C   UNL     1     -40.297 -45.085  12.176  1.00  0.00     0.037 A 
HETATM   19  C   UNL     1     -39.752 -45.266  10.894  1.00  0.00     0.108 A 
HETATM   20  N   UNL     1     -40.250 -46.338  10.272  1.00  0.00    -0.309 N 
ATOM     21  HN  UNL     1     -40.019 -46.692   9.344  1.00  0.00     0.186 HD
ENDBRANCH  14  16
ENDBRANCH   2  14
TORSDOF 5
ENDMDL
MODEL 9
REMARK VINA RESULT:      -5.2      2.418      3.911
REMARK  5 active torsions:
REMARK  status: ('A' for Active; 'I' for Inactive)
REMARK    1  A    between atoms: C_2  and  C_3 
REMARK    2  A    between atoms: C_2  and  N_15 
REMARK    3  A    between atoms: C_3  and  N_4 
REMARK       I    between atoms: N_4  and  C_5 
REMARK    4  A    between atoms: C_5  and  C_7 
REMARK    5  A    between atoms: C_7  and  N_9 
ROOT
HETATM    1  N   UNL     1     -43.307 -50.441  12.432  1.00  0.00    -0.357 N 
HETATM    2  C   UNL     1     -42.444 -49.363  12.457  1.00  0.00     0.242 C 
HETATM    3  O   UNL     1     -42.457 -48.532  13.366  1.00  0.00    -0.271 OA
HETATM    4  H   UNL     1     -43.135 -51.218  11.798  1.00  0.00     0.162 HD
ENDROOT
BRANCH   1   5
HETATM    5  C   UNL     1     -44.199 -50.689  13.546  1.00  0.00     0.158 C 
BRANCH   5   6
HETATM    6  C   UNL     1     -45.079 -51.952  13.350  1.00  0.00     0.236 C 
HETATM    7  C   UNL     1     -46.383 -51.515  12.674  1.00  0.00     0.044 C 
BRANCH   6   8
HETATM    8  N   UNL     1     -45.172 -52.801  14.559  1.00  0.00     0.098 N 
HETATM    9  C   UNL     1     -43.874 -53.265  15.093  1.00  0.00     0.299 C 
HETATM   10  C   UNL     1     -43.357 -54.590  14.497  1.00  0.00     0.198 C 
HETATM   11  O   UNL     1     -44.342 -55.627  14.563  1.00  0.00    -0.388 OA
HETATM   12  C   UNL     1     -45.556 -55.224  13.920  1.00  0.00     0.198 C 
HETATM   13  C   UNL     1     -46.113 -53.934  14.538  1.00  0.00     0.299 C 
ENDBRANCH   6   8
ENDBRANCH   5   6
ENDBRANCH   1   5
BRANCH   2  14
HETATM   14  C   UNL     1     -41.485 -49.275  11.281  1.00  0.00     0.195 C 
HETATM   15  C   UNL     1     -41.604 -47.921  10.581  1.00  0.00     0.044 C 
BRANCH  14  16
HETATM   16  N   UNL     1     -40.123 -49.523  11.731  1.00  0.00    -0.290 N 
HETATM   17  C   UNL     1     -39.168 -48.598  12.057  1.00  0.00     0.112 A 
HETATM   18  C   UNL     1     -38.032 -49.311  12.364  1.00  0.00     0.037 A 
HETATM   19  C   UNL     1     -38.404 -50.656  12.207  1.00  0.00     0.108 A 
HETATM   20  N   UNL     1     -39.677 -50.795  11.830  1.00  0.00    -0.309 N 
ATOM     21  HN  UNL     1     -40.192 -51.658  11.656  1.00  0.00     0.186 HD
ENDBRANCH  14  16
ENDBRANCH   2  14
TORSDOF 5
ENDMDL
