MODEL 1
REMARK VINA RESULT:      -7.2      0.000      0.000
REMARK  4 active torsions:
REMARK  status: ('A' for Active; 'I' for Inactive)
REMARK    1  A    between atoms: N_2  and  C_3 
REMARK    2  A    between atoms: N_4  and  C_18 
REMARK    3  A    between atoms: C_18  and  C_20 
REMARK    4  A    between atoms: C_20  and  O_25 
ROOT
HETATM    1  C   UNL     1     -42.344 -49.537  12.237  1.00  0.00     0.117 A 
HETATM    2  C   UNL     1     -41.858 -48.656  11.244  1.00  0.00     0.115 A 
HETATM    3  N   UNL     1     -42.219 -51.283  13.549  1.00  0.00    -0.324 N 
HETATM    4  C   UNL     1     -41.593 -50.669  12.501  1.00  0.00     0.140 A 
HETATM    5  N   UNL     1     -43.439 -49.486  13.092  1.00  0.00    -0.346 N 
ATOM      6  HN  UNL     1     -44.177 -48.783  13.109  1.00  0.00     0.167 HD
HETATM    7  C   UNL     1     -43.322 -50.536  13.871  1.00  0.00     0.185 A 
HETATM    8  N   UNL     1     -40.729 -49.036  10.582  1.00  0.00    -0.341 N 
ATOM      9  HN  UNL     1     -40.357 -48.462   9.826  1.00  0.00     0.167 HD
HETATM   10  N   UNL     1     -40.464 -51.059  11.895  1.00  0.00    -0.336 N 
ATOM     11  HN  UNL     1     -39.945 -51.906  12.124  1.00  0.00     0.168 HD
HETATM   12  C   UNL     1     -40.108 -50.180  10.940  1.00  0.00     0.183 A 
ENDROOT
BRANCH   2  13
HETATM   13  N   UNL     1     -42.431 -47.399  11.014  1.00  0.00    -0.252 NA
HETATM   14  C   UNL     1     -41.542 -46.222  11.115  1.00  0.00     0.088 C 
HETATM   15  C   UNL     1     -42.473 -44.971  11.090  1.00  0.00     0.102 C 
HETATM   16  C   UNL     1     -40.714 -46.193  12.416  1.00  0.00     0.022 C 
HETATM   17  N   UNL     1     -43.313 -44.941   9.902  1.00  0.00    -0.354 N 
HETATM   18  C   UNL     1     -41.680 -43.671  11.233  1.00  0.00     0.027 C 
HETATM   19  C   UNL     1     -43.912 -46.093   9.445  1.00  0.00     0.231 C 
HETATM   20  H   UNL     1     -43.889 -44.123   9.737  1.00  0.00     0.162 HD
HETATM   21  C   UNL     1     -43.216 -47.432   9.757  1.00  0.00     0.200 C 
HETATM   22  O   UNL     1     -44.906 -46.013   8.726  1.00  0.00    -0.272 OA
HETATM   23  C   UNL     1     -40.845 -43.678  12.509  1.00  0.00     0.002 C 
HETATM   24  C   UNL     1     -39.929 -44.893  12.560  1.00  0.00     0.002 C 
ENDBRANCH   2  13
BRANCH   3  25
HETATM   25  C   UNL     1     -41.702 -52.413  14.293  1.00  0.00     0.169 C 
BRANCH  25  26
HETATM   26  C   UNL     1     -41.976 -53.801  13.670  1.00  0.00     0.078 C 
HETATM   27  C   UNL     1     -43.441 -53.855  13.189  1.00  0.00     0.066 C 
HETATM   28  C   UNL     1     -44.408 -54.104  14.336  1.00  0.00     0.170 C 
HETATM   29  O   UNL     1     -44.081 -55.329  14.981  1.00  0.00    -0.391 OA
HETATM   30  C   UNL     1     -42.798 -55.286  15.600  1.00  0.00     0.170 C 
HETATM   31  C   UNL     1     -41.695 -55.009  14.583  1.00  0.00     0.066 C 
BRANCH  26  32
HETATM   32  O   UNL     1     -41.163 -53.910  12.487  1.00  0.00    -0.388 OA
HETATM   33  H   UNL     1     -41.637 -53.501  11.741  1.00  0.00     0.210 HD
ENDBRANCH  26  32
ENDBRANCH  25  26
ENDBRANCH   3  25
TORSDOF 4
ENDMDL
MODEL 2
REMARK VINA RESULT:      -7.1      2.349      8.054
REMARK  4 active torsions:
REMARK  status: ('A' for Active; 'I' for Inactive)
REMARK    1  A    between atoms: N_2  and  C_3 
REMARK    2  A    between atoms: N_4  and  C_18 
REMARK    3  A    between atoms: C_18  and  C_20 
REMARK    4  A    between atoms: C_20  and  O_25 
ROOT
HETATM    1  C   UNL     1     -42.819 -48.511  12.530  1.00  0.00     0.117 A 
HETATM    2  C   UNL     1     -42.902 -49.393  13.632  1.00  0.00     0.115 A 
HETATM    3  N   UNL     1     -42.565 -46.550  11.595  1.00  0.00    -0.324 N 
HETATM    4  C   UNL     1     -42.732 -47.158  12.807  1.00  0.00     0.140 A 
HETATM    5  N   UNL     1     -42.747 -48.718  11.157  1.00  0.00    -0.346 N 
ATOM      6  HN  UNL     1     -42.812 -49.607  10.662  1.00  0.00     0.167 HD
HETATM    7  C   UNL     1     -42.579 -47.526  10.633  1.00  0.00     0.185 A 
HETATM    8  N   UNL     1     -42.961 -48.827  14.871  1.00  0.00    -0.341 N 
ATOM      9  HN  UNL     1     -43.066 -49.411  15.700  1.00  0.00     0.167 HD
HETATM   10  N   UNL     1     -42.754 -46.568  14.009  1.00  0.00    -0.336 N 
ATOM     11  HN  UNL     1     -42.687 -45.562  14.163  1.00  0.00     0.168 HD
HETATM   12  C   UNL     1     -42.878 -47.484  14.987  1.00  0.00     0.183 A 
ENDROOT
BRANCH   2  13
HETATM   13  N   UNL     1     -42.817 -50.783  13.486  1.00  0.00    -0.252 NA
HETATM   14  C   UNL     1     -44.060 -51.504  13.137  1.00  0.00     0.088 C 
HETATM   15  C   UNL     1     -43.745 -53.021  13.308  1.00  0.00     0.102 C 
HETATM   16  C   UNL     1     -45.250 -51.142  14.049  1.00  0.00     0.022 C 
HETATM   17  N   UNL     1     -42.609 -53.436  12.499  1.00  0.00    -0.354 N 
HETATM   18  C   UNL     1     -44.969 -53.891  13.020  1.00  0.00     0.027 C 
HETATM   19  C   UNL     1     -41.490 -52.638  12.412  1.00  0.00     0.231 C 
HETATM   20  H   UNL     1     -42.376 -54.422  12.462  1.00  0.00     0.162 HD
HETATM   21  C   UNL     1     -41.678 -51.121  12.599  1.00  0.00     0.200 C 
HETATM   22  O   UNL     1     -40.415 -53.140  12.087  1.00  0.00    -0.272 OA
HETATM   23  C   UNL     1     -46.143 -53.495  13.910  1.00  0.00     0.002 C 
HETATM   24  C   UNL     1     -46.469 -52.015  13.765  1.00  0.00     0.002 C 
ENDBRANCH   2  13
BRANCH   3  25
HETATM   25  C   UNL     1     -42.248 -45.152  11.391  1.00  0.00     0.169 C 
BRANCH  25  26
HETATM   26  C   UNL     1     -40.779 -44.851  11.010  1.00  0.00     0.078 C 
HETATM   27  C   UNL     1     -39.847 -45.689  11.909  1.00  0.00     0.066 C 
HETATM   28  C   UNL     1     -39.684 -45.075  13.291  1.00  0.00     0.170 C 
HETATM   29  O   UNL     1     -39.162 -43.758  13.171  1.00  0.00    -0.391 OA
HETATM   30  C   UNL     1     -40.059 -42.881  12.495  1.00  0.00     0.170 C 
HETATM   31  C   UNL     1     -40.362 -43.371  11.082  1.00  0.00     0.066 C 
BRANCH  26  32
HETATM   32  O   UNL     1     -40.577 -45.330   9.667  1.00  0.00    -0.388 OA
HETATM   33  H   UNL     1     -40.622 -44.575   9.054  1.00  0.00     0.210 HD
ENDBRANCH  26  32
ENDBRANCH  25  26
ENDBRANCH   3  25
TORSDOF 4
ENDMDL
MODEL 3
REMARK VINA RESULT:      -7.0      2.408      7.843
REMARK  4 active torsions:
REMARK  status: ('A' for Active; 'I' for Inactive)
REMARK    1  A    between atoms: N_2  and  C_3 
REMARK    2  A    between atoms: N_4  and  C_18 
REMARK    3  A    between atoms: C_18  and  C_20 
REMARK    4  A    between atoms: C_20  and  O_25 
ROOT
HETATM    1  C   UNL     1     -41.634 -50.966  13.764  1.00  0.00     0.117 A 
HETATM    2  C   UNL     1     -42.202 -52.260  13.707  1.00  0.00     0.115 A 
HETATM    3  N   UNL     1     -40.655 -49.209  12.905  1.00  0.00    -0.324 N 
HETATM    4  C   UNL     1     -41.023 -50.492  12.616  1.00  0.00     0.140 A 
HETATM    5  N   UNL     1     -41.599 -49.992  14.755  1.00  0.00    -0.346 N 
ATOM      6  HN  UNL     1     -41.948 -50.069  15.710  1.00  0.00     0.167 HD
HETATM    7  C   UNL     1     -41.022 -48.951  14.200  1.00  0.00     0.185 A 
HETATM    8  N   UNL     1     -42.036 -52.955  12.547  1.00  0.00    -0.341 N 
ATOM      9  HN  UNL     1     -42.385 -53.909  12.463  1.00  0.00     0.167 HD
HETATM   10  N   UNL     1     -40.868 -51.133  11.450  1.00  0.00    -0.336 N 
ATOM     11  HN  UNL     1     -40.408 -50.741  10.629  1.00  0.00     0.168 HD
HETATM   12  C   UNL     1     -41.402 -52.366  11.510  1.00  0.00     0.183 A 
ENDROOT
BRANCH   2  13
HETATM   13  N   UNL     1     -42.996 -52.774  14.740  1.00  0.00    -0.252 NA
HETATM   14  C   UNL     1     -44.461 -52.748  14.544  1.00  0.00     0.088 C 
HETATM   15  C   UNL     1     -45.091 -53.111  15.923  1.00  0.00     0.102 C 
HETATM   16  C   UNL     1     -44.993 -51.367  14.108  1.00  0.00     0.022 C 
HETATM   17  N   UNL     1     -44.613 -54.393  16.419  1.00  0.00    -0.354 N 
HETATM   18  C   UNL     1     -46.619 -53.078  15.876  1.00  0.00     0.027 C 
HETATM   19  C   UNL     1     -43.282 -54.730  16.304  1.00  0.00     0.231 C 
HETATM   20  H   UNL     1     -45.029 -54.771  17.263  1.00  0.00     0.162 HD
HETATM   21  C   UNL     1     -42.484 -54.105  15.145  1.00  0.00     0.200 C 
HETATM   22  O   UNL     1     -42.809 -55.584  17.052  1.00  0.00    -0.272 OA
HETATM   23  C   UNL     1     -47.121 -51.715  15.412  1.00  0.00     0.002 C 
HETATM   24  C   UNL     1     -46.518 -51.334  14.068  1.00  0.00     0.002 C 
ENDBRANCH   2  13
BRANCH   3  25
HETATM   25  C   UNL     1     -40.138 -48.247  11.954  1.00  0.00     0.169 C 
BRANCH  25  26
HETATM   26  C   UNL     1     -41.197 -47.561  11.060  1.00  0.00     0.078 C 
HETATM   27  C   UNL     1     -40.614 -46.242  10.513  1.00  0.00     0.066 C 
HETATM   28  C   UNL     1     -40.665 -45.125  11.545  1.00  0.00     0.170 C 
HETATM   29  O   UNL     1     -42.012 -44.911  11.952  1.00  0.00    -0.391 OA
HETATM   30  C   UNL     1     -42.559 -46.043  12.623  1.00  0.00     0.170 C 
HETATM   31  C   UNL     1     -42.555 -47.280  11.730  1.00  0.00     0.066 C 
BRANCH  26  32
HETATM   32  O   UNL     1     -41.408 -48.409   9.915  1.00  0.00    -0.388 OA
HETATM   33  H   UNL     1     -41.956 -47.932   9.267  1.00  0.00     0.210 HD
ENDBRANCH  26  32
ENDBRANCH  25  26
ENDBRANCH   3  25
TORSDOF 4
ENDMDL
MODEL 4
REMARK VINA RESULT:      -7.0      1.763      2.007
REMARK  4 active torsions:
REMARK  status: ('A' for Active; 'I' for Inactive)
REMARK    1  A    between atoms: N_2  and  C_3 
REMARK    2  A    between atoms: N_4  and  C_18 
REMARK    3  A    between atoms: C_18  and  C_20 
REMARK    4  A    between atoms: C_20  and  O_25 
ROOT
HETATM    1  C   UNL     1     -40.568 -49.863  12.849  1.00  0.00     0.117 A 
HETATM    2  C   UNL     1     -40.223 -48.939  11.836  1.00  0.00     0.115 A 
HETATM    3  N   UNL     1     -40.153 -51.491  14.250  1.00  0.00    -0.324 N 
HETATM    4  C   UNL     1     -39.612 -50.800  13.203  1.00  0.00     0.140 A 
HETATM    5  N   UNL     1     -41.695 -50.013  13.649  1.00  0.00    -0.346 N 
ATOM      6  HN  UNL     1     -42.564 -49.481  13.598  1.00  0.00     0.167 HD
HETATM    7  C   UNL     1     -41.403 -50.983  14.484  1.00  0.00     0.185 A 
HETATM    8  N   UNL     1     -39.005 -49.097  11.246  1.00  0.00    -0.341 N 
ATOM      9  HN  UNL     1     -38.720 -48.488  10.480  1.00  0.00     0.167 HD
HETATM   10  N   UNL     1     -38.395 -50.966  12.669  1.00  0.00    -0.336 N 
ATOM     11  HN  UNL     1     -37.723 -51.674  12.964  1.00  0.00     0.168 HD
HETATM   12  C   UNL     1     -38.179 -50.070  11.689  1.00  0.00     0.183 A 
ENDROOT
BRANCH   2  13
HETATM   13  N   UNL     1     -41.033 -47.842  11.518  1.00  0.00    -0.252 NA
HETATM   14  C   UNL     1     -40.399 -46.507  11.534  1.00  0.00     0.088 C 
HETATM   15  C   UNL     1     -41.561 -45.473  11.421  1.00  0.00     0.102 C 
HETATM   16  C   UNL     1     -39.611 -46.222  12.828  1.00  0.00     0.022 C 
HETATM   17  N   UNL     1     -42.374 -45.695  10.234  1.00  0.00    -0.354 N 
HETATM   18  C   UNL     1     -41.046 -44.034  11.469  1.00  0.00     0.027 C 
HETATM   19  C   UNL     1     -42.724 -46.974   9.861  1.00  0.00     0.231 C 
HETATM   20  H   UNL     1     -43.100 -45.023  10.012  1.00  0.00     0.162 HD
HETATM   21  C   UNL     1     -41.779 -48.120  10.267  1.00  0.00     0.200 C 
HETATM   22  O   UNL     1     -43.705 -47.145   9.139  1.00  0.00    -0.272 OA
HETATM   23  C   UNL     1     -40.243 -43.784  12.742  1.00  0.00     0.002 C 
HETATM   24  C   UNL     1     -39.104 -44.783  12.879  1.00  0.00     0.002 C 
ENDBRANCH   2  13
BRANCH   3  25
HETATM   25  C   UNL     1     -39.452 -52.456  15.073  1.00  0.00     0.169 C 
BRANCH  25  26
HETATM   26  C   UNL     1     -39.484 -53.915  14.560  1.00  0.00     0.078 C 
HETATM   27  C   UNL     1     -40.896 -54.226  14.022  1.00  0.00     0.066 C 
HETATM   28  C   UNL     1     -41.879 -54.528  15.143  1.00  0.00     0.170 C 
HETATM   29  O   UNL     1     -41.412 -55.635  15.904  1.00  0.00    -0.391 OA
HETATM   30  C   UNL     1     -40.186 -55.350  16.573  1.00  0.00     0.170 C 
HETATM   31  C   UNL     1     -39.080 -54.990  15.585  1.00  0.00     0.066 C 
BRANCH  26  32
HETATM   32  O   UNL     1     -38.599 -53.992  13.428  1.00  0.00    -0.388 OA
HETATM   33  H   UNL     1     -38.974 -53.466  12.699  1.00  0.00     0.210 HD
ENDBRANCH  26  32
ENDBRANCH  25  26
ENDBRANCH   3  25
TORSDOF 4
ENDMDL
MODEL 5
REMARK VINA RESULT:      -6.9      2.342      8.291
REMARK  4 active torsions:
REMARK  status: ('A' for Active; 'I' for Inactive)
REMARK    1  A    between atoms: N_2  and  C_3 
REMARK    2  A    between atoms: N_4  and  C_18 
REMARK    3  A    between atoms: C_18  and  C_20 
REMARK    4  A    between atoms: C_20  and  O_25 
ROOT
HETATM    1  C   UNL     1     -40.718 -47.091  11.509  1.00  0.00     0.117 A 
HETATM    2  C   UNL     1     -41.229 -48.398  11.336  1.00  0.00     0.115 A 
HETATM    3  N   UNL     1     -40.649 -44.939  11.123  1.00  0.00    -0.324 N 
HETATM    4  C   UNL     1     -41.227 -46.099  10.690  1.00  0.00     0.140 A 
HETATM    5  N   UNL     1     -39.808 -46.543  12.406  1.00  0.00    -0.346 N 
ATOM      6  HN  UNL     1     -39.259 -47.037  13.108  1.00  0.00     0.167 HD
HETATM    7  C   UNL     1     -39.806 -45.254  12.156  1.00  0.00     0.185 A 
HETATM    8  N   UNL     1     -42.128 -48.580  10.328  1.00  0.00    -0.341 N 
ATOM      9  HN  UNL     1     -42.497 -49.509  10.128  1.00  0.00     0.167 HD
HETATM   10  N   UNL     1     -42.132 -46.233   9.711  1.00  0.00    -0.336 N 
ATOM     11  HN  UNL     1     -42.477 -45.469   9.131  1.00  0.00     0.168 HD
HETATM   12  C   UNL     1     -42.524 -47.515   9.597  1.00  0.00     0.183 A 
ENDROOT
BRANCH   2  13
HETATM   13  N   UNL     1     -40.925 -49.442  12.218  1.00  0.00    -0.252 NA
HETATM   14  C   UNL     1     -42.014 -50.384  12.553  1.00  0.00     0.088 C 
HETATM   15  C   UNL     1     -41.489 -51.254  13.735  1.00  0.00     0.102 C 
HETATM   16  C   UNL     1     -43.312 -49.679  13.000  1.00  0.00     0.022 C 
HETATM   17  N   UNL     1     -40.244 -51.931  13.402  1.00  0.00    -0.354 N 
HETATM   18  C   UNL     1     -42.542 -52.252  14.218  1.00  0.00     0.027 C 
HETATM   19  C   UNL     1     -39.255 -51.266  12.712  1.00  0.00     0.231 C 
HETATM   20  H   UNL     1     -39.863 -52.597  14.064  1.00  0.00     0.162 HD
HETATM   21  C   UNL     1     -39.683 -50.120  11.775  1.00  0.00     0.200 C 
HETATM   22  O   UNL     1     -38.094 -51.668  12.783  1.00  0.00    -0.272 OA
HETATM   23  C   UNL     1     -43.826 -51.537  14.623  1.00  0.00     0.002 C 
HETATM   24  C   UNL     1     -44.360 -50.676  13.487  1.00  0.00     0.002 C 
ENDBRANCH   2  13
BRANCH   3  25
HETATM   25  C   UNL     1     -41.009 -43.605  10.687  1.00  0.00     0.169 C 
BRANCH  25  26
HETATM   26  C   UNL     1     -42.365 -43.077  11.208  1.00  0.00     0.078 C 
HETATM   27  C   UNL     1     -42.367 -41.537  11.131  1.00  0.00     0.066 C 
HETATM   28  C   UNL     1     -41.602 -40.908  12.286  1.00  0.00     0.170 C 
HETATM   29  O   UNL     1     -42.178 -41.317  13.520  1.00  0.00    -0.391 OA
HETATM   30  C   UNL     1     -42.055 -42.720  13.734  1.00  0.00     0.170 C 
HETATM   31  C   UNL     1     -42.749 -43.517  12.633  1.00  0.00     0.066 C 
BRANCH  26  32
HETATM   32  O   UNL     1     -43.382 -43.524  10.292  1.00  0.00    -0.388 OA
HETATM   33  H   UNL     1     -44.183 -43.750  10.796  1.00  0.00     0.210 HD
ENDBRANCH  26  32
ENDBRANCH  25  26
ENDBRANCH   3  25
TORSDOF 4
ENDMDL
MODEL 6
REMARK VINA RESULT:      -6.9      2.593      3.428
REMARK  4 active torsions:
REMARK  status: ('A' for Active; 'I' for Inactive)
REMARK    1  A    between atoms: N_2  and  C_3 
REMARK    2  A    between atoms: N_4  and  C_18 
REMARK    3  A    between atoms: C_18  and  C_20 
REMARK    4  A    between atoms: C_20  and  O_25 
ROOT
HETATM    1  C   UNL     1     -39.630 -49.533  13.263  1.00  0.00     0.117 A 
HETATM    2  C   UNL     1     -39.154 -48.684  12.238  1.00  0.00     0.115 A 
HETATM    3  N   UNL     1     -39.559 -51.309  14.538  1.00  0.00    -0.324 N 
HETATM    4  C   UNL     1     -38.975 -50.739  13.442  1.00  0.00     0.140 A 
HETATM    5  N   UNL     1     -40.631 -49.393  14.218  1.00  0.00    -0.346 N 
ATOM      6  HN  UNL     1     -41.291 -48.621  14.313  1.00  0.00     0.167 HD
HETATM    7  C   UNL     1     -40.547 -50.465  14.971  1.00  0.00     0.185 A 
HETATM    8  N   UNL     1     -38.134 -49.159  11.469  1.00  0.00    -0.341 N 
ATOM      9  HN  UNL     1     -37.779 -48.610  10.687  1.00  0.00     0.167 HD
HETATM   10  N   UNL     1     -37.951 -51.225  12.728  1.00  0.00    -0.336 N 
ATOM     11  HN  UNL     1     -37.500 -52.124  12.898  1.00  0.00     0.168 HD
HETATM   12  C   UNL     1     -37.600 -50.366  11.754  1.00  0.00     0.183 A 
ENDROOT
BRANCH   2  13
HETATM   13  N   UNL     1     -39.617 -47.373  12.078  1.00  0.00    -0.252 NA
HETATM   14  C   UNL     1     -41.039 -47.198  11.712  1.00  0.00     0.088 C 
HETATM   15  C   UNL     1     -41.210 -45.695  11.335  1.00  0.00     0.102 C 
HETATM   16  C   UNL     1     -41.469 -48.059  10.507  1.00  0.00     0.022 C 
HETATM   17  N   UNL     1     -40.795 -44.812  12.415  1.00  0.00    -0.354 N 
HETATM   18  C   UNL     1     -42.638 -45.380  10.889  1.00  0.00     0.027 C 
HETATM   19  C   UNL     1     -39.652 -45.083  13.134  1.00  0.00     0.231 C 
HETATM   20  H   UNL     1     -40.952 -43.815  12.313  1.00  0.00     0.162 HD
HETATM   21  C   UNL     1     -39.210 -46.554  13.245  1.00  0.00     0.200 C 
HETATM   22  O   UNL     1     -39.090 -44.173  13.741  1.00  0.00    -0.272 OA
HETATM   23  C   UNL     1     -43.052 -46.265   9.718  1.00  0.00     0.002 C 
HETATM   24  C   UNL     1     -42.892 -47.739  10.058  1.00  0.00     0.002 C 
ENDBRANCH   2  13
BRANCH   3  25
HETATM   25  C   UNL     1     -39.090 -52.500  15.217  1.00  0.00     0.169 C 
BRANCH  25  26
HETATM   26  C   UNL     1     -39.442 -53.840  14.531  1.00  0.00     0.078 C 
HETATM   27  C   UNL     1     -40.840 -53.724  13.891  1.00  0.00     0.066 C 
HETATM   28  C   UNL     1     -41.951 -53.882  14.918  1.00  0.00     0.170 C 
HETATM   29  O   UNL     1     -41.832 -55.145  15.561  1.00  0.00    -0.391 OA
HETATM   30  C   UNL     1     -40.630 -55.253  16.318  1.00  0.00     0.170 C 
HETATM   31  C   UNL     1     -39.396 -55.085  15.435  1.00  0.00     0.066 C 
BRANCH  26  32
HETATM   32  O   UNL     1     -38.518 -54.020  13.441  1.00  0.00    -0.388 OA
HETATM   33  H   UNL     1     -37.927 -53.247  13.399  1.00  0.00     0.210 HD
ENDBRANCH  26  32
ENDBRANCH  25  26
ENDBRANCH   3  25
TORSDOF 4
ENDMDL
MODEL 7
REMARK VINA RESULT:      -6.8      2.410      7.876
REMARK  4 active torsions:
REMARK  status: ('A' for Active; 'I' for Inactive)
REMARK    1  A    between atoms: N_2  and  C_3 
REMARK    2  A    between atoms: N_4  and  C_18 
REMARK    3  A    between atoms: C_18  and  C_20 
REMARK    4  A    between atoms: C_20  and  O_25 
ROOT
HETATM    1  C   UNL     1     -42.495 -49.000  12.290  1.00  0.00     0.117 A 
HETATM    2  C   UNL     1     -42.723 -49.940  13.320  1.00  0.00     0.115 A 
HETATM    3  N   UNL     1     -42.162 -46.986  11.503  1.00  0.00    -0.324 N 
HETATM    4  C   UNL     1     -42.500 -47.661  12.641  1.00  0.00     0.140 A 
HETATM    5  N   UNL     1     -42.197 -49.132  10.938  1.00  0.00    -0.346 N 
ATOM      6  HN  UNL     1     -42.151 -49.995  10.397  1.00  0.00     0.167 HD
HETATM    7  C   UNL     1     -41.989 -47.909  10.506  1.00  0.00     0.185 A 
HETATM    8  N   UNL     1     -42.999 -49.442  14.559  1.00  0.00    -0.341 N 
ATOM      9  HN  UNL     1     -43.215 -50.072  15.331  1.00  0.00     0.167 HD
HETATM   10  N   UNL     1     -42.735 -47.136  13.851  1.00  0.00    -0.336 N 
ATOM     11  HN  UNL     1     -42.728 -46.139  14.062  1.00  0.00     0.168 HD
HETATM   12  C   UNL     1     -42.982 -48.106  14.751  1.00  0.00     0.183 A 
ENDROOT
BRANCH   2  13
HETATM   13  N   UNL     1     -42.568 -51.317  13.123  1.00  0.00    -0.252 NA
HETATM   14  C   UNL     1     -41.579 -52.015  13.972  1.00  0.00     0.088 C 
HETATM   15  C   UNL     1     -41.415 -53.442  13.366  1.00  0.00     0.102 C 
HETATM   16  C   UNL     1     -40.198 -51.327  13.990  1.00  0.00     0.022 C 
HETATM   17  N   UNL     1     -42.685 -54.149  13.286  1.00  0.00    -0.354 N 
HETATM   18  C   UNL     1     -40.377 -54.267  14.128  1.00  0.00     0.027 C 
HETATM   19  C   UNL     1     -43.821 -53.491  12.872  1.00  0.00     0.231 C 
HETATM   20  H   UNL     1     -42.681 -55.120  12.995  1.00  0.00     0.162 HD
HETATM   21  C   UNL     1     -43.898 -51.972  13.118  1.00  0.00     0.200 C 
HETATM   22  O   UNL     1     -44.765 -54.140  12.423  1.00  0.00    -0.272 OA
HETATM   23  C   UNL     1     -39.029 -53.553  14.161  1.00  0.00     0.002 C 
HETATM   24  C   UNL     1     -39.161 -52.154  14.745  1.00  0.00     0.002 C 
ENDBRANCH   2  13
BRANCH   3  25
HETATM   25  C   UNL     1     -41.865 -45.570  11.420  1.00  0.00     0.169 C 
BRANCH  25  26
HETATM   26  C   UNL     1     -40.366 -45.212  11.293  1.00  0.00     0.078 C 
HETATM   27  C   UNL     1     -39.611 -45.771  12.516  1.00  0.00     0.066 C 
HETATM   28  C   UNL     1     -39.786 -44.890  13.744  1.00  0.00     0.170 C 
HETATM   29  O   UNL     1     -39.317 -43.577  13.462  1.00  0.00    -0.391 OA
HETATM   30  C   UNL     1     -40.089 -42.935  12.450  1.00  0.00     0.170 C 
HETATM   31  C   UNL     1     -40.050 -43.713  11.138  1.00  0.00     0.066 C 
BRANCH  26  32
HETATM   32  O   UNL     1     -39.851 -45.918  10.148  1.00  0.00    -0.388 OA
HETATM   33  H   UNL     1     -39.243 -45.332   9.664  1.00  0.00     0.210 HD
ENDBRANCH  26  32
ENDBRANCH  25  26
ENDBRANCH   3  25
TORSDOF 4
ENDMDL
MODEL 8
REMARK VINA RESULT:      -6.7      2.168      7.958
REMARK  4 active torsions:
REMARK  status: ('A' for Active; 'I' for Inactive)
REMARK    1  A    between atoms: N_2  and  C_3 
REMARK    2  A    between atoms: N_4  and  C_18 
REMARK    3  A    between atoms: C_18  and  C_20 
REMARK    4  A    between atoms: C_20  and  O_25 
ROOT
HETATM    1  C   UNL     1     -40.675 -49.812  12.966  1.00  0.00     0.117 A 
HETATM    2  C   UNL     1     -40.244 -51.105  12.589  1.00  0.00     0.115 A 
HETATM    3  N   UNL     1     -40.636 -47.627  12.892  1.00  0.00    -0.324 N 
HETATM    4  C   UNL     1     -39.964 -48.736  12.463  1.00  0.00     0.140 A 
HETATM    5  N   UNL     1     -41.745 -49.357  13.728  1.00  0.00    -0.346 N 
ATOM      6  HN  UNL     1     -42.422 -49.921  14.242  1.00  0.00     0.167 HD
HETATM    7  C   UNL     1     -41.698 -48.047  13.647  1.00  0.00     0.185 A 
HETATM    8  N   UNL     1     -39.122 -51.180  11.819  1.00  0.00    -0.341 N 
ATOM      9  HN  UNL     1     -38.740 -52.087  11.553  1.00  0.00     0.167 HD
HETATM   10  N   UNL     1     -38.878 -48.770  11.680  1.00  0.00    -0.336 N 
ATOM     11  HN  UNL     1     -38.387 -47.947  11.334  1.00  0.00     0.168 HD
HETATM   12  C   UNL     1     -38.523 -50.040  11.412  1.00  0.00     0.183 A 
ENDROOT
BRANCH   2  13
HETATM   13  N   UNL     1     -40.983 -52.256  12.888  1.00  0.00    -0.252 NA
HETATM   14  C   UNL     1     -40.860 -52.803  14.256  1.00  0.00     0.088 C 
HETATM   15  C   UNL     1     -41.549 -54.201  14.229  1.00  0.00     0.102 C 
HETATM   16  C   UNL     1     -39.397 -52.984  14.710  1.00  0.00     0.022 C 
HETATM   17  N   UNL     1     -42.930 -54.119  13.779  1.00  0.00    -0.354 N 
HETATM   18  C   UNL     1     -41.455 -54.906  15.583  1.00  0.00     0.027 C 
HETATM   19  C   UNL     1     -43.269 -53.307  12.720  1.00  0.00     0.231 C 
HETATM   20  H   UNL     1     -43.501 -54.956  13.814  1.00  0.00     0.162 HD
HETATM   21  C   UNL     1     -42.390 -52.069  12.458  1.00  0.00     0.200 C 
HETATM   22  O   UNL     1     -44.304 -53.532  12.094  1.00  0.00    -0.272 OA
HETATM   23  C   UNL     1     -40.002 -55.046  16.026  1.00  0.00     0.002 C 
HETATM   24  C   UNL     1     -39.304 -53.694  16.058  1.00  0.00     0.002 C 
ENDBRANCH   2  13
BRANCH   3  25
HETATM   25  C   UNL     1     -40.371 -46.267  12.468  1.00  0.00     0.169 C 
BRANCH  25  26
HETATM   26  C   UNL     1     -40.944 -45.877  11.085  1.00  0.00     0.078 C 
HETATM   27  C   UNL     1     -40.017 -44.830  10.436  1.00  0.00     0.066 C 
HETATM   28  C   UNL     1     -40.250 -43.436  10.999  1.00  0.00     0.170 C 
HETATM   29  O   UNL     1     -41.606 -43.057  10.792  1.00  0.00    -0.391 OA
HETATM   30  C   UNL     1     -42.513 -43.888  11.511  1.00  0.00     0.170 C 
HETATM   31  C   UNL     1     -42.390 -45.349  11.087  1.00  0.00     0.066 C 
BRANCH  26  32
HETATM   32  O   UNL     1     -40.875 -47.046  10.247  1.00  0.00    -0.388 OA
HETATM   33  H   UNL     1     -40.055 -47.531  10.451  1.00  0.00     0.210 HD
ENDBRANCH  26  32
ENDBRANCH  25  26
ENDBRANCH   3  25
TORSDOF 4
ENDMDL
MODEL 9
REMARK VINA RESULT:      -6.6      2.478      8.143
REMARK  4 active torsions:
REMARK  status: ('A' for Active; 'I' for Inactive)
REMARK    1  A    between atoms: N_2  and  C_3 
REMARK    2  A    between atoms: N_4  and  C_18 
REMARK    3  A    between atoms: C_18  and  C_20 
REMARK    4  A    between atoms: C_20  and  O_25 
ROOT
HETATM    1  C   UNL     1     -41.596 -48.526  13.348  1.00  0.00     0.117 A 
HETATM    2  C   UNL     1     -42.070 -49.635  12.611  1.00  0.00     0.115 A 
HETATM    3  N   UNL     1     -41.350 -46.389  13.746  1.00  0.00    -0.324 N 
HETATM    4  C   UNL     1     -41.805 -47.270  12.806  1.00  0.00     0.140 A 
HETATM    5  N   UNL     1     -40.982 -48.409  14.589  1.00  0.00    -0.346 N 
ATOM      6  HN  UNL     1     -40.684 -49.165  15.205  1.00  0.00     0.167 HD
HETATM    7  C   UNL     1     -40.866 -47.118  14.800  1.00  0.00     0.185 A 
HETATM    8  N   UNL     1     -42.629 -49.374  11.395  1.00  0.00    -0.341 N 
ATOM      9  HN  UNL     1     -42.949 -50.138  10.800  1.00  0.00     0.167 HD
HETATM   10  N   UNL     1     -42.377 -46.973  11.631  1.00  0.00    -0.336 N 
ATOM     11  HN  UNL     1     -42.508 -46.027  11.272  1.00  0.00     0.168 HD
HETATM   12  C   UNL     1     -42.754 -48.093  10.989  1.00  0.00     0.183 A 
ENDROOT
BRANCH   2  13
HETATM   13  N   UNL     1     -42.077 -50.934  13.135  1.00  0.00    -0.252 NA
HETATM   14  C   UNL     1     -43.361 -51.667  13.112  1.00  0.00     0.088 C 
HETATM   15  C   UNL     1     -43.150 -52.940  13.985  1.00  0.00     0.102 C 
HETATM   16  C   UNL     1     -44.535 -50.856  13.697  1.00  0.00     0.022 C 
HETATM   17  N   UNL     1     -42.034 -53.747  13.513  1.00  0.00    -0.354 N 
HETATM   18  C   UNL     1     -44.426 -53.777  14.085  1.00  0.00     0.027 C 
HETATM   19  C   UNL     1     -40.864 -53.144  13.110  1.00  0.00     0.231 C 
HETATM   20  H   UNL     1     -41.868 -54.646  13.951  1.00  0.00     0.162 HD
HETATM   21  C   UNL     1     -40.951 -51.708  12.559  1.00  0.00     0.200 C 
HETATM   22  O   UNL     1     -39.820 -53.796  13.103  1.00  0.00    -0.272 OA
HETATM   23  C   UNL     1     -45.582 -52.948  14.636  1.00  0.00     0.002 C 
HETATM   24  C   UNL     1     -45.806 -51.695  13.803  1.00  0.00     0.002 C 
ENDBRANCH   2  13
BRANCH   3  25
HETATM   25  C   UNL     1     -41.520 -44.951  13.705  1.00  0.00     0.169 C 
BRANCH  25  26
HETATM   26  C   UNL     1     -40.278 -44.147  13.257  1.00  0.00     0.078 C 
HETATM   27  C   UNL     1     -40.735 -42.769  12.735  1.00  0.00     0.066 C 
HETATM   28  C   UNL     1     -41.277 -42.848  11.316  1.00  0.00     0.170 C 
HETATM   29  O   UNL     1     -40.277 -43.371  10.450  1.00  0.00    -0.391 OA
HETATM   30  C   UNL     1     -39.931 -44.715  10.775  1.00  0.00     0.170 C 
HETATM   31  C   UNL     1     -39.390 -44.825  12.198  1.00  0.00     0.066 C 
BRANCH  26  32
HETATM   32  O   UNL     1     -39.488 -43.887  14.432  1.00  0.00    -0.388 OA
HETATM   33  H   UNL     1     -38.800 -43.233  14.211  1.00  0.00     0.210 HD
ENDBRANCH  26  32
ENDBRANCH  25  26
ENDBRANCH   3  25
TORSDOF 4
ENDMDL
