MODEL 1
REMARK VINA RESULT:      -6.5      0.000      0.000
REMARK  4 active torsions:
REMARK  status: ('A' for Active; 'I' for Inactive)
REMARK    1  A    between atoms: C_8  and  N_9 
REMARK       I    between atoms: N_9  and  C_10 
REMARK       I    between atoms: C_10  and  N_12 
REMARK    2  A    between atoms: N_12  and  C_13 
REMARK    3  A    between atoms: C_13  and  C_14 
REMARK    4  A    between atoms: C_14  and  N_19 
ROOT
HETATM    1  N   UNL     1     -41.063 -48.236  10.565  1.00  0.00    -0.294 N 
HETATM    2  C   UNL     1     -40.749 -49.356  11.260  1.00  0.00     0.321 C 
HETATM    3  O   UNL     1     -39.625 -49.447  11.755  1.00  0.00    -0.247 OA
HETATM    4  N   UNL     1     -41.688 -50.359  11.328  1.00  0.00    -0.340 N 
HETATM    5  H   UNL     1     -40.276 -47.620  10.457  1.00  0.00     0.172 HD
HETATM    6  H   UNL     1     -42.642 -50.016  11.216  1.00  0.00     0.164 HD
ENDROOT
BRANCH   4   7
HETATM    7  C   UNL     1     -41.381 -51.451  12.204  1.00  0.00     0.167 C 
BRANCH   7   8
HETATM    8  C   UNL     1     -42.395 -52.059  13.209  1.00  0.00     0.184 C 
HETATM    9  C   UNL     1     -43.343 -53.115  12.557  1.00  0.00     0.054 C 
HETATM   10  C   UNL     1     -44.690 -53.202  13.286  1.00  0.00     0.076 C 
HETATM   11  S   UNL     1     -44.841 -51.744  14.331  1.00  0.00    -0.166 SA
HETATM   12  C   UNL     1     -43.395 -50.933  13.614  1.00  0.00     0.117 C 
BRANCH   8  13
HETATM   13  N   UNL     1     -41.649 -52.604  14.413  1.00  0.00     0.104 N 
HETATM   14  C   UNL     1     -40.457 -51.827  14.853  1.00  0.00     0.299 C 
HETATM   15  C   UNL     1     -39.119 -52.168  14.155  1.00  0.00     0.198 C 
HETATM   16  O   UNL     1     -38.812 -53.560  14.264  1.00  0.00    -0.388 OA
HETATM   17  C   UNL     1     -39.869 -54.367  13.740  1.00  0.00     0.198 C 
HETATM   18  C   UNL     1     -41.233 -54.033  14.387  1.00  0.00     0.299 C 
ENDBRANCH   8  13
ENDBRANCH   7   8
ENDBRANCH   4   7
BRANCH   1  19
HETATM   19  C   UNL     1     -42.280 -47.902   9.989  1.00  0.00     0.114 A 
HETATM   20  C   UNL     1     -43.290 -47.352  10.795  1.00  0.00    -0.018 A 
HETATM   21  C   UNL     1     -43.124 -47.095  12.264  1.00  0.00     0.052 C 
HETATM   22  C   UNL     1     -44.477 -46.977  10.158  1.00  0.00     0.012 A 
HETATM   23  C   UNL     1     -44.636 -47.187   8.791  1.00  0.00     0.018 A 
HETATM   24  C   UNL     1     -43.600 -47.772   8.092  1.00  0.00     0.089 A 
HETATM   25  N   UNL     1     -42.437 -48.126   8.663  1.00  0.00    -0.352 N 
ATOM     26  HN  UNL     1     -41.692 -48.553   8.112  1.00  0.00     0.166 HD
ENDBRANCH   1  19
TORSDOF 4
ENDMDL
MODEL 2
REMARK VINA RESULT:      -6.4      2.222      3.364
REMARK  4 active torsions:
REMARK  status: ('A' for Active; 'I' for Inactive)
REMARK    1  A    between atoms: C_8  and  N_9 
REMARK       I    between atoms: N_9  and  C_10 
REMARK       I    between atoms: C_10  and  N_12 
REMARK    2  A    between atoms: N_12  and  C_13 
REMARK    3  A    between atoms: C_13  and  C_14 
REMARK    4  A    between atoms: C_14  and  N_19 
ROOT
HETATM    1  N   UNL     1     -40.921 -48.669  10.548  1.00  0.00    -0.294 N 
HETATM    2  C   UNL     1     -41.061 -49.728  11.382  1.00  0.00     0.321 C 
HETATM    3  O   UNL     1     -40.050 -50.332  11.741  1.00  0.00    -0.247 OA
HETATM    4  N   UNL     1     -42.334 -50.104  11.741  1.00  0.00    -0.340 N 
HETATM    5  H   UNL     1     -39.973 -48.549  10.236  1.00  0.00     0.172 HD
HETATM    6  H   UNL     1     -43.003 -49.336  11.691  1.00  0.00     0.164 HD
ENDROOT
BRANCH   4   7
HETATM    7  C   UNL     1     -42.430 -51.120  12.748  1.00  0.00     0.167 C 
BRANCH   7   8
HETATM    8  C   UNL     1     -42.969 -50.862  14.180  1.00  0.00     0.184 C 
HETATM    9  C   UNL     1     -43.396 -49.379  14.414  1.00  0.00     0.054 C 
HETATM   10  C   UNL     1     -43.276 -48.974  15.889  1.00  0.00     0.076 C 
HETATM   11  S   UNL     1     -42.264 -50.214  16.714  1.00  0.00    -0.166 SA
HETATM   12  C   UNL     1     -41.776 -51.016  15.171  1.00  0.00     0.117 C 
BRANCH   8  13
HETATM   13  N   UNL     1     -44.082 -51.847  14.487  1.00  0.00     0.104 N 
HETATM   14  C   UNL     1     -43.923 -53.214  13.915  1.00  0.00     0.299 C 
HETATM   15  C   UNL     1     -44.447 -53.420  12.473  1.00  0.00     0.198 C 
HETATM   16  O   UNL     1     -45.820 -53.041  12.357  1.00  0.00    -0.388 OA
HETATM   17  C   UNL     1     -46.024 -51.690  12.774  1.00  0.00     0.198 C 
HETATM   18  C   UNL     1     -45.481 -51.432  14.199  1.00  0.00     0.299 C 
ENDBRANCH   8  13
ENDBRANCH   7   8
ENDBRANCH   4   7
BRANCH   1  19
HETATM   19  C   UNL     1     -41.909 -47.816  10.079  1.00  0.00     0.114 A 
HETATM   20  C   UNL     1     -42.118 -46.589  10.729  1.00  0.00    -0.018 A 
HETATM   21  C   UNL     1     -41.318 -46.138  11.916  1.00  0.00     0.052 C 
HETATM   22  C   UNL     1     -43.085 -45.738  10.185  1.00  0.00     0.012 A 
HETATM   23  C   UNL     1     -43.819 -46.133   9.069  1.00  0.00     0.018 A 
HETATM   24  C   UNL     1     -43.569 -47.375   8.525  1.00  0.00     0.089 A 
HETATM   25  N   UNL     1     -42.634 -48.213   9.006  1.00  0.00    -0.352 N 
ATOM     26  HN  UNL     1     -42.475 -49.123   8.574  1.00  0.00     0.166 HD
ENDBRANCH   1  19
TORSDOF 4
ENDMDL
MODEL 3
REMARK VINA RESULT:      -6.3      2.617      4.277
REMARK  4 active torsions:
REMARK  status: ('A' for Active; 'I' for Inactive)
REMARK    1  A    between atoms: C_8  and  N_9 
REMARK       I    between atoms: N_9  and  C_10 
REMARK       I    between atoms: C_10  and  N_12 
REMARK    2  A    between atoms: N_12  and  C_13 
REMARK    3  A    between atoms: C_13  and  C_14 
REMARK    4  A    between atoms: C_14  and  N_19 
ROOT
HETATM    1  N   UNL     1     -40.391 -50.898  11.435  1.00  0.00    -0.294 N 
HETATM    2  C   UNL     1     -41.147 -51.968  11.781  1.00  0.00     0.321 C 
HETATM    3  O   UNL     1     -40.630 -53.085  11.759  1.00  0.00    -0.247 OA
HETATM    4  N   UNL     1     -42.470 -51.753  12.086  1.00  0.00    -0.340 N 
HETATM    5  H   UNL     1     -39.481 -51.163  11.102  1.00  0.00     0.172 HD
HETATM    6  H   UNL     1     -42.652 -50.807  12.419  1.00  0.00     0.164 HD
ENDROOT
BRANCH   4   7
HETATM    7  C   UNL     1     -43.189 -52.881  12.602  1.00  0.00     0.167 C 
BRANCH   7   8
HETATM    8  C   UNL     1     -43.282 -53.223  14.113  1.00  0.00     0.184 C 
HETATM    9  C   UNL     1     -42.540 -52.191  15.020  1.00  0.00     0.054 C 
HETATM   10  C   UNL     1     -42.057 -52.825  16.330  1.00  0.00     0.076 C 
HETATM   11  S   UNL     1     -42.128 -54.613  16.132  1.00  0.00    -0.166 SA
HETATM   12  C   UNL     1     -42.457 -54.522  14.358  1.00  0.00     0.117 C 
BRANCH   8  13
HETATM   13  N   UNL     1     -44.739 -53.403  14.501  1.00  0.00     0.104 N 
HETATM   14  C   UNL     1     -45.720 -53.410  13.380  1.00  0.00     0.299 C 
HETATM   15  C   UNL     1     -46.249 -52.030  12.921  1.00  0.00     0.198 C 
HETATM   16  O   UNL     1     -46.817 -51.300  14.011  1.00  0.00    -0.388 OA
HETATM   17  C   UNL     1     -45.880 -51.146  15.078  1.00  0.00     0.198 C 
HETATM   18  C   UNL     1     -45.300 -52.502  15.544  1.00  0.00     0.299 C 
ENDBRANCH   8  13
ENDBRANCH   7   8
ENDBRANCH   4   7
BRANCH   1  19
HETATM   19  C   UNL     1     -40.750 -49.558  11.454  1.00  0.00     0.114 A 
HETATM   20  C   UNL     1     -40.479 -48.794  12.601  1.00  0.00    -0.018 A 
HETATM   21  C   UNL     1     -39.808 -49.350  13.823  1.00  0.00     0.052 C 
HETATM   22  C   UNL     1     -40.806 -47.435  12.551  1.00  0.00     0.012 A 
HETATM   23  C   UNL     1     -41.407 -46.900  11.416  1.00  0.00     0.018 A 
HETATM   24  C   UNL     1     -41.670 -47.740  10.354  1.00  0.00     0.089 A 
HETATM   25  N   UNL     1     -41.352 -49.046  10.355  1.00  0.00    -0.352 N 
ATOM     26  HN  UNL     1     -41.560 -49.636   9.548  1.00  0.00     0.166 HD
ENDBRANCH   1  19
TORSDOF 4
ENDMDL
MODEL 4
REMARK VINA RESULT:      -6.2      2.499      4.096
REMARK  4 active torsions:
REMARK  status: ('A' for Active; 'I' for Inactive)
REMARK    1  A    between atoms: C_8  and  N_9 
REMARK       I    between atoms: N_9  and  C_10 
REMARK       I    between atoms: C_10  and  N_12 
REMARK    2  A    between atoms: N_12  and  C_13 
REMARK    3  A    between atoms: C_13  and  C_14 
REMARK    4  A    between atoms: C_14  and  N_19 
ROOT
HETATM    1  N   UNL     1     -40.637 -50.787  11.153  1.00  0.00    -0.294 N 
HETATM    2  C   UNL     1     -41.138 -51.635  12.085  1.00  0.00     0.321 C 
HETATM    3  O   UNL     1     -40.880 -52.835  11.987  1.00  0.00    -0.247 OA
HETATM    4  N   UNL     1     -41.955 -51.114  13.060  1.00  0.00    -0.340 N 
HETATM    5  H   UNL     1     -40.164 -51.271  10.410  1.00  0.00     0.172 HD
HETATM    6  H   UNL     1     -41.780 -50.125  13.237  1.00  0.00     0.164 HD
ENDROOT
BRANCH   4   7
HETATM    7  C   UNL     1     -42.329 -52.011  14.114  1.00  0.00     0.167 C 
BRANCH   7   8
HETATM    8  C   UNL     1     -43.417 -51.689  15.171  1.00  0.00     0.184 C 
HETATM    9  C   UNL     1     -43.787 -50.173  15.226  1.00  0.00     0.054 C 
HETATM   10  C   UNL     1     -44.292 -49.756  16.613  1.00  0.00     0.076 C 
HETATM   11  S   UNL     1     -43.844 -51.059  17.772  1.00  0.00    -0.166 SA
HETATM   12  C   UNL     1     -42.794 -51.921  16.581  1.00  0.00     0.117 C 
BRANCH   8  13
HETATM   13  N   UNL     1     -44.625 -52.578  14.940  1.00  0.00     0.104 N 
HETATM   14  C   UNL     1     -44.375 -53.844  14.195  1.00  0.00     0.299 C 
HETATM   15  C   UNL     1     -44.430 -53.754  12.651  1.00  0.00     0.198 C 
HETATM   16  O   UNL     1     -45.673 -53.209  12.204  1.00  0.00    -0.388 OA
HETATM   17  C   UNL     1     -45.918 -51.928  12.787  1.00  0.00     0.198 C 
HETATM   18  C   UNL     1     -45.837 -51.966  14.331  1.00  0.00     0.299 C 
ENDBRANCH   8  13
ENDBRANCH   7   8
ENDBRANCH   4   7
BRANCH   1  19
HETATM   19  C   UNL     1     -40.747 -49.405  11.111  1.00  0.00     0.114 A 
HETATM   20  C   UNL     1     -39.722 -48.620  11.662  1.00  0.00    -0.018 A 
HETATM   21  C   UNL     1     -38.492 -49.199  12.299  1.00  0.00     0.052 C 
HETATM   22  C   UNL     1     -39.850 -47.232  11.543  1.00  0.00     0.012 A 
HETATM   23  C   UNL     1     -40.974 -46.682  10.933  1.00  0.00     0.018 A 
HETATM   24  C   UNL     1     -41.948 -47.536  10.458  1.00  0.00     0.089 A 
HETATM   25  N   UNL     1     -41.851 -48.874  10.535  1.00  0.00    -0.352 N 
ATOM     26  HN  UNL     1     -42.591 -49.473  10.168  1.00  0.00     0.166 HD
ENDBRANCH   1  19
TORSDOF 4
ENDMDL
MODEL 5
REMARK VINA RESULT:      -6.2      1.795      2.590
REMARK  4 active torsions:
REMARK  status: ('A' for Active; 'I' for Inactive)
REMARK    1  A    between atoms: C_8  and  N_9 
REMARK       I    between atoms: N_9  and  C_10 
REMARK       I    between atoms: C_10  and  N_12 
REMARK    2  A    between atoms: N_12  and  C_13 
REMARK    3  A    between atoms: C_13  and  C_14 
REMARK    4  A    between atoms: C_14  and  N_19 
ROOT
HETATM    1  N   UNL     1     -40.416 -50.698  11.393  1.00  0.00    -0.294 N 
HETATM    2  C   UNL     1     -41.079 -51.814  11.782  1.00  0.00     0.321 C 
HETATM    3  O   UNL     1     -40.469 -52.883  11.807  1.00  0.00    -0.247 OA
HETATM    4  N   UNL     1     -42.418 -51.700  12.075  1.00  0.00    -0.340 N 
HETATM    5  H   UNL     1     -39.484 -50.898  11.073  1.00  0.00     0.172 HD
HETATM    6  H   UNL     1     -42.681 -50.760  12.369  1.00  0.00     0.164 HD
ENDROOT
BRANCH   4   7
HETATM    7  C   UNL     1     -43.040 -52.863  12.637  1.00  0.00     0.167 C 
BRANCH   7   8
HETATM    8  C   UNL     1     -44.132 -52.807  13.737  1.00  0.00     0.184 C 
HETATM    9  C   UNL     1     -45.431 -53.582  13.349  1.00  0.00     0.054 C 
HETATM   10  C   UNL     1     -46.671 -53.005  14.044  1.00  0.00     0.076 C 
HETATM   11  S   UNL     1     -46.233 -51.381  14.684  1.00  0.00    -0.166 SA
HETATM   12  C   UNL     1     -44.646 -51.338  13.822  1.00  0.00     0.117 C 
BRANCH   8  13
HETATM   13  N   UNL     1     -43.545 -53.272  15.057  1.00  0.00     0.104 N 
HETATM   14  C   UNL     1     -42.775 -52.254  15.826  1.00  0.00     0.299 C 
HETATM   15  C   UNL     1     -41.276 -52.112  15.469  1.00  0.00     0.198 C 
HETATM   16  O   UNL     1     -40.594 -53.364  15.573  1.00  0.00    -0.388 OA
HETATM   17  C   UNL     1     -41.210 -54.361  14.756  1.00  0.00     0.198 C 
HETATM   18  C   UNL     1     -42.719 -54.509  15.057  1.00  0.00     0.299 C 
ENDBRANCH   8  13
ENDBRANCH   7   8
ENDBRANCH   4   7
BRANCH   1  19
HETATM   19  C   UNL     1     -40.887 -49.394  11.357  1.00  0.00     0.114 A 
HETATM   20  C   UNL     1     -40.641 -48.547  12.449  1.00  0.00    -0.018 A 
HETATM   21  C   UNL     1     -39.881 -48.976  13.670  1.00  0.00     0.052 C 
HETATM   22  C   UNL     1     -41.085 -47.225  12.341  1.00  0.00     0.012 A 
HETATM   23  C   UNL     1     -41.771 -46.807  11.204  1.00  0.00     0.018 A 
HETATM   24  C   UNL     1     -42.000 -47.725  10.200  1.00  0.00     0.089 A 
HETATM   25  N   UNL     1     -41.571 -48.997  10.257  1.00  0.00    -0.352 N 
ATOM     26  HN  UNL     1     -41.756 -49.647   9.492  1.00  0.00     0.166 HD
ENDBRANCH   1  19
TORSDOF 4
ENDMDL
MODEL 6
REMARK VINA RESULT:      -6.1      2.689      5.941
REMARK  4 active torsions:
REMARK  status: ('A' for Active; 'I' for Inactive)
REMARK    1  A    between atoms: C_8  and  N_9 
REMARK       I    between atoms: N_9  and  C_10 
REMARK       I    between atoms: C_10  and  N_12 
REMARK    2  A    between atoms: N_12  and  C_13 
REMARK    3  A    between atoms: C_13  and  C_14 
REMARK    4  A    between atoms: C_14  and  N_19 
ROOT
HETATM    1  N   UNL     1     -43.104 -52.931  12.665  1.00  0.00    -0.294 N 
HETATM    2  C   UNL     1     -42.054 -52.197  12.225  1.00  0.00     0.321 C 
HETATM    3  O   UNL     1     -41.041 -52.786  11.848  1.00  0.00    -0.247 OA
HETATM    4  N   UNL     1     -42.158 -50.827  12.274  1.00  0.00    -0.340 N 
HETATM    5  H   UNL     1     -42.891 -53.912  12.716  1.00  0.00     0.172 HD
HETATM    6  H   UNL     1     -43.123 -50.501  12.242  1.00  0.00     0.164 HD
ENDROOT
BRANCH   4   7
HETATM    7  C   UNL     1     -41.096 -50.092  11.651  1.00  0.00     0.167 C 
BRANCH   7   8
HETATM    8  C   UNL     1     -40.150 -49.131  12.417  1.00  0.00     0.184 C 
HETATM    9  C   UNL     1     -38.640 -49.413  12.142  1.00  0.00     0.054 C 
HETATM   10  C   UNL     1     -37.754 -48.986  13.320  1.00  0.00     0.076 C 
HETATM   11  S   UNL     1     -38.823 -48.741  14.747  1.00  0.00    -0.166 SA
HETATM   12  C   UNL     1     -40.269 -49.459  13.936  1.00  0.00     0.117 C 
BRANCH   8  13
HETATM   13  N   UNL     1     -40.542 -47.694  12.122  1.00  0.00     0.104 N 
HETATM   14  C   UNL     1     -41.538 -47.084  13.046  1.00  0.00     0.299 C 
HETATM   15  C   UNL     1     -43.029 -47.321  12.703  1.00  0.00     0.198 C 
HETATM   16  O   UNL     1     -43.332 -46.897  11.373  1.00  0.00    -0.388 OA
HETATM   17  C   UNL     1     -42.490 -47.545  10.416  1.00  0.00     0.198 C 
HETATM   18  C   UNL     1     -40.990 -47.362  10.743  1.00  0.00     0.299 C 
ENDBRANCH   8  13
ENDBRANCH   7   8
ENDBRANCH   4   7
BRANCH   1  19
HETATM   19  C   UNL     1     -44.352 -52.479  13.067  1.00  0.00     0.114 A 
HETATM   20  C   UNL     1     -44.558 -52.149  14.417  1.00  0.00    -0.018 A 
HETATM   21  C   UNL     1     -43.488 -52.252  15.463  1.00  0.00     0.052 C 
HETATM   22  C   UNL     1     -45.815 -51.642  14.762  1.00  0.00     0.012 A 
HETATM   23  C   UNL     1     -46.810 -51.517  13.797  1.00  0.00     0.018 A 
HETATM   24  C   UNL     1     -46.525 -51.907  12.505  1.00  0.00     0.089 A 
HETATM   25  N   UNL     1     -45.324 -52.378  12.129  1.00  0.00    -0.352 N 
ATOM     26  HN  UNL     1     -45.149 -52.653  11.162  1.00  0.00     0.166 HD
ENDBRANCH   1  19
TORSDOF 4
ENDMDL
MODEL 7
REMARK VINA RESULT:      -6.1      2.892      5.348
REMARK  4 active torsions:
REMARK  status: ('A' for Active; 'I' for Inactive)
REMARK    1  A    between atoms: C_8  and  N_9 
REMARK       I    between atoms: N_9  and  C_10 
REMARK       I    between atoms: C_10  and  N_12 
REMARK    2  A    between atoms: N_12  and  C_13 
REMARK    3  A    between atoms: C_13  and  C_14 
REMARK    4  A    between atoms: C_14  and  N_19 
ROOT
HETATM    1  N   UNL     1     -43.097 -52.969  12.700  1.00  0.00    -0.294 N 
HETATM    2  C   UNL     1     -42.036 -52.249  12.263  1.00  0.00     0.321 C 
HETATM    3  O   UNL     1     -41.020 -52.850  11.912  1.00  0.00    -0.247 OA
HETATM    4  N   UNL     1     -42.131 -50.877  12.289  1.00  0.00    -0.340 N 
HETATM    5  H   UNL     1     -42.891 -53.950  12.770  1.00  0.00     0.172 HD
HETATM    6  H   UNL     1     -43.094 -50.546  12.236  1.00  0.00     0.164 HD
ENDROOT
BRANCH   4   7
HETATM    7  C   UNL     1     -41.056 -50.159  11.669  1.00  0.00     0.167 C 
BRANCH   7   8
HETATM    8  C   UNL     1     -40.812 -48.640  11.864  1.00  0.00     0.184 C 
HETATM    9  C   UNL     1     -41.674 -48.025  13.011  1.00  0.00     0.054 C 
HETATM   10  C   UNL     1     -41.955 -46.534  12.780  1.00  0.00     0.076 C 
HETATM   11  S   UNL     1     -41.571 -46.166  11.060  1.00  0.00    -0.166 SA
HETATM   12  C   UNL     1     -41.370 -47.904  10.609  1.00  0.00     0.117 C 
BRANCH   8  13
HETATM   13  N   UNL     1     -39.327 -48.386  12.047  1.00  0.00     0.104 N 
HETATM   14  C   UNL     1     -38.412 -49.445  11.536  1.00  0.00     0.299 C 
HETATM   15  C   UNL     1     -38.101 -50.610  12.506  1.00  0.00     0.198 C 
HETATM   16  O   UNL     1     -37.582 -50.131  13.748  1.00  0.00    -0.388 OA
HETATM   17  C   UNL     1     -38.476 -49.198  14.359  1.00  0.00     0.198 C 
HETATM   18  C   UNL     1     -38.841 -48.034  13.409  1.00  0.00     0.299 C 
ENDBRANCH   8  13
ENDBRANCH   7   8
ENDBRANCH   4   7
BRANCH   1  19
HETATM   19  C   UNL     1     -44.348 -52.502  13.075  1.00  0.00     0.114 A 
HETATM   20  C   UNL     1     -44.575 -52.155  14.417  1.00  0.00    -0.018 A 
HETATM   21  C   UNL     1     -43.524 -52.255  15.483  1.00  0.00     0.052 C 
HETATM   22  C   UNL     1     -45.834 -51.635  14.734  1.00  0.00     0.012 A 
HETATM   23  C   UNL     1     -46.811 -51.513  13.750  1.00  0.00     0.018 A 
HETATM   24  C   UNL     1     -46.506 -51.919  12.468  1.00  0.00     0.089 A 
HETATM   25  N   UNL     1     -45.302 -52.404  12.119  1.00  0.00    -0.352 N 
ATOM     26  HN  UNL     1     -45.112 -52.691  11.158  1.00  0.00     0.166 HD
ENDBRANCH   1  19
TORSDOF 4
ENDMDL
MODEL 8
REMARK VINA RESULT:      -5.8      3.840      5.612
REMARK  4 active torsions:
REMARK  status: ('A' for Active; 'I' for Inactive)
REMARK    1  A    between atoms: C_8  and  N_9 
REMARK       I    between atoms: N_9  and  C_10 
REMARK       I    between atoms: C_10  and  N_12 
REMARK    2  A    between atoms: N_12  and  C_13 
REMARK    3  A    between atoms: C_13  and  C_14 
REMARK    4  A    between atoms: C_14  and  N_19 
ROOT
HETATM    1  N   UNL     1     -42.470 -53.632  12.487  1.00  0.00    -0.294 N 
HETATM    2  C   UNL     1     -41.473 -52.728  12.645  1.00  0.00     0.321 C 
HETATM    3  O   UNL     1     -40.388 -52.948  12.105  1.00  0.00    -0.247 OA
HETATM    4  N   UNL     1     -41.710 -51.638  13.448  1.00  0.00    -0.340 N 
HETATM    5  H   UNL     1     -42.166 -54.455  11.996  1.00  0.00     0.172 HD
HETATM    6  H   UNL     1     -42.700 -51.399  13.510  1.00  0.00     0.164 HD
ENDROOT
BRANCH   4   7
HETATM    7  C   UNL     1     -40.692 -50.629  13.458  1.00  0.00     0.167 C 
BRANCH   7   8
HETATM    8  C   UNL     1     -39.864 -50.255  14.715  1.00  0.00     0.184 C 
HETATM    9  C   UNL     1     -39.647 -51.459  15.684  1.00  0.00     0.054 C 
HETATM   10  C   UNL     1     -39.460 -51.000  17.135  1.00  0.00     0.076 C 
HETATM   11  S   UNL     1     -40.011 -49.289  17.242  1.00  0.00    -0.166 SA
HETATM   12  C   UNL     1     -40.728 -49.291  15.584  1.00  0.00     0.117 C 
BRANCH   8  13
HETATM   13  N   UNL     1     -38.560 -49.605  14.287  1.00  0.00     0.104 N 
HETATM   14  C   UNL     1     -38.643 -48.671  13.129  1.00  0.00     0.299 C 
HETATM   15  C   UNL     1     -38.523 -49.308  11.723  1.00  0.00     0.198 C 
HETATM   16  O   UNL     1     -37.324 -50.074  11.597  1.00  0.00    -0.388 OA
HETATM   17  C   UNL     1     -37.240 -51.079  12.609  1.00  0.00     0.198 C 
HETATM   18  C   UNL     1     -37.391 -50.488  14.030  1.00  0.00     0.299 C 
ENDBRANCH   8  13
ENDBRANCH   7   8
ENDBRANCH   4   7
BRANCH   1  19
HETATM   19  C   UNL     1     -43.776 -53.551  12.947  1.00  0.00     0.114 A 
HETATM   20  C   UNL     1     -44.137 -54.253  14.108  1.00  0.00    -0.018 A 
HETATM   21  C   UNL     1     -43.175 -55.096  14.895  1.00  0.00     0.052 C 
HETATM   22  C   UNL     1     -45.449 -54.093  14.566  1.00  0.00     0.012 A 
HETATM   23  C   UNL     1     -46.345 -53.296  13.860  1.00  0.00     0.018 A 
HETATM   24  C   UNL     1     -45.907 -52.678  12.707  1.00  0.00     0.089 A 
HETATM   25  N   UNL     1     -44.650 -52.790  12.247  1.00  0.00    -0.352 N 
ATOM     26  HN  UNL     1     -44.361 -52.313  11.391  1.00  0.00     0.166 HD
ENDBRANCH   1  19
TORSDOF 4
ENDMDL
MODEL 9
REMARK VINA RESULT:      -5.7      3.848      5.604
REMARK  4 active torsions:
REMARK  status: ('A' for Active; 'I' for Inactive)
REMARK    1  A    between atoms: C_8  and  N_9 
REMARK       I    between atoms: N_9  and  C_10 
REMARK       I    between atoms: C_10  and  N_12 
REMARK    2  A    between atoms: N_12  and  C_13 
REMARK    3  A    between atoms: C_13  and  C_14 
REMARK    4  A    between atoms: C_14  and  N_19 
ROOT
HETATM    1  N   UNL     1     -43.628 -53.012  12.124  1.00  0.00    -0.294 N 
HETATM    2  C   UNL     1     -42.414 -52.527  12.479  1.00  0.00     0.321 C 
HETATM    3  O   UNL     1     -41.652 -52.140  11.593  1.00  0.00    -0.247 OA
HETATM    4  N   UNL     1     -42.076 -52.546  13.812  1.00  0.00    -0.340 N 
HETATM    5  H   UNL     1     -43.736 -53.082  11.127  1.00  0.00     0.172 HD
HETATM    6  H   UNL     1     -42.889 -52.530  14.427  1.00  0.00     0.164 HD
ENDROOT
BRANCH   4   7
HETATM    7  C   UNL     1     -40.856 -51.878  14.162  1.00  0.00     0.167 C 
BRANCH   7   8
HETATM    8  C   UNL     1     -39.634 -52.595  14.793  1.00  0.00     0.184 C 
HETATM    9  C   UNL     1     -39.437 -54.049  14.260  1.00  0.00     0.054 C 
HETATM   10  C   UNL     1     -38.733 -54.945  15.288  1.00  0.00     0.076 C 
HETATM   11  S   UNL     1     -38.805 -54.110  16.881  1.00  0.00    -0.166 SA
HETATM   12  C   UNL     1     -39.953 -52.842  16.298  1.00  0.00     0.117 C 
BRANCH   8  13
HETATM   13  N   UNL     1     -38.396 -51.734  14.617  1.00  0.00     0.104 N 
HETATM   14  C   UNL     1     -38.317 -50.518  15.474  1.00  0.00     0.299 C 
HETATM   15  C   UNL     1     -39.004 -49.244  14.925  1.00  0.00     0.198 C 
HETATM   16  O   UNL     1     -38.517 -48.909  13.623  1.00  0.00    -0.388 OA
HETATM   17  C   UNL     1     -38.679 -49.997  12.711  1.00  0.00     0.198 C 
HETATM   18  C   UNL     1     -38.037 -51.300  13.240  1.00  0.00     0.299 C 
ENDBRANCH   8  13
ENDBRANCH   7   8
ENDBRANCH   4   7
BRANCH   1  19
HETATM   19  C   UNL     1     -44.655 -53.434  12.955  1.00  0.00     0.114 A 
HETATM   20  C   UNL     1     -45.597 -52.496  13.409  1.00  0.00    -0.018 A 
HETATM   21  C   UNL     1     -45.559 -51.043  13.036  1.00  0.00     0.052 C 
HETATM   22  C   UNL     1     -46.646 -52.980  14.197  1.00  0.00     0.012 A 
HETATM   23  C   UNL     1     -46.708 -54.330  14.530  1.00  0.00     0.018 A 
HETATM   24  C   UNL     1     -45.713 -55.167  14.069  1.00  0.00     0.089 A 
HETATM   25  N   UNL     1     -44.700 -54.744  13.293  1.00  0.00    -0.352 N 
ATOM     26  HN  UNL     1     -43.984 -55.394  12.968  1.00  0.00     0.166 HD
ENDBRANCH   1  19
TORSDOF 4
ENDMDL
