MODEL 1
REMARK VINA RESULT:      -6.0      0.000      0.000
REMARK  6 active torsions:
REMARK  status: ('A' for Active; 'I' for Inactive)
REMARK    1  A    between atoms: O_1  and  C_2 
REMARK    2  A    between atoms: C_2  and  C_4 
REMARK    3  A    between atoms: N_10  and  C_11 
REMARK    4  A    between atoms: C_11  and  C_12 
REMARK    5  A    between atoms: C_12  and  O_13 
REMARK    6  A    between atoms: O_13  and  C_14 
ROOT
HETATM    1  C   UNL     1     -41.950 -53.552  13.338  1.00  0.00     0.111 A 
HETATM    2  C   UNL     1     -41.049 -53.791  14.310  1.00  0.00     0.037 A 
HETATM    3  C   UNL     1     -41.406 -54.492  15.509  1.00  0.00     0.008 A 
HETATM    4  C   UNL     1     -42.648 -54.958  15.649  1.00  0.00     0.074 A 
HETATM    5  C   UNL     1     -43.645 -54.816  14.562  1.00  0.00     0.248 A 
HETATM    6  O   UNL     1     -44.718 -55.375  14.729  1.00  0.00    -0.268 OA
HETATM    7  N   UNL     1     -43.268 -54.064  13.431  1.00  0.00    -0.307 N 
ENDROOT
BRANCH   7   8
HETATM    8  C   UNL     1     -44.267 -53.781  12.383  1.00  0.00     0.159 C 
BRANCH   8   9
HETATM    9  C   UNL     1     -45.416 -52.774  12.601  1.00  0.00     0.196 C 
BRANCH   9  10
HETATM   10  O   UNL     1     -44.989 -51.549  13.182  1.00  0.00    -0.348 OA
BRANCH  10  11
HETATM   11  C   UNL     1     -45.338 -51.305  14.493  1.00  0.00     0.090 A 
HETATM   12  C   UNL     1     -46.720 -51.457  14.704  1.00  0.00     0.038 A 
HETATM   13  C   UNL     1     -47.295 -51.272  15.965  1.00  0.00     0.003 A 
HETATM   14  C   UNL     1     -46.498 -50.925  17.046  1.00  0.00     0.002 A 
HETATM   15  C   UNL     1     -45.127 -50.775  16.861  1.00  0.00     0.026 A 
HETATM   16  C   UNL     1     -44.537 -50.972  15.601  1.00  0.00     0.067 A 
HETATM   17 CL   UNL     1     -42.811 -50.827  15.600  1.00  0.00    -0.081 Cl
ENDBRANCH  10  11
ENDBRANCH   9  10
ENDBRANCH   8   9
ENDBRANCH   7   8
BRANCH   1  18
HETATM   18  C   UNL     1     -41.392 -52.674  12.253  1.00  0.00     0.193 C 
HETATM   19  O   UNL     1     -41.608 -51.470  12.193  1.00  0.00    -0.645 OA
BRANCH  18  20
HETATM   20  O   UNL     1     -40.590 -53.269  11.351  1.00  0.00    -0.772 OA
HETATM   21  H   UNL     1     -39.649 -53.061  11.472  1.00  0.00     0.167 HD
ENDBRANCH  18  20
ENDBRANCH   1  18
TORSDOF 6
ENDMDL
MODEL 2
REMARK VINA RESULT:      -5.6      2.890      4.348
REMARK  6 active torsions:
REMARK  status: ('A' for Active; 'I' for Inactive)
REMARK    1  A    between atoms: O_1  and  C_2 
REMARK    2  A    between atoms: C_2  and  C_4 
REMARK    3  A    between atoms: N_10  and  C_11 
REMARK    4  A    between atoms: C_11  and  C_12 
REMARK    5  A    between atoms: C_12  and  O_13 
REMARK    6  A    between atoms: O_13  and  C_14 
ROOT
HETATM    1  C   UNL     1     -39.230 -51.923  13.277  1.00  0.00     0.111 A 
HETATM    2  C   UNL     1     -38.082 -51.264  13.526  1.00  0.00     0.037 A 
HETATM    3  C   UNL     1     -37.737 -50.065  12.820  1.00  0.00     0.008 A 
HETATM    4  C   UNL     1     -38.592 -49.561  11.928  1.00  0.00     0.074 A 
HETATM    5  C   UNL     1     -39.914 -50.188  11.700  1.00  0.00     0.248 A 
HETATM    6  O   UNL     1     -40.678 -49.594  10.954  1.00  0.00    -0.268 OA
HETATM    7  N   UNL     1     -40.182 -51.400  12.367  1.00  0.00    -0.307 N 
ENDROOT
BRANCH   7   8
HETATM    8  C   UNL     1     -41.428 -52.132  12.070  1.00  0.00     0.159 C 
BRANCH   8   9
HETATM    9  C   UNL     1     -42.759 -51.799  12.775  1.00  0.00     0.196 C 
BRANCH   9  10
HETATM   10  O   UNL     1     -43.749 -52.807  12.616  1.00  0.00    -0.348 OA
BRANCH  10  11
HETATM   11  C   UNL     1     -44.846 -52.766  13.451  1.00  0.00     0.090 A 
HETATM   12  C   UNL     1     -45.226 -51.446  13.752  1.00  0.00     0.038 A 
HETATM   13  C   UNL     1     -46.322 -51.166  14.572  1.00  0.00     0.003 A 
HETATM   14  C   UNL     1     -47.064 -52.205  15.116  1.00  0.00     0.002 A 
HETATM   15  C   UNL     1     -46.709 -53.520  14.827  1.00  0.00     0.026 A 
HETATM   16  C   UNL     1     -45.617 -53.811  13.992  1.00  0.00     0.067 A 
HETATM   17 CL   UNL     1     -45.397 -55.501  13.685  1.00  0.00    -0.081 Cl
ENDBRANCH  10  11
ENDBRANCH   9  10
ENDBRANCH   8   9
ENDBRANCH   7   8
BRANCH   1  18
HETATM   18  C   UNL     1     -39.306 -53.227  14.020  1.00  0.00     0.193 C 
HETATM   19  O   UNL     1     -39.905 -53.356  15.081  1.00  0.00    -0.645 OA
BRANCH  18  20
HETATM   20  O   UNL     1     -38.712 -54.286  13.439  1.00  0.00    -0.772 OA
HETATM   21  H   UNL     1     -38.893 -54.358  12.487  1.00  0.00     0.167 HD
ENDBRANCH  18  20
ENDBRANCH   1  18
TORSDOF 6
ENDMDL
MODEL 3
REMARK VINA RESULT:      -5.6      1.806      4.920
REMARK  6 active torsions:
REMARK  status: ('A' for Active; 'I' for Inactive)
REMARK    1  A    between atoms: O_1  and  C_2 
REMARK    2  A    between atoms: C_2  and  C_4 
REMARK    3  A    between atoms: N_10  and  C_11 
REMARK    4  A    between atoms: C_11  and  C_12 
REMARK    5  A    between atoms: C_12  and  O_13 
REMARK    6  A    between atoms: O_13  and  C_14 
ROOT
HETATM    1  C   UNL     1     -45.921 -52.586  13.971  1.00  0.00     0.111 A 
HETATM    2  C   UNL     1     -46.570 -51.480  14.383  1.00  0.00     0.037 A 
HETATM    3  C   UNL     1     -47.070 -51.357  15.721  1.00  0.00     0.008 A 
HETATM    4  C   UNL     1     -46.850 -52.342  16.594  1.00  0.00     0.074 A 
HETATM    5  C   UNL     1     -46.047 -53.529  16.221  1.00  0.00     0.248 A 
HETATM    6  O   UNL     1     -45.797 -54.322  17.116  1.00  0.00    -0.268 OA
HETATM    7  N   UNL     1     -45.632 -53.636  14.878  1.00  0.00    -0.307 N 
ENDROOT
BRANCH   7   8
HETATM    8  C   UNL     1     -44.947 -54.862  14.426  1.00  0.00     0.159 C 
BRANCH   8   9
HETATM    9  C   UNL     1     -43.427 -55.060  14.600  1.00  0.00     0.196 C 
BRANCH   9  10
HETATM   10  O   UNL     1     -42.652 -54.318  13.668  1.00  0.00    -0.348 OA
BRANCH  10  11
HETATM   11  C   UNL     1     -41.565 -53.620  14.150  1.00  0.00     0.090 A 
HETATM   12  C   UNL     1     -40.349 -54.226  13.786  1.00  0.00     0.038 A 
HETATM   13  C   UNL     1     -39.117 -53.681  14.157  1.00  0.00     0.003 A 
HETATM   14  C   UNL     1     -39.072 -52.514  14.907  1.00  0.00     0.002 A 
HETATM   15  C   UNL     1     -40.263 -51.894  15.274  1.00  0.00     0.026 A 
HETATM   16  C   UNL     1     -41.507 -52.427  14.894  1.00  0.00     0.067 A 
HETATM   17 CL   UNL     1     -42.862 -51.460  15.371  1.00  0.00    -0.081 Cl
ENDBRANCH  10  11
ENDBRANCH   9  10
ENDBRANCH   8   9
ENDBRANCH   7   8
BRANCH   1  18
HETATM   18  C   UNL     1     -45.626 -52.554  12.498  1.00  0.00     0.193 C 
HETATM   19  O   UNL     1     -46.502 -52.578  11.642  1.00  0.00    -0.645 OA
BRANCH  18  20
HETATM   20  O   UNL     1     -44.331 -52.450  12.145  1.00  0.00    -0.772 OA
HETATM   21  H   UNL     1     -43.768 -52.076  12.843  1.00  0.00     0.167 HD
ENDBRANCH  18  20
ENDBRANCH   1  18
TORSDOF 6
ENDMDL
MODEL 4
REMARK VINA RESULT:      -5.5      1.973      5.095
REMARK  6 active torsions:
REMARK  status: ('A' for Active; 'I' for Inactive)
REMARK    1  A    between atoms: O_1  and  C_2 
REMARK    2  A    between atoms: C_2  and  C_4 
REMARK    3  A    between atoms: N_10  and  C_11 
REMARK    4  A    between atoms: C_11  and  C_12 
REMARK    5  A    between atoms: C_12  and  O_13 
REMARK    6  A    between atoms: O_13  and  C_14 
ROOT
HETATM    1  C   UNL     1     -45.954 -51.436  13.741  1.00  0.00     0.111 A 
HETATM    2  C   UNL     1     -46.872 -51.613  14.711  1.00  0.00     0.037 A 
HETATM    3  C   UNL     1     -46.585 -51.305  16.082  1.00  0.00     0.008 A 
HETATM    4  C   UNL     1     -45.396 -50.789  16.401  1.00  0.00     0.074 A 
HETATM    5  C   UNL     1     -44.394 -50.474  15.357  1.00  0.00     0.248 A 
HETATM    6  O   UNL     1     -43.384 -49.895  15.727  1.00  0.00    -0.268 OA
HETATM    7  N   UNL     1     -44.695 -50.853  14.033  1.00  0.00    -0.307 N 
ENDROOT
BRANCH   7   8
HETATM    8  C   UNL     1     -43.676 -50.683  12.980  1.00  0.00     0.159 C 
BRANCH   8   9
HETATM    9  C   UNL     1     -42.562 -51.725  12.746  1.00  0.00     0.196 C 
BRANCH   9  10
HETATM   10  O   UNL     1     -43.024 -53.068  12.811  1.00  0.00    -0.348 OA
BRANCH  10  11
HETATM   11  C   UNL     1     -42.594 -53.843  13.867  1.00  0.00     0.090 A 
HETATM   12  C   UNL     1     -41.196 -53.797  14.016  1.00  0.00     0.038 A 
HETATM   13  C   UNL     1     -40.543 -54.499  15.032  1.00  0.00     0.003 A 
HETATM   14  C   UNL     1     -41.275 -55.269  15.925  1.00  0.00     0.002 A 
HETATM   15  C   UNL     1     -42.660 -55.324  15.800  1.00  0.00     0.026 A 
HETATM   16  C   UNL     1     -43.327 -54.611  14.789  1.00  0.00     0.067 A 
HETATM   17 CL   UNL     1     -45.053 -54.739  14.860  1.00  0.00    -0.081 Cl
ENDBRANCH  10  11
ENDBRANCH   9  10
ENDBRANCH   8   9
ENDBRANCH   7   8
BRANCH   1  18
HETATM   18  C   UNL     1     -46.422 -51.966  12.416  1.00  0.00     0.193 C 
HETATM   19  O   UNL     1     -47.134 -51.324  11.654  1.00  0.00    -0.645 OA
BRANCH  18  20
HETATM   20  O   UNL     1     -45.983 -53.191  12.069  1.00  0.00    -0.772 OA
HETATM   21  H   UNL     1     -45.059 -53.201  11.769  1.00  0.00     0.167 HD
ENDBRANCH  18  20
ENDBRANCH   1  18
TORSDOF 6
ENDMDL
MODEL 5
REMARK VINA RESULT:      -5.5      2.988      4.372
REMARK  6 active torsions:
REMARK  status: ('A' for Active; 'I' for Inactive)
REMARK    1  A    between atoms: O_1  and  C_2 
REMARK    2  A    between atoms: C_2  and  C_4 
REMARK    3  A    between atoms: N_10  and  C_11 
REMARK    4  A    between atoms: C_11  and  C_12 
REMARK    5  A    between atoms: C_12  and  O_13 
REMARK    6  A    between atoms: O_13  and  C_14 
ROOT
HETATM    1  C   UNL     1     -39.782 -51.514  13.001  1.00  0.00     0.111 A 
HETATM    2  C   UNL     1     -38.558 -51.753  13.510  1.00  0.00     0.037 A 
HETATM    3  C   UNL     1     -37.582 -50.712  13.639  1.00  0.00     0.008 A 
HETATM    4  C   UNL     1     -37.905 -49.465  13.288  1.00  0.00     0.074 A 
HETATM    5  C   UNL     1     -39.272 -49.131  12.827  1.00  0.00     0.248 A 
HETATM    6  O   UNL     1     -39.511 -47.948  12.641  1.00  0.00    -0.268 OA
HETATM    7  N   UNL     1     -40.177 -50.197  12.655  1.00  0.00    -0.307 N 
ENDROOT
BRANCH   7   8
HETATM    8  C   UNL     1     -41.506 -49.934  12.070  1.00  0.00     0.159 C 
BRANCH   8   9
HETATM    9  C   UNL     1     -42.775 -49.829  12.941  1.00  0.00     0.196 C 
BRANCH   9  10
HETATM   10  O   UNL     1     -43.625 -50.965  12.837  1.00  0.00    -0.348 OA
BRANCH  10  11
HETATM   11  C   UNL     1     -44.655 -51.080  13.746  1.00  0.00     0.090 A 
HETATM   12  C   UNL     1     -44.242 -50.751  15.050  1.00  0.00     0.038 A 
HETATM   13  C   UNL     1     -45.128 -50.785  16.131  1.00  0.00     0.003 A 
HETATM   14  C   UNL     1     -46.451 -51.153  15.932  1.00  0.00     0.002 A 
HETATM   15  C   UNL     1     -46.882 -51.477  14.649  1.00  0.00     0.026 A 
HETATM   16  C   UNL     1     -46.003 -51.433  13.554  1.00  0.00     0.067 A 
HETATM   17 CL   UNL     1     -46.755 -51.782  12.033  1.00  0.00    -0.081 Cl
ENDBRANCH  10  11
ENDBRANCH   9  10
ENDBRANCH   8   9
ENDBRANCH   7   8
BRANCH   1  18
HETATM   18  C   UNL     1     -40.577 -52.777  12.821  1.00  0.00     0.193 C 
HETATM   19  O   UNL     1     -41.271 -53.259  13.706  1.00  0.00    -0.645 OA
BRANCH  18  20
HETATM   20  O   UNL     1     -40.529 -53.348  11.603  1.00  0.00    -0.772 OA
HETATM   21  H   UNL     1     -41.394 -53.397  11.164  1.00  0.00     0.167 HD
ENDBRANCH  18  20
ENDBRANCH   1  18
TORSDOF 6
ENDMDL
MODEL 6
REMARK VINA RESULT:      -5.4      2.261      5.443
REMARK  6 active torsions:
REMARK  status: ('A' for Active; 'I' for Inactive)
REMARK    1  A    between atoms: O_1  and  C_2 
REMARK    2  A    between atoms: C_2  and  C_4 
REMARK    3  A    between atoms: N_10  and  C_11 
REMARK    4  A    between atoms: C_11  and  C_12 
REMARK    5  A    between atoms: C_12  and  O_13 
REMARK    6  A    between atoms: O_13  and  C_14 
ROOT
HETATM    1  C   UNL     1     -45.734 -53.201  15.722  1.00  0.00     0.111 A 
HETATM    2  C   UNL     1     -46.568 -52.149  15.836  1.00  0.00     0.037 A 
HETATM    3  C   UNL     1     -46.934 -51.354  14.701  1.00  0.00     0.008 A 
HETATM    4  C   UNL     1     -46.476 -51.688  13.493  1.00  0.00     0.074 A 
HETATM    5  C   UNL     1     -45.646 -52.900  13.299  1.00  0.00     0.248 A 
HETATM    6  O   UNL     1     -45.372 -53.194  12.146  1.00  0.00    -0.268 OA
HETATM    7  N   UNL     1     -45.259 -53.613  14.451  1.00  0.00    -0.307 N 
ENDROOT
BRANCH   7   8
HETATM    8  C   UNL     1     -44.323 -54.746  14.323  1.00  0.00     0.159 C 
BRANCH   8   9
HETATM    9  C   UNL     1     -42.793 -54.549  14.344  1.00  0.00     0.196 C 
BRANCH   9  10
HETATM   10  O   UNL     1     -42.250 -54.227  13.070  1.00  0.00    -0.348 OA
BRANCH  10  11
HETATM   11  C   UNL     1     -41.449 -53.108  12.979  1.00  0.00     0.090 A 
HETATM   12  C   UNL     1     -42.112 -52.040  12.349  1.00  0.00     0.038 A 
HETATM   13  C   UNL     1     -41.493 -50.800  12.161  1.00  0.00     0.003 A 
HETATM   14  C   UNL     1     -40.191 -50.602  12.599  1.00  0.00     0.002 A 
HETATM   15  C   UNL     1     -39.518 -51.644  13.230  1.00  0.00     0.026 A 
HETATM   16  C   UNL     1     -40.137 -52.890  13.435  1.00  0.00     0.067 A 
HETATM   17 CL   UNL     1     -39.166 -54.021  14.318  1.00  0.00    -0.081 Cl
ENDBRANCH  10  11
ENDBRANCH   9  10
ENDBRANCH   8   9
ENDBRANCH   7   8
BRANCH   1  18
HETATM   18  C   UNL     1     -45.374 -53.786  17.058  1.00  0.00     0.193 C 
HETATM   19  O   UNL     1     -45.934 -54.769  17.528  1.00  0.00    -0.645 OA
BRANCH  18  20
HETATM   20  O   UNL     1     -44.358 -53.200  17.717  1.00  0.00    -0.772 OA
HETATM   21  H   UNL     1     -44.648 -52.552  18.380  1.00  0.00     0.167 HD
ENDBRANCH  18  20
ENDBRANCH   1  18
TORSDOF 6
ENDMDL
MODEL 7
REMARK VINA RESULT:      -5.3      3.130      4.388
REMARK  6 active torsions:
REMARK  status: ('A' for Active; 'I' for Inactive)
REMARK    1  A    between atoms: O_1  and  C_2 
REMARK    2  A    between atoms: C_2  and  C_4 
REMARK    3  A    between atoms: N_10  and  C_11 
REMARK    4  A    between atoms: C_11  and  C_12 
REMARK    5  A    between atoms: C_12  and  O_13 
REMARK    6  A    between atoms: O_13  and  C_14 
ROOT
HETATM    1  C   UNL     1     -40.031 -49.508  11.953  1.00  0.00     0.111 A 
HETATM    2  C   UNL     1     -38.952 -48.750  12.227  1.00  0.00     0.037 A 
HETATM    3  C   UNL     1     -37.867 -49.246  13.020  1.00  0.00     0.008 A 
HETATM    4  C   UNL     1     -37.902 -50.505  13.462  1.00  0.00     0.074 A 
HETATM    5  C   UNL     1     -39.014 -51.413  13.095  1.00  0.00     0.248 A 
HETATM    6  O   UNL     1     -38.904 -52.578  13.444  1.00  0.00    -0.268 OA
HETATM    7  N   UNL     1     -40.089 -50.862  12.369  1.00  0.00    -0.307 N 
ENDROOT
BRANCH   7   8
HETATM    8  C   UNL     1     -41.280 -51.688  12.096  1.00  0.00     0.159 C 
BRANCH   8   9
HETATM    9  C   UNL     1     -42.609 -51.480  12.850  1.00  0.00     0.196 C 
BRANCH   9  10
HETATM   10  O   UNL     1     -43.573 -52.490  12.584  1.00  0.00    -0.348 OA
BRANCH  10  11
HETATM   11  C   UNL     1     -44.640 -52.603  13.449  1.00  0.00     0.090 A 
HETATM   12  C   UNL     1     -45.493 -51.488  13.377  1.00  0.00     0.038 A 
HETATM   13  C   UNL     1     -46.648 -51.394  14.159  1.00  0.00     0.003 A 
HETATM   14  C   UNL     1     -46.975 -52.418  15.038  1.00  0.00     0.002 A 
HETATM   15  C   UNL     1     -46.147 -53.533  15.122  1.00  0.00     0.026 A 
HETATM   16  C   UNL     1     -44.992 -53.642  14.330  1.00  0.00     0.067 A 
HETATM   17 CL   UNL     1     -44.150 -55.145  14.516  1.00  0.00    -0.081 Cl
ENDBRANCH  10  11
ENDBRANCH   9  10
ENDBRANCH   8   9
ENDBRANCH   7   8
BRANCH   1  18
HETATM   18  C   UNL     1     -41.103 -48.732  11.240  1.00  0.00     0.193 C 
HETATM   19  O   UNL     1     -41.770 -47.863  11.786  1.00  0.00    -0.645 OA
BRANCH  18  20
HETATM   20  O   UNL     1     -41.275 -49.005   9.933  1.00  0.00    -0.772 OA
HETATM   21  H   UNL     1     -40.996 -49.901   9.684  1.00  0.00     0.167 HD
ENDBRANCH  18  20
ENDBRANCH   1  18
TORSDOF 6
ENDMDL
MODEL 8
REMARK VINA RESULT:      -5.3      2.618      5.878
REMARK  6 active torsions:
REMARK  status: ('A' for Active; 'I' for Inactive)
REMARK    1  A    between atoms: O_1  and  C_2 
REMARK    2  A    between atoms: C_2  and  C_4 
REMARK    3  A    between atoms: N_10  and  C_11 
REMARK    4  A    between atoms: C_11  and  C_12 
REMARK    5  A    between atoms: C_12  and  O_13 
REMARK    6  A    between atoms: O_13  and  C_14 
ROOT
HETATM    1  C   UNL     1     -46.504 -52.052  15.002  1.00  0.00     0.111 A 
HETATM    2  C   UNL     1     -46.836 -51.252  13.969  1.00  0.00     0.037 A 
HETATM    3  C   UNL     1     -46.500 -51.593  12.618  1.00  0.00     0.008 A 
HETATM    4  C   UNL     1     -45.885 -52.750  12.368  1.00  0.00     0.074 A 
HETATM    5  C   UNL     1     -45.598 -53.713  13.457  1.00  0.00     0.248 A 
HETATM    6  O   UNL     1     -45.141 -54.795  13.122  1.00  0.00    -0.268 OA
HETATM    7  N   UNL     1     -45.886 -53.307  14.775  1.00  0.00    -0.307 N 
ENDROOT
BRANCH   7   8
HETATM    8  C   UNL     1     -45.496 -54.173  15.903  1.00  0.00     0.159 C 
BRANCH   8   9
HETATM    9  C   UNL     1     -44.053 -54.201  16.451  1.00  0.00     0.196 C 
BRANCH   9  10
HETATM   10  O   UNL     1     -43.296 -55.312  15.987  1.00  0.00    -0.348 OA
BRANCH  10  11
HETATM   11  C   UNL     1     -42.008 -55.074  15.556  1.00  0.00     0.090 A 
HETATM   12  C   UNL     1     -41.985 -54.435  14.304  1.00  0.00     0.038 A 
HETATM   13  C   UNL     1     -40.784 -54.085  13.680  1.00  0.00     0.003 A 
HETATM   14  C   UNL     1     -39.574 -54.371  14.296  1.00  0.00     0.002 A 
HETATM   15  C   UNL     1     -39.573 -54.999  15.538  1.00  0.00     0.026 A 
HETATM   16  C   UNL     1     -40.776 -55.342  16.179  1.00  0.00     0.067 A 
HETATM   17 CL   UNL     1     -40.563 -56.031  17.754  1.00  0.00    -0.081 Cl
ENDBRANCH  10  11
ENDBRANCH   9  10
ENDBRANCH   8   9
ENDBRANCH   7   8
BRANCH   1  18
HETATM   18  C   UNL     1     -46.819 -51.422  16.329  1.00  0.00     0.193 C 
HETATM   19  O   UNL     1     -46.013 -50.743  16.953  1.00  0.00    -0.645 OA
BRANCH  18  20
HETATM   20  O   UNL     1     -48.069 -51.599  16.798  1.00  0.00    -0.772 OA
HETATM   21  H   UNL     1     -48.097 -51.968  17.696  1.00  0.00     0.167 HD
ENDBRANCH  18  20
ENDBRANCH   1  18
TORSDOF 6
ENDMDL
MODEL 9
REMARK VINA RESULT:      -5.3      2.400      5.930
REMARK  6 active torsions:
REMARK  status: ('A' for Active; 'I' for Inactive)
REMARK    1  A    between atoms: O_1  and  C_2 
REMARK    2  A    between atoms: C_2  and  C_4 
REMARK    3  A    between atoms: N_10  and  C_11 
REMARK    4  A    between atoms: C_11  and  C_12 
REMARK    5  A    between atoms: C_12  and  O_13 
REMARK    6  A    between atoms: O_13  and  C_14 
ROOT
HETATM    1  C   UNL     1     -45.690 -53.252  15.723  1.00  0.00     0.111 A 
HETATM    2  C   UNL     1     -46.520 -52.210  15.921  1.00  0.00     0.037 A 
HETATM    3  C   UNL     1     -46.935 -51.364  14.841  1.00  0.00     0.008 A 
HETATM    4  C   UNL     1     -46.527 -51.639  13.600  1.00  0.00     0.074 A 
HETATM    5  C   UNL     1     -45.703 -52.836  13.316  1.00  0.00     0.248 A 
HETATM    6  O   UNL     1     -45.475 -53.075  12.139  1.00  0.00    -0.268 OA
HETATM    7  N   UNL     1     -45.266 -53.601  14.416  1.00  0.00    -0.307 N 
ENDROOT
BRANCH   7   8
HETATM    8  C   UNL     1     -44.334 -54.723  14.196  1.00  0.00     0.159 C 
BRANCH   8   9
HETATM    9  C   UNL     1     -42.811 -54.508  14.077  1.00  0.00     0.196 C 
BRANCH   9  10
HETATM   10  O   UNL     1     -42.205 -54.085  15.292  1.00  0.00    -0.348 OA
BRANCH  10  11
HETATM   11  C   UNL     1     -41.088 -54.768  15.723  1.00  0.00     0.090 A 
HETATM   12  C   UNL     1     -41.412 -55.761  16.664  1.00  0.00     0.038 A 
HETATM   13  C   UNL     1     -40.435 -56.587  17.227  1.00  0.00     0.003 A 
HETATM   14  C   UNL     1     -39.104 -56.435  16.862  1.00  0.00     0.002 A 
HETATM   15  C   UNL     1     -38.761 -55.462  15.928  1.00  0.00     0.026 A 
HETATM   16  C   UNL     1     -39.739 -54.636  15.347  1.00  0.00     0.067 A 
HETATM   17 CL   UNL     1     -39.121 -53.554  14.143  1.00  0.00    -0.081 Cl
ENDBRANCH  10  11
ENDBRANCH   9  10
ENDBRANCH   8   9
ENDBRANCH   7   8
BRANCH   1  18
HETATM   18  C   UNL     1     -45.273 -53.897  17.015  1.00  0.00     0.193 C 
HETATM   19  O   UNL     1     -45.937 -54.762  17.572  1.00  0.00    -0.645 OA
BRANCH  18  20
HETATM   20  O   UNL     1     -44.091 -53.509  17.527  1.00  0.00    -0.772 OA
HETATM   21  H   UNL     1     -43.971 -53.756  18.458  1.00  0.00     0.167 HD
ENDBRANCH  18  20
ENDBRANCH   1  18
TORSDOF 6
ENDMDL
