MODEL 1
REMARK VINA RESULT:      -5.8      0.000      0.000
REMARK  3 active torsions:
REMARK  status: ('A' for Active; 'I' for Inactive)
REMARK    1  A    between atoms: C_2  and  N_3 
REMARK    2  A    between atoms: C_2  and  C_14 
REMARK       I    between atoms: N_3  and  C_4 
REMARK       I    between atoms: C_4  and  N_6 
REMARK    3  A    between atoms: N_6  and  C_7 
ROOT
HETATM    1  N   UNL     1     -40.330 -47.113  11.112  1.00  0.00    -0.338 N 
HETATM    2  C   UNL     1     -41.155 -48.061  10.600  1.00  0.00     0.322 C 
HETATM    3  O   UNL     1     -42.162 -47.824   9.942  1.00  0.00    -0.247 OA
HETATM    4  N   UNL     1     -40.778 -49.359  10.810  1.00  0.00    -0.295 N 
HETATM    5  H   UNL     1     -39.622 -47.472  11.751  1.00  0.00     0.164 HD
HETATM    6  H   UNL     1     -41.373 -50.024  10.340  1.00  0.00     0.172 HD
ENDROOT
BRANCH   1   7
HETATM    7  C   UNL     1     -40.443 -45.672  10.965  1.00  0.00     0.086 C 
HETATM    8  C   UNL     1     -39.417 -45.244   9.907  1.00  0.00     0.032 C 
BRANCH   7   9
HETATM    9  C   UNL     1     -40.205 -44.958  12.326  1.00  0.00     0.011 C 
HETATM   10  C   UNL     1     -41.138 -45.456  13.444  1.00  0.00     0.037 C 
HETATM   11  C   UNL     1     -42.596 -45.044  13.202  1.00  0.00     0.272 C 
HETATM   12  N   UNL     1     -42.789 -43.604  12.971  1.00  0.00     0.084 N 
HETATM   13  C   UNL     1     -42.788 -42.846  14.216  1.00  0.00     0.309 C 
HETATM   14  C   UNL     1     -41.850 -43.059  11.984  1.00  0.00     0.272 C 
HETATM   15  C   UNL     1     -40.387 -43.433  12.244  1.00  0.00     0.037 C 
ENDBRANCH   7   9
ENDBRANCH   1   7
BRANCH   4  16
HETATM   16  C   UNL     1     -39.614 -49.814  11.438  1.00  0.00     0.108 A 
HETATM   17  C   UNL     1     -39.710 -50.288  12.737  1.00  0.00     0.049 A 
HETATM   18  C   UNL     1     -38.575 -50.842  13.328  1.00  0.00     0.005 A 
HETATM   19  C   UNL     1     -37.377 -50.876  12.622  1.00  0.00     0.017 A 
HETATM   20  C   UNL     1     -37.359 -50.345  11.348  1.00  0.00     0.089 A 
HETATM   21  N   UNL     1     -38.448 -49.823  10.749  1.00  0.00    -0.352 N 
ATOM     22  HN  UNL     1     -38.395 -49.447   9.802  1.00  0.00     0.166 HD
ENDBRANCH   4  16
TORSDOF 3
ENDMDL
MODEL 2
REMARK VINA RESULT:      -5.7      3.187      4.504
REMARK  3 active torsions:
REMARK  status: ('A' for Active; 'I' for Inactive)
REMARK    1  A    between atoms: C_2  and  N_3 
REMARK    2  A    between atoms: C_2  and  C_14 
REMARK       I    between atoms: N_3  and  C_4 
REMARK       I    between atoms: C_4  and  N_6 
REMARK    3  A    between atoms: N_6  and  C_7 
ROOT
HETATM    1  N   UNL     1     -41.491 -49.906  12.493  1.00  0.00    -0.338 N 
HETATM    2  C   UNL     1     -40.655 -50.517  11.614  1.00  0.00     0.322 C 
HETATM    3  O   UNL     1     -39.754 -49.951  11.005  1.00  0.00    -0.247 OA
HETATM    4  N   UNL     1     -40.829 -51.865  11.461  1.00  0.00    -0.295 N 
HETATM    5  H   UNL     1     -42.271 -50.484  12.803  1.00  0.00     0.164 HD
HETATM    6  H   UNL     1     -40.134 -52.288  10.866  1.00  0.00     0.172 HD
ENDROOT
BRANCH   1   7
HETATM    7  C   UNL     1     -41.471 -48.514  12.907  1.00  0.00     0.086 C 
HETATM    8  C   UNL     1     -41.185 -48.495  14.415  1.00  0.00     0.032 C 
BRANCH   7   9
HETATM    9  C   UNL     1     -42.818 -47.818  12.563  1.00  0.00     0.011 C 
HETATM   10  C   UNL     1     -43.409 -48.269  11.215  1.00  0.00     0.037 C 
HETATM   11  C   UNL     1     -42.569 -47.781  10.028  1.00  0.00     0.272 C 
HETATM   12  N   UNL     1     -42.314 -46.332  10.020  1.00  0.00     0.084 N 
HETATM   13  C   UNL     1     -43.455 -45.578   9.516  1.00  0.00     0.309 C 
HETATM   14  C   UNL     1     -41.845 -45.834  11.318  1.00  0.00     0.272 C 
HETATM   15  C   UNL     1     -42.704 -46.285  12.505  1.00  0.00     0.037 C 
ENDBRANCH   7   9
ENDBRANCH   1   7
BRANCH   4  16
HETATM   16  C   UNL     1     -41.725 -52.689  12.150  1.00  0.00     0.108 A 
HETATM   17  C   UNL     1     -41.250 -53.422  13.227  1.00  0.00     0.049 A 
HETATM   18  C   UNL     1     -42.161 -54.159  13.982  1.00  0.00     0.005 A 
HETATM   19  C   UNL     1     -43.504 -54.171  13.624  1.00  0.00     0.017 A 
HETATM   20  C   UNL     1     -43.887 -53.445  12.512  1.00  0.00     0.089 A 
HETATM   21  N   UNL     1     -43.028 -52.708  11.780  1.00  0.00    -0.352 N 
ATOM     22  HN  UNL     1     -43.351 -52.180  10.969  1.00  0.00     0.166 HD
ENDBRANCH   4  16
TORSDOF 3
ENDMDL
MODEL 3
REMARK VINA RESULT:      -5.6      5.892      7.546
REMARK  3 active torsions:
REMARK  status: ('A' for Active; 'I' for Inactive)
REMARK    1  A    between atoms: C_2  and  N_3 
REMARK    2  A    between atoms: C_2  and  C_14 
REMARK       I    between atoms: N_3  and  C_4 
REMARK       I    between atoms: C_4  and  N_6 
REMARK    3  A    between atoms: N_6  and  C_7 
ROOT
HETATM    1  N   UNL     1     -44.683 -52.517  13.289  1.00  0.00    -0.338 N 
HETATM    2  C   UNL     1     -44.184 -53.663  12.758  1.00  0.00     0.322 C 
HETATM    3  O   UNL     1     -44.857 -54.648  12.476  1.00  0.00    -0.247 OA
HETATM    4  N   UNL     1     -42.844 -53.662  12.485  1.00  0.00    -0.295 N 
HETATM    5  H   UNL     1     -43.973 -51.852  13.595  1.00  0.00     0.164 HD
HETATM    6  H   UNL     1     -42.536 -54.499  12.014  1.00  0.00     0.172 HD
ENDROOT
BRANCH   1   7
HETATM    7  C   UNL     1     -46.070 -52.217  13.592  1.00  0.00     0.086 C 
HETATM    8  C   UNL     1     -46.727 -51.746  12.287  1.00  0.00     0.032 C 
BRANCH   7   9
HETATM    9  C   UNL     1     -46.170 -51.143  14.712  1.00  0.00     0.011 C 
HETATM   10  C   UNL     1     -44.816 -50.827  15.374  1.00  0.00     0.037 C 
HETATM   11  C   UNL     1     -44.297 -52.005  16.208  1.00  0.00     0.272 C 
HETATM   12  N   UNL     1     -45.253 -52.511  17.205  1.00  0.00     0.084 N 
HETATM   13  C   UNL     1     -45.283 -51.683  18.404  1.00  0.00     0.309 C 
HETATM   14  C   UNL     1     -46.591 -52.730  16.644  1.00  0.00     0.272 C 
HETATM   15  C   UNL     1     -47.133 -51.542  15.843  1.00  0.00     0.037 C 
ENDBRANCH   7   9
ENDBRANCH   1   7
BRANCH   4  16
HETATM   16  C   UNL     1     -41.947 -52.599  12.636  1.00  0.00     0.108 A 
HETATM   17  C   UNL     1     -41.197 -52.533  13.800  1.00  0.00     0.049 A 
HETATM   18  C   UNL     1     -40.226 -51.538  13.908  1.00  0.00     0.005 A 
HETATM   19  C   UNL     1     -40.056 -50.625  12.874  1.00  0.00     0.017 A 
HETATM   20  C   UNL     1     -40.874 -50.737  11.766  1.00  0.00     0.089 A 
HETATM   21  N   UNL     1     -41.804 -51.703  11.631  1.00  0.00    -0.352 N 
ATOM     22  HN  UNL     1     -42.385 -51.757  10.794  1.00  0.00     0.166 HD
ENDBRANCH   4  16
TORSDOF 3
ENDMDL
MODEL 4
REMARK VINA RESULT:      -5.5      5.437      7.723
REMARK  3 active torsions:
REMARK  status: ('A' for Active; 'I' for Inactive)
REMARK    1  A    between atoms: C_2  and  N_3 
REMARK    2  A    between atoms: C_2  and  C_14 
REMARK       I    between atoms: N_3  and  C_4 
REMARK       I    between atoms: C_4  and  N_6 
REMARK    3  A    between atoms: N_6  and  C_7 
ROOT
HETATM    1  N   UNL     1     -44.371 -50.996  12.871  1.00  0.00    -0.338 N 
HETATM    2  C   UNL     1     -43.138 -51.449  12.526  1.00  0.00     0.322 C 
HETATM    3  O   UNL     1     -42.807 -52.629  12.526  1.00  0.00    -0.247 OA
HETATM    4  N   UNL     1     -42.248 -50.499  12.105  1.00  0.00    -0.295 N 
HETATM    5  H   UNL     1     -44.438 -49.982  12.954  1.00  0.00     0.164 HD
HETATM    6  H   UNL     1     -41.378 -50.890  11.778  1.00  0.00     0.172 HD
ENDROOT
BRANCH   1   7
HETATM    7  C   UNL     1     -45.522 -51.787  13.267  1.00  0.00     0.086 C 
HETATM    8  C   UNL     1     -46.579 -51.630  12.165  1.00  0.00     0.032 C 
BRANCH   7   9
HETATM    9  C   UNL     1     -46.057 -51.328  14.653  1.00  0.00     0.011 C 
HETATM   10  C   UNL     1     -44.940 -51.070  15.680  1.00  0.00     0.037 C 
HETATM   11  C   UNL     1     -44.240 -52.367  16.105  1.00  0.00     0.272 C 
HETATM   12  N   UNL     1     -45.150 -53.419  16.585  1.00  0.00     0.084 N 
HETATM   13  C   UNL     1     -45.563 -53.197  17.964  1.00  0.00     0.309 C 
HETATM   14  C   UNL     1     -46.291 -53.631  15.687  1.00  0.00     0.272 C 
HETATM   15  C   UNL     1     -47.020 -52.343  15.292  1.00  0.00     0.037 C 
ENDBRANCH   7   9
ENDBRANCH   1   7
BRANCH   4  16
HETATM   16  C   UNL     1     -42.484 -49.131  11.936  1.00  0.00     0.108 A 
HETATM   17  C   UNL     1     -42.433 -48.312  13.053  1.00  0.00     0.049 A 
HETATM   18  C   UNL     1     -42.559 -46.935  12.875  1.00  0.00     0.005 A 
HETATM   19  C   UNL     1     -42.764 -46.421  11.599  1.00  0.00     0.017 A 
HETATM   20  C   UNL     1     -42.843 -47.311  10.545  1.00  0.00     0.089 A 
HETATM   21  N   UNL     1     -42.703 -48.643  10.691  1.00  0.00    -0.352 N 
ATOM     22  HN  UNL     1     -42.761 -49.268   9.886  1.00  0.00     0.166 HD
ENDBRANCH   4  16
TORSDOF 3
ENDMDL
MODEL 5
REMARK VINA RESULT:      -5.4      4.847      6.886
REMARK  3 active torsions:
REMARK  status: ('A' for Active; 'I' for Inactive)
REMARK    1  A    between atoms: C_2  and  N_3 
REMARK    2  A    between atoms: C_2  and  C_14 
REMARK       I    between atoms: N_3  and  C_4 
REMARK       I    between atoms: C_4  and  N_6 
REMARK    3  A    between atoms: N_6  and  C_7 
ROOT
HETATM    1  N   UNL     1     -42.590 -51.317  12.610  1.00  0.00    -0.338 N 
HETATM    2  C   UNL     1     -41.472 -51.855  12.059  1.00  0.00     0.322 C 
HETATM    3  O   UNL     1     -41.223 -53.055  12.025  1.00  0.00    -0.247 OA
HETATM    4  N   UNL     1     -40.612 -50.972  11.468  1.00  0.00    -0.295 N 
HETATM    5  H   UNL     1     -42.576 -50.300  12.683  1.00  0.00     0.164 HD
HETATM    6  H   UNL     1     -39.841 -51.424  11.000  1.00  0.00     0.172 HD
ENDROOT
BRANCH   1   7
HETATM    7  C   UNL     1     -43.701 -52.025  13.220  1.00  0.00     0.086 C 
HETATM    8  C   UNL     1     -44.221 -53.031  12.184  1.00  0.00     0.032 C 
BRANCH   7   9
HETATM    9  C   UNL     1     -44.809 -51.031  13.669  1.00  0.00     0.011 C 
HETATM   10  C   UNL     1     -44.665 -50.582  15.135  1.00  0.00     0.037 C 
HETATM   11  C   UNL     1     -44.948 -51.725  16.117  1.00  0.00     0.272 C 
HETATM   12  N   UNL     1     -46.240 -52.399  15.908  1.00  0.00     0.084 N 
HETATM   13  C   UNL     1     -47.348 -51.644  16.477  1.00  0.00     0.309 C 
HETATM   14  C   UNL     1     -46.470 -52.756  14.504  1.00  0.00     0.272 C 
HETATM   15  C   UNL     1     -46.228 -51.606  13.521  1.00  0.00     0.037 C 
ENDBRANCH   7   9
ENDBRANCH   1   7
BRANCH   4  16
HETATM   16  C   UNL     1     -40.784 -49.592  11.315  1.00  0.00     0.108 A 
HETATM   17  C   UNL     1     -39.869 -48.744  11.923  1.00  0.00     0.049 A 
HETATM   18  C   UNL     1     -39.973 -47.375  11.685  1.00  0.00     0.005 A 
HETATM   19  C   UNL     1     -40.999 -46.890  10.881  1.00  0.00     0.017 A 
HETATM   20  C   UNL     1     -41.892 -47.800  10.348  1.00  0.00     0.089 A 
HETATM   21  N   UNL     1     -41.798 -49.130  10.547  1.00  0.00    -0.352 N 
ATOM     22  HN  UNL     1     -42.474 -49.770  10.130  1.00  0.00     0.166 HD
ENDBRANCH   4  16
TORSDOF 3
ENDMDL
MODEL 6
REMARK VINA RESULT:      -5.3      3.598      5.774
REMARK  3 active torsions:
REMARK  status: ('A' for Active; 'I' for Inactive)
REMARK    1  A    between atoms: C_2  and  N_3 
REMARK    2  A    between atoms: C_2  and  C_14 
REMARK       I    between atoms: N_3  and  C_4 
REMARK       I    between atoms: C_4  and  N_6 
REMARK    3  A    between atoms: N_6  and  C_7 
ROOT
HETATM    1  N   UNL     1     -40.297 -50.147  13.089  1.00  0.00    -0.338 N 
HETATM    2  C   UNL     1     -40.144 -50.372  11.759  1.00  0.00     0.322 C 
HETATM    3  O   UNL     1     -39.452 -49.688  11.014  1.00  0.00    -0.247 OA
HETATM    4  N   UNL     1     -40.780 -51.477  11.263  1.00  0.00    -0.295 N 
HETATM    5  H   UNL     1     -41.015 -50.718  13.533  1.00  0.00     0.164 HD
HETATM    6  H   UNL     1     -40.569 -51.652  10.293  1.00  0.00     0.172 HD
ENDROOT
BRANCH   1   7
HETATM    7  C   UNL     1     -39.670 -49.106  13.885  1.00  0.00     0.086 C 
HETATM    8  C   UNL     1     -40.282 -47.769  13.444  1.00  0.00     0.032 C 
BRANCH   7   9
HETATM    9  C   UNL     1     -38.127 -49.126  13.702  1.00  0.00     0.011 C 
HETATM   10  C   UNL     1     -37.467 -50.408  14.242  1.00  0.00     0.037 C 
HETATM   11  C   UNL     1     -37.534 -50.488  15.772  1.00  0.00     0.272 C 
HETATM   12  N   UNL     1     -37.004 -49.304  16.466  1.00  0.00     0.084 N 
HETATM   13  C   UNL     1     -35.548 -49.317  16.535  1.00  0.00     0.309 C 
HETATM   14  C   UNL     1     -37.526 -48.047  15.917  1.00  0.00     0.272 C 
HETATM   15  C   UNL     1     -37.425 -47.944  14.391  1.00  0.00     0.037 C 
ENDBRANCH   7   9
ENDBRANCH   1   7
BRANCH   4  16
HETATM   16  C   UNL     1     -41.516 -52.426  11.980  1.00  0.00     0.108 A 
HETATM   17  C   UNL     1     -40.828 -53.320  12.787  1.00  0.00     0.049 A 
HETATM   18  C   UNL     1     -41.562 -54.195  13.585  1.00  0.00     0.005 A 
HETATM   19  C   UNL     1     -42.952 -54.178  13.530  1.00  0.00     0.017 A 
HETATM   20  C   UNL     1     -43.557 -53.284  12.669  1.00  0.00     0.089 A 
HETATM   21  N   UNL     1     -42.869 -52.414  11.903  1.00  0.00    -0.352 N 
ATOM     22  HN  UNL     1     -43.353 -51.764  11.284  1.00  0.00     0.166 HD
ENDBRANCH   4  16
TORSDOF 3
ENDMDL
MODEL 7
REMARK VINA RESULT:      -5.3      4.300      5.839
REMARK  3 active torsions:
REMARK  status: ('A' for Active; 'I' for Inactive)
REMARK    1  A    between atoms: C_2  and  N_3 
REMARK    2  A    between atoms: C_2  and  C_14 
REMARK       I    between atoms: N_3  and  C_4 
REMARK       I    between atoms: C_4  and  N_6 
REMARK    3  A    between atoms: N_6  and  C_7 
ROOT
HETATM    1  N   UNL     1     -42.282 -50.647  13.090  1.00  0.00    -0.338 N 
HETATM    2  C   UNL     1     -42.344 -51.806  12.386  1.00  0.00     0.322 C 
HETATM    3  O   UNL     1     -41.457 -52.219  11.648  1.00  0.00    -0.247 OA
HETATM    4  N   UNL     1     -43.468 -52.563  12.577  1.00  0.00    -0.295 N 
HETATM    5  H   UNL     1     -43.156 -50.381  13.541  1.00  0.00     0.164 HD
HETATM    6  H   UNL     1     -43.432 -53.451  12.101  1.00  0.00     0.172 HD
ENDROOT
BRANCH   1   7
HETATM    7  C   UNL     1     -41.178 -49.705  13.142  1.00  0.00     0.086 C 
HETATM    8  C   UNL     1     -40.316 -50.085  14.355  1.00  0.00     0.032 C 
BRANCH   7   9
HETATM    9  C   UNL     1     -41.702 -48.245  13.238  1.00  0.00     0.011 C 
HETATM   10  C   UNL     1     -42.821 -47.934  12.228  1.00  0.00     0.037 C 
HETATM   11  C   UNL     1     -42.302 -47.915  10.784  1.00  0.00     0.272 C 
HETATM   12  N   UNL     1     -41.148 -47.028  10.566  1.00  0.00     0.084 N 
HETATM   13  C   UNL     1     -41.548 -45.633  10.435  1.00  0.00     0.309 C 
HETATM   14  C   UNL     1     -40.094 -47.215  11.569  1.00  0.00     0.272 C 
HETATM   15  C   UNL     1     -40.600 -47.195  13.016  1.00  0.00     0.037 C 
ENDBRANCH   7   9
ENDBRANCH   1   7
BRANCH   4  16
HETATM   16  C   UNL     1     -44.525 -52.305  13.457  1.00  0.00     0.108 A 
HETATM   17  C   UNL     1     -45.613 -51.588  12.984  1.00  0.00     0.049 A 
HETATM   18  C   UNL     1     -46.715 -51.423  13.823  1.00  0.00     0.005 A 
HETATM   19  C   UNL     1     -46.685 -51.945  15.111  1.00  0.00     0.017 A 
HETATM   20  C   UNL     1     -45.545 -52.612  15.516  1.00  0.00     0.089 A 
HETATM   21  N   UNL     1     -44.477 -52.802  14.716  1.00  0.00    -0.352 N 
ATOM     22  HN  UNL     1     -43.655 -53.305  15.050  1.00  0.00     0.166 HD
ENDBRANCH   4  16
TORSDOF 3
ENDMDL
MODEL 8
REMARK VINA RESULT:      -4.8      3.008      3.995
REMARK  3 active torsions:
REMARK  status: ('A' for Active; 'I' for Inactive)
REMARK    1  A    between atoms: C_2  and  N_3 
REMARK    2  A    between atoms: C_2  and  C_14 
REMARK       I    between atoms: N_3  and  C_4 
REMARK       I    between atoms: C_4  and  N_6 
REMARK    3  A    between atoms: N_6  and  C_7 
ROOT
HETATM    1  N   UNL     1     -40.863 -49.920  12.936  1.00  0.00    -0.338 N 
HETATM    2  C   UNL     1     -40.734 -50.358  11.658  1.00  0.00     0.322 C 
HETATM    3  O   UNL     1     -40.247 -49.702  10.744  1.00  0.00    -0.247 OA
HETATM    4  N   UNL     1     -41.139 -51.643  11.423  1.00  0.00    -0.295 N 
HETATM    5  H   UNL     1     -41.415 -50.530  13.537  1.00  0.00     0.164 HD
HETATM    6  H   UNL     1     -40.946 -51.953  10.483  1.00  0.00     0.172 HD
ENDROOT
BRANCH   1   7
HETATM    7  C   UNL     1     -40.436 -48.641  13.477  1.00  0.00     0.086 C 
HETATM    8  C   UNL     1     -39.371 -48.934  14.544  1.00  0.00     0.032 C 
BRANCH   7   9
HETATM    9  C   UNL     1     -41.645 -47.859  14.064  1.00  0.00     0.011 C 
HETATM   10  C   UNL     1     -42.679 -47.451  13.000  1.00  0.00     0.037 C 
HETATM   11  C   UNL     1     -42.132 -46.380  12.048  1.00  0.00     0.272 C 
HETATM   12  N   UNL     1     -41.588 -45.190  12.722  1.00  0.00     0.084 N 
HETATM   13  C   UNL     1     -42.639 -44.272  13.142  1.00  0.00     0.309 C 
HETATM   14  C   UNL     1     -40.673 -45.530  13.816  1.00  0.00     0.272 C 
HETATM   15  C   UNL     1     -41.230 -46.571  14.794  1.00  0.00     0.037 C 
ENDBRANCH   7   9
ENDBRANCH   1   7
BRANCH   4  16
HETATM   16  C   UNL     1     -41.613 -52.569  12.359  1.00  0.00     0.108 A 
HETATM   17  C   UNL     1     -42.984 -52.752  12.467  1.00  0.00     0.049 A 
HETATM   18  C   UNL     1     -43.456 -53.748  13.319  1.00  0.00     0.005 A 
HETATM   19  C   UNL     1     -42.555 -54.506  14.059  1.00  0.00     0.017 A 
HETATM   20  C   UNL     1     -41.208 -54.231  13.923  1.00  0.00     0.089 A 
HETATM   21  N   UNL     1     -40.728 -53.287  13.090  1.00  0.00    -0.352 N 
ATOM     22  HN  UNL     1     -39.725 -53.118  13.012  1.00  0.00     0.166 HD
ENDBRANCH   4  16
TORSDOF 3
ENDMDL
MODEL 9
REMARK VINA RESULT:      -4.6      2.866      6.134
REMARK  3 active torsions:
REMARK  status: ('A' for Active; 'I' for Inactive)
REMARK    1  A    between atoms: C_2  and  N_3 
REMARK    2  A    between atoms: C_2  and  C_14 
REMARK       I    between atoms: N_3  and  C_4 
REMARK       I    between atoms: C_4  and  N_6 
REMARK    3  A    between atoms: N_6  and  C_7 
ROOT
HETATM    1  N   UNL     1     -41.020 -49.316  12.897  1.00  0.00    -0.338 N 
HETATM    2  C   UNL     1     -40.657 -49.958  11.757  1.00  0.00     0.322 C 
HETATM    3  O   UNL     1     -40.113 -51.056  11.721  1.00  0.00    -0.247 OA
HETATM    4  N   UNL     1     -40.982 -49.329  10.587  1.00  0.00    -0.295 N 
HETATM    5  H   UNL     1     -41.328 -48.355  12.758  1.00  0.00     0.164 HD
HETATM    6  H   UNL     1     -40.770 -49.881   9.770  1.00  0.00     0.172 HD
ENDROOT
BRANCH   1   7
HETATM    7  C   UNL     1     -40.876 -49.793  14.261  1.00  0.00     0.086 C 
HETATM    8  C   UNL     1     -42.289 -49.913  14.849  1.00  0.00     0.032 C 
BRANCH   7   9
HETATM    9  C   UNL     1     -39.983 -48.828  15.092  1.00  0.00     0.011 C 
HETATM   10  C   UNL     1     -38.730 -48.355  14.332  1.00  0.00     0.037 C 
HETATM   11  C   UNL     1     -37.726 -49.494  14.114  1.00  0.00     0.272 C 
HETATM   12  N   UNL     1     -37.345 -50.211  15.341  1.00  0.00     0.084 N 
HETATM   13  C   UNL     1     -36.344 -49.483  16.111  1.00  0.00     0.309 C 
HETATM   14  C   UNL     1     -38.505 -50.594  16.154  1.00  0.00     0.272 C 
HETATM   15  C   UNL     1     -39.492 -49.450  16.410  1.00  0.00     0.037 C 
ENDBRANCH   7   9
ENDBRANCH   1   7
BRANCH   4  16
HETATM   16  C   UNL     1     -41.694 -48.135  10.435  1.00  0.00     0.108 A 
HETATM   17  C   UNL     1     -41.034 -46.940  10.679  1.00  0.00     0.049 A 
HETATM   18  C   UNL     1     -41.707 -45.746  10.424  1.00  0.00     0.005 A 
HETATM   19  C   UNL     1     -43.020 -45.777   9.968  1.00  0.00     0.017 A 
HETATM   20  C   UNL     1     -43.616 -47.010   9.790  1.00  0.00     0.089 A 
HETATM   21  N   UNL     1     -42.979 -48.178  10.010  1.00  0.00    -0.352 N 
ATOM     22  HN  UNL     1     -43.453 -49.069   9.860  1.00  0.00     0.166 HD
ENDBRANCH   4  16
TORSDOF 3
ENDMDL
