MODEL 1
REMARK VINA RESULT:      -6.1      0.000      0.000
REMARK  5 active torsions:
REMARK  status: ('A' for Active; 'I' for Inactive)
REMARK    1  A    between atoms: C_2  and  C_3 
REMARK    2  A    between atoms: C_3  and  N_4 
REMARK    3  A    between atoms: C_9  and  N_10 
REMARK       I    between atoms: N_10  and  C_11 
REMARK       I    between atoms: C_11  and  N_13 
REMARK    4  A    between atoms: N_13  and  C_14 
REMARK    5  A    between atoms: C_14  and  C_16 
ROOT
HETATM    1  N   UNL     1     -42.822 -52.428  11.975  1.00  0.00    -0.293 N 
HETATM    2  C   UNL     1     -42.201 -51.245  12.455  1.00  0.00     0.322 C 
HETATM    3  O   UNL     1     -42.345 -50.844  13.594  1.00  0.00    -0.247 OA
HETATM    4  N   UNL     1     -41.493 -50.643  11.458  1.00  0.00    -0.338 N 
HETATM    5  H   UNL     1     -42.822 -52.601  10.982  1.00  0.00     0.172 HD
HETATM    6  H   UNL     1     -41.253 -51.161  10.627  1.00  0.00     0.164 HD
ENDROOT
BRANCH   1   7
HETATM    7  C   UNL     1     -43.480 -53.332  12.807  1.00  0.00     0.127 A 
HETATM    8  N   UNL     1     -44.840 -53.492  12.971  1.00  0.00    -0.277 N 
HETATM    9  N   UNL     1     -45.161 -54.529  13.769  1.00  0.00    -0.308 N 
HETATM   10  C   UNL     1     -43.984 -54.992  14.185  1.00  0.00     0.111 A 
ATOM     11  HN  UNL     1     -46.091 -54.878  14.001  1.00  0.00     0.186 HD
HETATM   12  C   UNL     1     -42.908 -54.287  13.618  1.00  0.00     0.068 A 
BRANCH   8  13
HETATM   13  C   UNL     1     -45.922 -52.657  12.471  1.00  0.00     0.150 C 
BRANCH  13  14
HETATM   14  C   UNL     1     -46.003 -51.323  13.215  1.00  0.00     0.017 C 
HETATM   15  C   UNL     1     -46.770 -51.442  14.521  1.00  0.00     0.007 C 
ENDBRANCH  13  14
ENDBRANCH   8  13
ENDBRANCH   1   7
BRANCH   4  16
HETATM   16  C   UNL     1     -40.788 -49.386  11.701  1.00  0.00     0.086 C 
HETATM   17  C   UNL     1     -39.279 -49.578  11.552  1.00  0.00     0.032 C 
BRANCH  16  18
HETATM   18  C   UNL     1     -41.346 -48.231  10.835  1.00  0.00     0.012 C 
HETATM   19  C   UNL     1     -42.861 -47.996  10.957  1.00  0.00     0.033 C 
HETATM   20  C   UNL     1     -43.268 -46.805  10.092  1.00  0.00     0.168 C 
HETATM   21  O   UNL     1     -42.567 -45.638  10.519  1.00  0.00    -0.391 OA
HETATM   22  C   UNL     1     -41.159 -45.756  10.327  1.00  0.00     0.168 C 
HETATM   23  C   UNL     1     -40.602 -46.917  11.139  1.00  0.00     0.033 C 
ENDBRANCH  16  18
ENDBRANCH   4  16
TORSDOF 5
ENDMDL
MODEL 2
REMARK VINA RESULT:      -5.9      2.547      7.191
REMARK  5 active torsions:
REMARK  status: ('A' for Active; 'I' for Inactive)
REMARK    1  A    between atoms: C_2  and  C_3 
REMARK    2  A    between atoms: C_3  and  N_4 
REMARK    3  A    between atoms: C_9  and  N_10 
REMARK       I    between atoms: N_10  and  C_11 
REMARK       I    between atoms: C_11  and  N_13 
REMARK    4  A    between atoms: N_13  and  C_14 
REMARK    5  A    between atoms: C_14  and  C_16 
ROOT
HETATM    1  N   UNL     1     -40.676 -50.906  11.059  1.00  0.00    -0.293 N 
HETATM    2  C   UNL     1     -40.881 -51.745  12.185  1.00  0.00     0.322 C 
HETATM    3  O   UNL     1     -40.820 -51.335  13.328  1.00  0.00    -0.247 OA
HETATM    4  N   UNL     1     -41.097 -53.031  11.785  1.00  0.00    -0.338 N 
HETATM    5  H   UNL     1     -40.548 -51.337  10.156  1.00  0.00     0.172 HD
HETATM    6  H   UNL     1     -41.349 -53.225  10.829  1.00  0.00     0.164 HD
ENDROOT
BRANCH   1   7
HETATM    7  C   UNL     1     -40.587 -49.518  11.151  1.00  0.00     0.127 A 
HETATM    8  N   UNL     1     -39.466 -48.760  11.414  1.00  0.00    -0.277 N 
HETATM    9  N   UNL     1     -39.688 -47.434  11.328  1.00  0.00    -0.308 N 
HETATM   10  C   UNL     1     -40.994 -47.342  11.083  1.00  0.00     0.111 A 
ATOM     11  HN  UNL     1     -39.013 -46.676  11.428  1.00  0.00     0.186 HD
HETATM   12  C   UNL     1     -41.600 -48.604  10.961  1.00  0.00     0.068 A 
BRANCH   8  13
HETATM   13  C   UNL     1     -38.145 -49.202  11.836  1.00  0.00     0.150 C 
BRANCH  13  14
HETATM   14  C   UNL     1     -37.998 -49.182  13.358  1.00  0.00     0.017 C 
HETATM   15  C   UNL     1     -37.480 -50.503  13.902  1.00  0.00     0.007 C 
ENDBRANCH  13  14
ENDBRANCH   8  13
ENDBRANCH   1   7
BRANCH   4  16
HETATM   16  C   UNL     1     -41.303 -54.091  12.770  1.00  0.00     0.086 C 
HETATM   17  C   UNL     1     -40.054 -54.275  13.631  1.00  0.00     0.032 C 
BRANCH  16  18
HETATM   18  C   UNL     1     -42.591 -53.870  13.600  1.00  0.00     0.012 C 
HETATM   19  C   UNL     1     -43.906 -54.135  12.849  1.00  0.00     0.033 C 
HETATM   20  C   UNL     1     -45.089 -53.926  13.793  1.00  0.00     0.168 C 
HETATM   21  O   UNL     1     -44.982 -54.817  14.902  1.00  0.00    -0.391 OA
HETATM   22  C   UNL     1     -43.834 -54.546  15.702  1.00  0.00     0.168 C 
HETATM   23  C   UNL     1     -42.559 -54.717  14.886  1.00  0.00     0.033 C 
ENDBRANCH  16  18
ENDBRANCH   4  16
TORSDOF 5
ENDMDL
MODEL 3
REMARK VINA RESULT:      -5.8      2.620      6.663
REMARK  5 active torsions:
REMARK  status: ('A' for Active; 'I' for Inactive)
REMARK    1  A    between atoms: C_2  and  C_3 
REMARK    2  A    between atoms: C_3  and  N_4 
REMARK    3  A    between atoms: C_9  and  N_10 
REMARK       I    between atoms: N_10  and  C_11 
REMARK       I    between atoms: C_11  and  N_13 
REMARK    4  A    between atoms: N_13  and  C_14 
REMARK    5  A    between atoms: C_14  and  C_16 
ROOT
HETATM    1  N   UNL     1     -41.782 -49.044  10.763  1.00  0.00    -0.293 N 
HETATM    2  C   UNL     1     -42.261 -49.644  11.957  1.00  0.00     0.322 C 
HETATM    3  O   UNL     1     -42.649 -48.993  12.908  1.00  0.00    -0.247 OA
HETATM    4  N   UNL     1     -42.168 -51.001  11.876  1.00  0.00    -0.338 N 
HETATM    5  H   UNL     1     -41.298 -49.624  10.095  1.00  0.00     0.172 HD
HETATM    6  H   UNL     1     -42.047 -51.446  10.980  1.00  0.00     0.164 HD
ENDROOT
BRANCH   1   7
HETATM    7  C   UNL     1     -41.900 -47.681  10.496  1.00  0.00     0.127 A 
HETATM    8  N   UNL     1     -42.891 -47.044   9.779  1.00  0.00    -0.277 N 
HETATM    9  N   UNL     1     -42.778 -45.702   9.793  1.00  0.00    -0.308 N 
HETATM   10  C   UNL     1     -41.650 -45.480  10.465  1.00  0.00     0.111 A 
ATOM     11  HN  UNL     1     -43.410 -45.014   9.383  1.00  0.00     0.186 HD
HETATM   12  C   UNL     1     -41.065 -46.673  10.926  1.00  0.00     0.068 A 
BRANCH   8  13
HETATM   13  C   UNL     1     -43.953 -47.630   8.975  1.00  0.00     0.150 C 
BRANCH  13  14
HETATM   14  C   UNL     1     -45.281 -47.677   9.734  1.00  0.00     0.017 C 
HETATM   15  C   UNL     1     -46.381 -46.920   9.011  1.00  0.00     0.007 C 
ENDBRANCH  13  14
ENDBRANCH   8  13
ENDBRANCH   1   7
BRANCH   4  16
HETATM   16  C   UNL     1     -42.572 -51.843  13.001  1.00  0.00     0.086 C 
HETATM   17  C   UNL     1     -43.671 -52.816  12.577  1.00  0.00     0.032 C 
BRANCH  16  18
HETATM   18  C   UNL     1     -41.362 -52.539  13.669  1.00  0.00     0.012 C 
HETATM   19  C   UNL     1     -40.970 -53.896  13.060  1.00  0.00     0.033 C 
HETATM   20  C   UNL     1     -39.741 -54.447  13.779  1.00  0.00     0.168 C 
HETATM   21  O   UNL     1     -38.655 -53.532  13.646  1.00  0.00    -0.391 OA
HETATM   22  C   UNL     1     -38.919 -52.287  14.290  1.00  0.00     0.168 C 
HETATM   23  C   UNL     1     -40.134 -51.609  13.671  1.00  0.00     0.033 C 
ENDBRANCH  16  18
ENDBRANCH   4  16
TORSDOF 5
ENDMDL
MODEL 4
REMARK VINA RESULT:      -5.6      1.793      3.019
REMARK  5 active torsions:
REMARK  status: ('A' for Active; 'I' for Inactive)
REMARK    1  A    between atoms: C_2  and  C_3 
REMARK    2  A    between atoms: C_3  and  N_4 
REMARK    3  A    between atoms: C_9  and  N_10 
REMARK       I    between atoms: N_10  and  C_11 
REMARK       I    between atoms: C_11  and  N_13 
REMARK    4  A    between atoms: N_13  and  C_14 
REMARK    5  A    between atoms: C_14  and  C_16 
ROOT
HETATM    1  N   UNL     1     -42.351 -52.796  12.050  1.00  0.00    -0.293 N 
HETATM    2  C   UNL     1     -41.795 -51.516  12.303  1.00  0.00     0.322 C 
HETATM    3  O   UNL     1     -42.044 -50.880  13.309  1.00  0.00    -0.247 OA
HETATM    4  N   UNL     1     -41.014 -51.122  11.257  1.00  0.00    -0.338 N 
HETATM    5  H   UNL     1     -42.263 -53.183  11.123  1.00  0.00     0.172 HD
HETATM    6  H   UNL     1     -40.695 -51.801  10.584  1.00  0.00     0.164 HD
ENDROOT
BRANCH   1   7
HETATM    7  C   UNL     1     -43.063 -53.519  13.005  1.00  0.00     0.127 A 
HETATM    8  N   UNL     1     -44.431 -53.590  13.165  1.00  0.00    -0.277 N 
HETATM    9  N   UNL     1     -44.811 -54.464  14.117  1.00  0.00    -0.308 N 
HETATM   10  C   UNL     1     -43.663 -54.901  14.630  1.00  0.00     0.111 A 
ATOM     11  HN  UNL     1     -45.759 -54.728  14.384  1.00  0.00     0.186 HD
HETATM   12  C   UNL     1     -42.547 -54.349  13.977  1.00  0.00     0.068 A 
BRANCH   8  13
HETATM   13  C   UNL     1     -45.465 -52.805  12.509  1.00  0.00     0.150 C 
BRANCH  13  14
HETATM   14  C   UNL     1     -45.621 -51.422  13.145  1.00  0.00     0.017 C 
HETATM   15  C   UNL     1     -46.638 -51.422  14.274  1.00  0.00     0.007 C 
ENDBRANCH  13  14
ENDBRANCH   8  13
ENDBRANCH   1   7
BRANCH   4  16
HETATM   16  C   UNL     1     -40.355 -49.818  11.271  1.00  0.00     0.086 C 
HETATM   17  C   UNL     1     -41.350 -48.709  10.927  1.00  0.00     0.032 C 
BRANCH  16  18
HETATM   18  C   UNL     1     -39.592 -49.566  12.593  1.00  0.00     0.012 C 
HETATM   19  C   UNL     1     -38.219 -50.252  12.697  1.00  0.00     0.033 C 
HETATM   20  C   UNL     1     -37.560 -49.885  14.024  1.00  0.00     0.168 C 
HETATM   21  O   UNL     1     -37.395 -48.470  14.104  1.00  0.00    -0.391 OA
HETATM   22  C   UNL     1     -38.644 -47.783  14.123  1.00  0.00     0.168 C 
HETATM   23  C   UNL     1     -39.426 -48.056  12.845  1.00  0.00     0.033 C 
ENDBRANCH  16  18
ENDBRANCH   4  16
TORSDOF 5
ENDMDL
MODEL 5
REMARK VINA RESULT:      -5.6      2.588      6.816
REMARK  5 active torsions:
REMARK  status: ('A' for Active; 'I' for Inactive)
REMARK    1  A    between atoms: C_2  and  C_3 
REMARK    2  A    between atoms: C_3  and  N_4 
REMARK    3  A    between atoms: C_9  and  N_10 
REMARK       I    between atoms: N_10  and  C_11 
REMARK       I    between atoms: C_11  and  N_13 
REMARK    4  A    between atoms: N_13  and  C_14 
REMARK    5  A    between atoms: C_14  and  C_16 
ROOT
HETATM    1  N   UNL     1     -43.133 -48.657  11.846  1.00  0.00    -0.293 N 
HETATM    2  C   UNL     1     -42.109 -49.635  11.752  1.00  0.00     0.322 C 
HETATM    3  O   UNL     1     -41.095 -49.462  11.102  1.00  0.00    -0.247 OA
HETATM    4  N   UNL     1     -42.461 -50.759  12.438  1.00  0.00    -0.338 N 
HETATM    5  H   UNL     1     -44.023 -48.931  12.234  1.00  0.00     0.172 HD
HETATM    6  H   UNL     1     -43.204 -50.723  13.117  1.00  0.00     0.164 HD
ENDROOT
BRANCH   1   7
HETATM    7  C   UNL     1     -42.986 -47.353  11.378  1.00  0.00     0.127 A 
HETATM    8  N   UNL     1     -43.514 -46.804  10.228  1.00  0.00    -0.277 N 
HETATM    9  N   UNL     1     -43.278 -45.483  10.112  1.00  0.00    -0.308 N 
HETATM   10  C   UNL     1     -42.517 -45.198  11.167  1.00  0.00     0.111 A 
ATOM     11  HN  UNL     1     -43.606 -44.848   9.384  1.00  0.00     0.186 HD
HETATM   12  C   UNL     1     -42.305 -46.321  11.986  1.00  0.00     0.068 A 
BRANCH   8  13
HETATM   13  C   UNL     1     -44.200 -47.472   9.132  1.00  0.00     0.150 C 
BRANCH  13  14
HETATM   14  C   UNL     1     -45.672 -47.066   9.050  1.00  0.00     0.017 C 
HETATM   15  C   UNL     1     -46.590 -48.267   8.893  1.00  0.00     0.007 C 
ENDBRANCH  13  14
ENDBRANCH   8  13
ENDBRANCH   1   7
BRANCH   4  16
HETATM   16  C   UNL     1     -41.578 -51.924  12.460  1.00  0.00     0.086 C 
HETATM   17  C   UNL     1     -40.329 -51.635  13.293  1.00  0.00     0.032 C 
BRANCH  16  18
HETATM   18  C   UNL     1     -42.322 -53.208  12.898  1.00  0.00     0.012 C 
HETATM   19  C   UNL     1     -42.146 -53.594  14.376  1.00  0.00     0.033 C 
HETATM   20  C   UNL     1     -42.966 -54.846  14.682  1.00  0.00     0.168 C 
HETATM   21  O   UNL     1     -44.344 -54.596  14.413  1.00  0.00    -0.391 OA
HETATM   22  C   UNL     1     -44.584 -54.340  13.031  1.00  0.00     0.168 C 
HETATM   23  C   UNL     1     -43.824 -53.102  12.575  1.00  0.00     0.033 C 
ENDBRANCH  16  18
ENDBRANCH   4  16
TORSDOF 5
ENDMDL
MODEL 6
REMARK VINA RESULT:      -5.5      2.146      7.473
REMARK  5 active torsions:
REMARK  status: ('A' for Active; 'I' for Inactive)
REMARK    1  A    between atoms: C_2  and  C_3 
REMARK    2  A    between atoms: C_3  and  N_4 
REMARK    3  A    between atoms: C_9  and  N_10 
REMARK       I    between atoms: N_10  and  C_11 
REMARK       I    between atoms: C_11  and  N_13 
REMARK    4  A    between atoms: N_13  and  C_14 
REMARK    5  A    between atoms: C_14  and  C_16 
ROOT
HETATM    1  N   UNL     1     -42.548 -49.665  11.710  1.00  0.00    -0.293 N 
HETATM    2  C   UNL     1     -43.257 -49.819  12.929  1.00  0.00     0.322 C 
HETATM    3  O   UNL     1     -43.015 -49.151  13.917  1.00  0.00    -0.247 OA
HETATM    4  N   UNL     1     -44.172 -50.823  12.823  1.00  0.00    -0.338 N 
HETATM    5  H   UNL     1     -42.660 -50.370  10.997  1.00  0.00     0.172 HD
HETATM    6  H   UNL     1     -44.448 -51.159  11.914  1.00  0.00     0.164 HD
ENDROOT
BRANCH   1   7
HETATM    7  C   UNL     1     -41.662 -48.616  11.472  1.00  0.00     0.127 A 
HETATM    8  N   UNL     1     -40.297 -48.602  11.668  1.00  0.00    -0.277 N 
HETATM    9  N   UNL     1     -39.709 -47.469  11.238  1.00  0.00    -0.308 N 
HETATM   10  C   UNL     1     -40.726 -46.712  10.833  1.00  0.00     0.111 A 
ATOM     11  HN  UNL     1     -38.714 -47.243  11.227  1.00  0.00     0.186 HD
HETATM   12  C   UNL     1     -41.961 -47.374  10.954  1.00  0.00     0.068 A 
BRANCH   8  13
HETATM   13  C   UNL     1     -39.463 -49.594  12.330  1.00  0.00     0.150 C 
BRANCH  13  14
HETATM   14  C   UNL     1     -37.975 -49.261  12.204  1.00  0.00     0.017 C 
HETATM   15  C   UNL     1     -37.306 -50.040  11.085  1.00  0.00     0.007 C 
ENDBRANCH  13  14
ENDBRANCH   8  13
ENDBRANCH   1   7
BRANCH   4  16
HETATM   16  C   UNL     1     -45.006 -51.194  13.965  1.00  0.00     0.086 C 
HETATM   17  C   UNL     1     -46.435 -51.495  13.512  1.00  0.00     0.032 C 
BRANCH  16  18
HETATM   18  C   UNL     1     -44.375 -52.334  14.799  1.00  0.00     0.012 C 
HETATM   19  C   UNL     1     -45.227 -52.830  15.979  1.00  0.00     0.033 C 
HETATM   20  C   UNL     1     -44.511 -53.980  16.684  1.00  0.00     0.168 C 
HETATM   21  O   UNL     1     -44.299 -55.050  15.764  1.00  0.00    -0.391 OA
HETATM   22  C   UNL     1     -43.424 -54.680  14.701  1.00  0.00     0.168 C 
HETATM   23  C   UNL     1     -44.012 -53.529  13.897  1.00  0.00     0.033 C 
ENDBRANCH  16  18
ENDBRANCH   4  16
TORSDOF 5
ENDMDL
MODEL 7
REMARK VINA RESULT:      -5.4      2.027      7.009
REMARK  5 active torsions:
REMARK  status: ('A' for Active; 'I' for Inactive)
REMARK    1  A    between atoms: C_2  and  C_3 
REMARK    2  A    between atoms: C_3  and  N_4 
REMARK    3  A    between atoms: C_9  and  N_10 
REMARK       I    between atoms: N_10  and  C_11 
REMARK       I    between atoms: C_11  and  N_13 
REMARK    4  A    between atoms: N_13  and  C_14 
REMARK    5  A    between atoms: C_14  and  C_16 
ROOT
HETATM    1  N   UNL     1     -42.087 -50.634  11.954  1.00  0.00    -0.293 N 
HETATM    2  C   UNL     1     -43.157 -50.352  12.843  1.00  0.00     0.322 C 
HETATM    3  O   UNL     1     -43.135 -49.415  13.619  1.00  0.00    -0.247 OA
HETATM    4  N   UNL     1     -44.138 -51.290  12.718  1.00  0.00    -0.338 N 
HETATM    5  H   UNL     1     -42.079 -51.524  11.480  1.00  0.00     0.172 HD
HETATM    6  H   UNL     1     -44.165 -51.885  11.905  1.00  0.00     0.164 HD
ENDROOT
BRANCH   1   7
HETATM    7  C   UNL     1     -41.019 -49.763  11.748  1.00  0.00     0.127 A 
HETATM    8  N   UNL     1     -41.021 -48.576  11.046  1.00  0.00    -0.277 N 
HETATM    9  N   UNL     1     -39.852 -47.911  11.123  1.00  0.00    -0.308 N 
HETATM   10  C   UNL     1     -39.063 -48.725  11.822  1.00  0.00     0.111 A 
ATOM     11  HN  UNL     1     -39.624 -46.995  10.735  1.00  0.00     0.186 HD
HETATM   12  C   UNL     1     -39.737 -49.888  12.236  1.00  0.00     0.068 A 
BRANCH   8  13
HETATM   13  C   UNL     1     -42.066 -48.020  10.200  1.00  0.00     0.150 C 
BRANCH  13  14
HETATM   14  C   UNL     1     -42.912 -46.986  10.946  1.00  0.00     0.017 C 
HETATM   15  C   UNL     1     -42.685 -45.577  10.426  1.00  0.00     0.007 C 
ENDBRANCH  13  14
ENDBRANCH   8  13
ENDBRANCH   1   7
BRANCH   4  16
HETATM   16  C   UNL     1     -45.334 -51.231  13.556  1.00  0.00     0.086 C 
HETATM   17  C   UNL     1     -46.573 -51.628  12.753  1.00  0.00     0.032 C 
BRANCH  16  18
HETATM   18  C   UNL     1     -45.167 -52.040  14.864  1.00  0.00     0.012 C 
HETATM   19  C   UNL     1     -46.475 -52.354  15.610  1.00  0.00     0.033 C 
HETATM   20  C   UNL     1     -46.171 -53.191  16.851  1.00  0.00     0.168 C 
HETATM   21  O   UNL     1     -45.536 -54.409  16.465  1.00  0.00    -0.391 OA
HETATM   22  C   UNL     1     -44.263 -54.185  15.863  1.00  0.00     0.168 C 
HETATM   23  C   UNL     1     -44.407 -53.353  14.596  1.00  0.00     0.033 C 
ENDBRANCH  16  18
ENDBRANCH   4  16
TORSDOF 5
ENDMDL
MODEL 8
REMARK VINA RESULT:      -5.4      3.058      6.902
REMARK  5 active torsions:
REMARK  status: ('A' for Active; 'I' for Inactive)
REMARK    1  A    between atoms: C_2  and  C_3 
REMARK    2  A    between atoms: C_3  and  N_4 
REMARK    3  A    between atoms: C_9  and  N_10 
REMARK       I    between atoms: N_10  and  C_11 
REMARK       I    between atoms: C_11  and  N_13 
REMARK    4  A    between atoms: N_13  and  C_14 
REMARK    5  A    between atoms: C_14  and  C_16 
ROOT
HETATM    1  N   UNL     1     -41.933 -48.506  10.209  1.00  0.00    -0.293 N 
HETATM    2  C   UNL     1     -42.069 -49.212  11.432  1.00  0.00     0.322 C 
HETATM    3  O   UNL     1     -42.758 -48.808  12.349  1.00  0.00    -0.247 OA
HETATM    4  N   UNL     1     -41.296 -50.335  11.421  1.00  0.00    -0.338 N 
HETATM    5  H   UNL     1     -41.204 -48.788   9.570  1.00  0.00     0.172 HD
HETATM    6  H   UNL     1     -40.943 -50.695  10.548  1.00  0.00     0.164 HD
ENDROOT
BRANCH   1   7
HETATM    7  C   UNL     1     -42.721 -47.408   9.872  1.00  0.00     0.127 A 
HETATM    8  N   UNL     1     -42.590 -46.108  10.313  1.00  0.00    -0.277 N 
HETATM    9  N   UNL     1     -43.445 -45.254   9.717  1.00  0.00    -0.308 N 
HETATM   10  C   UNL     1     -44.190 -46.037   8.939  1.00  0.00     0.111 A 
ATOM     11  HN  UNL     1     -43.508 -44.243   9.836  1.00  0.00     0.186 HD
HETATM   12  C   UNL     1     -43.784 -47.381   8.996  1.00  0.00     0.068 A 
BRANCH   8  13
HETATM   13  C   UNL     1     -41.727 -45.585  11.362  1.00  0.00     0.150 C 
BRANCH  13  14
HETATM   14  C   UNL     1     -40.249 -45.849  11.067  1.00  0.00     0.017 C 
HETATM   15  C   UNL     1     -39.672 -44.844  10.084  1.00  0.00     0.007 C 
ENDBRANCH  13  14
ENDBRANCH   8  13
ENDBRANCH   1   7
BRANCH   4  16
HETATM   16  C   UNL     1     -41.243 -51.213  12.588  1.00  0.00     0.086 C 
HETATM   17  C   UNL     1     -41.966 -52.530  12.303  1.00  0.00     0.032 C 
BRANCH  16  18
HETATM   18  C   UNL     1     -39.797 -51.407  13.104  1.00  0.00     0.012 C 
HETATM   19  C   UNL     1     -38.709 -50.693  12.284  1.00  0.00     0.033 C 
HETATM   20  C   UNL     1     -37.343 -50.929  12.926  1.00  0.00     0.168 C 
HETATM   21  O   UNL     1     -37.345 -50.425  14.260  1.00  0.00    -0.391 OA
HETATM   22  C   UNL     1     -38.261 -51.126  15.099  1.00  0.00     0.168 C 
HETATM   23  C   UNL     1     -39.685 -50.980  14.579  1.00  0.00     0.033 C 
ENDBRANCH  16  18
ENDBRANCH   4  16
TORSDOF 5
ENDMDL
MODEL 9
REMARK VINA RESULT:      -5.4      1.281      2.572
REMARK  5 active torsions:
REMARK  status: ('A' for Active; 'I' for Inactive)
REMARK    1  A    between atoms: C_2  and  C_3 
REMARK    2  A    between atoms: C_3  and  N_4 
REMARK    3  A    between atoms: C_9  and  N_10 
REMARK       I    between atoms: N_10  and  C_11 
REMARK       I    between atoms: C_11  and  N_13 
REMARK    4  A    between atoms: N_13  and  C_14 
REMARK    5  A    between atoms: C_14  and  C_16 
ROOT
HETATM    1  N   UNL     1     -44.131 -51.214  12.672  1.00  0.00    -0.293 N 
HETATM    2  C   UNL     1     -43.137 -50.235  12.934  1.00  0.00     0.322 C 
HETATM    3  O   UNL     1     -43.096 -49.603  13.972  1.00  0.00    -0.247 OA
HETATM    4  N   UNL     1     -42.312 -50.097  11.858  1.00  0.00    -0.338 N 
HETATM    5  H   UNL     1     -44.227 -51.560  11.730  1.00  0.00     0.172 HD
HETATM    6  H   UNL     1     -42.288 -50.810  11.146  1.00  0.00     0.164 HD
ENDROOT
BRANCH   1   7
HETATM    7  C   UNL     1     -45.015 -51.679  13.644  1.00  0.00     0.127 A 
HETATM    8  N   UNL     1     -44.730 -52.478  14.731  1.00  0.00    -0.277 N 
HETATM    9  N   UNL     1     -45.786 -52.664  15.546  1.00  0.00    -0.308 N 
HETATM   10  C   UNL     1     -46.785 -52.037  14.927  1.00  0.00     0.111 A 
ATOM     11  HN  UNL     1     -45.815 -53.168  16.432  1.00  0.00     0.186 HD
HETATM   12  C   UNL     1     -46.362 -51.408  13.743  1.00  0.00     0.068 A 
BRANCH   8  13
HETATM   13  C   UNL     1     -43.495 -53.181  15.046  1.00  0.00     0.150 C 
BRANCH  13  14
HETATM   14  C   UNL     1     -43.597 -54.676  14.740  1.00  0.00     0.017 C 
HETATM   15  C   UNL     1     -42.653 -55.502  15.595  1.00  0.00     0.007 C 
ENDBRANCH  13  14
ENDBRANCH   8  13
ENDBRANCH   1   7
BRANCH   4  16
HETATM   16  C   UNL     1     -41.225 -49.120  11.875  1.00  0.00     0.086 C 
HETATM   17  C   UNL     1     -39.872 -49.819  11.737  1.00  0.00     0.032 C 
BRANCH  16  18
HETATM   18  C   UNL     1     -41.440 -47.994  10.836  1.00  0.00     0.012 C 
HETATM   19  C   UNL     1     -42.907 -47.607  10.586  1.00  0.00     0.033 C 
HETATM   20  C   UNL     1     -42.972 -46.459   9.580  1.00  0.00     0.168 C 
HETATM   21  O   UNL     1     -42.261 -45.333  10.090  1.00  0.00    -0.391 OA
HETATM   22  C   UNL     1     -40.868 -45.599  10.240  1.00  0.00     0.168 C 
HETATM   23  C   UNL     1     -40.642 -46.735  11.227  1.00  0.00     0.033 C 
ENDBRANCH  16  18
ENDBRANCH   4  16
TORSDOF 5
ENDMDL
