MODEL 1
REMARK VINA RESULT:      -5.9      0.000      0.000
REMARK  6 active torsions:
REMARK  status: ('A' for Active; 'I' for Inactive)
REMARK    1  A    between atoms: C_2  and  N_4 
REMARK    2  A    between atoms: N_4  and  C_6 
REMARK    3  A    between atoms: C_6  and  C_7 
REMARK    4  A    between atoms: C_7  and  N_8 
REMARK       I    between atoms: N_8  and  C_9 
REMARK    5  A    between atoms: C_9  and  C_11 
REMARK    6  A    between atoms: C_17  and  N_18 
ROOT
HETATM    1  C   UNL     1     -41.837 -49.233  11.908  1.00  0.00     0.075 A 
HETATM    2  C   UNL     1     -42.797 -48.435  11.250  1.00  0.00     0.022 A 
HETATM    3  C   UNL     1     -42.438 -47.254  10.617  1.00  0.00     0.018 A 
HETATM    4  C   UNL     1     -41.118 -46.895  10.676  1.00  0.00     0.089 A 
HETATM    5  N   UNL     1     -40.175 -47.638  11.290  1.00  0.00    -0.352 N 
ATOM      6  HN  UNL     1     -39.206 -47.317  11.293  1.00  0.00     0.166 HD
HETATM    7  C   UNL     1     -40.495 -48.814  11.908  1.00  0.00     0.119 A 
ENDROOT
BRANCH   1   8
HETATM    8  C   UNL     1     -42.363 -50.409  12.663  1.00  0.00     0.255 C 
HETATM    9  N   UNL     1     -42.264 -51.636  12.031  1.00  0.00    -0.355 N 
HETATM   10  H   UNL     1     -41.839 -51.702  11.116  1.00  0.00     0.162 HD
HETATM   11  O   UNL     1     -42.904 -50.280  13.755  1.00  0.00    -0.268 OA
BRANCH   9  12
HETATM   12  C   UNL     1     -42.811 -52.851  12.612  1.00  0.00     0.153 C 
BRANCH  12  13
HETATM   13  C   UNL     1     -44.326 -53.096  12.377  1.00  0.00     0.292 C 
BRANCH  13  14
HETATM   14  N   UNL     1     -45.221 -53.302  13.546  1.00  0.00     0.089 N 
HETATM   15  C   UNL     1     -45.464 -54.730  13.758  1.00  0.00     0.310 C 
BRANCH  14  16
HETATM   16  C   UNL     1     -46.455 -52.492  13.525  1.00  0.00     0.214 C 
HETATM   17  C   UNL     1     -46.517 -51.420  14.627  1.00  0.00     0.042 C 
HETATM   18  C   UNL     1     -46.661 -51.758  12.190  1.00  0.00     0.042 C 
ENDBRANCH  14  16
ENDBRANCH  13  14
ENDBRANCH  12  13
ENDBRANCH   9  12
ENDBRANCH   1   8
BRANCH   7  19
HETATM   19  N   UNL     1     -39.396 -49.509  12.367  1.00  0.00    -0.362 N 
HETATM   20  C   UNL     1     -38.166 -49.431  11.552  1.00  0.00     0.150 C 
HETATM   21  C   UNL     1     -37.353 -50.725  11.714  1.00  0.00     0.187 C 
HETATM   22  O   UNL     1     -37.061 -51.002  13.092  1.00  0.00    -0.388 OA
HETATM   23  C   UNL     1     -38.284 -51.139  13.832  1.00  0.00     0.187 C 
HETATM   24  C   UNL     1     -39.140 -49.862  13.767  1.00  0.00     0.150 C 
ENDBRANCH   7  19
TORSDOF 6
ENDMDL
MODEL 2
REMARK VINA RESULT:      -5.9      2.916      4.320
REMARK  6 active torsions:
REMARK  status: ('A' for Active; 'I' for Inactive)
REMARK    1  A    between atoms: C_2  and  N_4 
REMARK    2  A    between atoms: N_4  and  C_6 
REMARK    3  A    between atoms: C_6  and  C_7 
REMARK    4  A    between atoms: C_7  and  N_8 
REMARK       I    between atoms: N_8  and  C_9 
REMARK    5  A    between atoms: C_9  and  C_11 
REMARK    6  A    between atoms: C_17  and  N_18 
ROOT
HETATM    1  C   UNL     1     -43.613 -47.329  10.765  1.00  0.00     0.075 A 
HETATM    2  C   UNL     1     -44.771 -47.834  10.135  1.00  0.00     0.022 A 
HETATM    3  C   UNL     1     -45.434 -47.104   9.161  1.00  0.00     0.018 A 
HETATM    4  C   UNL     1     -44.924 -45.871   8.853  1.00  0.00     0.089 A 
HETATM    5  N   UNL     1     -43.817 -45.363   9.431  1.00  0.00    -0.352 N 
ATOM      6  HN  UNL     1     -43.485 -44.438   9.154  1.00  0.00     0.166 HD
HETATM    7  C   UNL     1     -43.132 -46.065  10.383  1.00  0.00     0.119 A 
ENDROOT
BRANCH   1   8
HETATM    8  C   UNL     1     -43.064 -48.147  11.888  1.00  0.00     0.255 C 
HETATM    9  N   UNL     1     -42.740 -49.458  11.588  1.00  0.00    -0.355 N 
HETATM   10  H   UNL     1     -42.865 -49.809  10.649  1.00  0.00     0.162 HD
HETATM   11  O   UNL     1     -42.964 -47.693  13.022  1.00  0.00    -0.268 OA
BRANCH   9  12
HETATM   12  C   UNL     1     -42.277 -50.391  12.603  1.00  0.00     0.153 C 
BRANCH  12  13
HETATM   13  C   UNL     1     -43.339 -51.377  13.159  1.00  0.00     0.292 C 
BRANCH  13  14
HETATM   14  N   UNL     1     -44.528 -50.842  13.872  1.00  0.00     0.089 N 
HETATM   15  C   UNL     1     -44.164 -50.423  15.227  1.00  0.00     0.310 C 
BRANCH  14  16
HETATM   16  C   UNL     1     -45.717 -51.716  13.827  1.00  0.00     0.214 C 
HETATM   17  C   UNL     1     -46.735 -51.445  14.948  1.00  0.00     0.042 C 
HETATM   18  C   UNL     1     -46.487 -51.603  12.501  1.00  0.00     0.042 C 
ENDBRANCH  14  16
ENDBRANCH  13  14
ENDBRANCH  12  13
ENDBRANCH   9  12
ENDBRANCH   1   8
BRANCH   7  19
HETATM   19  N   UNL     1     -41.955 -45.459  10.770  1.00  0.00    -0.362 N 
HETATM   20  C   UNL     1     -42.038 -44.481  11.874  1.00  0.00     0.150 C 
HETATM   21  C   UNL     1     -40.945 -43.414  11.705  1.00  0.00     0.187 C 
HETATM   22  O   UNL     1     -39.638 -44.001  11.612  1.00  0.00    -0.388 OA
HETATM   23  C   UNL     1     -39.581 -44.890  10.487  1.00  0.00     0.187 C 
HETATM   24  C   UNL     1     -40.614 -46.025  10.600  1.00  0.00     0.150 C 
ENDBRANCH   7  19
TORSDOF 6
ENDMDL
MODEL 3
REMARK VINA RESULT:      -5.7      2.722      6.040
REMARK  6 active torsions:
REMARK  status: ('A' for Active; 'I' for Inactive)
REMARK    1  A    between atoms: C_2  and  N_4 
REMARK    2  A    between atoms: N_4  and  C_6 
REMARK    3  A    between atoms: C_6  and  C_7 
REMARK    4  A    between atoms: C_7  and  N_8 
REMARK       I    between atoms: N_8  and  C_9 
REMARK    5  A    between atoms: C_9  and  C_11 
REMARK    6  A    between atoms: C_17  and  N_18 
ROOT
HETATM    1  C   UNL     1     -44.625 -51.477  14.176  1.00  0.00     0.075 A 
HETATM    2  C   UNL     1     -46.020 -51.331  14.326  1.00  0.00     0.022 A 
HETATM    3  C   UNL     1     -46.846 -52.435  14.479  1.00  0.00     0.018 A 
HETATM    4  C   UNL     1     -46.247 -53.666  14.459  1.00  0.00     0.089 A 
HETATM    5  N   UNL     1     -44.916 -53.840  14.324  1.00  0.00    -0.352 N 
ATOM      6  HN  UNL     1     -44.531 -54.785  14.322  1.00  0.00     0.166 HD
HETATM    7  C   UNL     1     -44.075 -52.771  14.188  1.00  0.00     0.119 A 
ENDROOT
BRANCH   1   8
HETATM    8  C   UNL     1     -43.858 -50.228  13.889  1.00  0.00     0.255 C 
HETATM    9  N   UNL     1     -43.647 -49.933  12.554  1.00  0.00    -0.355 N 
HETATM   10  H   UNL     1     -44.018 -50.540  11.836  1.00  0.00     0.162 HD
HETATM   11  O   UNL     1     -43.394 -49.540  14.790  1.00  0.00    -0.268 OA
BRANCH   9  12
HETATM   12  C   UNL     1     -42.845 -48.796  12.131  1.00  0.00     0.153 C 
BRANCH  12  13
HETATM   13  C   UNL     1     -43.548 -47.775  11.197  1.00  0.00     0.292 C 
BRANCH  13  14
HETATM   14  N   UNL     1     -42.888 -47.372   9.928  1.00  0.00     0.089 N 
HETATM   15  C   UNL     1     -41.984 -46.244  10.160  1.00  0.00     0.310 C 
BRANCH  14  16
HETATM   16  C   UNL     1     -43.810 -47.164   8.794  1.00  0.00     0.214 C 
HETATM   17  C   UNL     1     -43.457 -47.986   7.543  1.00  0.00     0.042 C 
HETATM   18  C   UNL     1     -45.268 -47.505   9.145  1.00  0.00     0.042 C 
ENDBRANCH  14  16
ENDBRANCH  13  14
ENDBRANCH  12  13
ENDBRANCH   9  12
ENDBRANCH   1   8
BRANCH   7  19
HETATM   19  N   UNL     1     -42.740 -53.119  14.195  1.00  0.00    -0.362 N 
HETATM   20  C   UNL     1     -42.052 -53.154  12.888  1.00  0.00     0.150 C 
HETATM   21  C   UNL     1     -40.926 -54.199  12.923  1.00  0.00     0.187 C 
HETATM   22  O   UNL     1     -40.009 -53.958  14.001  1.00  0.00    -0.388 OA
HETATM   23  C   UNL     1     -40.707 -54.002  15.255  1.00  0.00     0.187 C 
HETATM   24  C   UNL     1     -41.825 -52.947  15.326  1.00  0.00     0.150 C 
ENDBRANCH   7  19
TORSDOF 6
ENDMDL
MODEL 4
REMARK VINA RESULT:      -5.6      2.890      4.680
REMARK  6 active torsions:
REMARK  status: ('A' for Active; 'I' for Inactive)
REMARK    1  A    between atoms: C_2  and  N_4 
REMARK    2  A    between atoms: N_4  and  C_6 
REMARK    3  A    between atoms: C_6  and  C_7 
REMARK    4  A    between atoms: C_7  and  N_8 
REMARK       I    between atoms: N_8  and  C_9 
REMARK    5  A    between atoms: C_9  and  C_11 
REMARK    6  A    between atoms: C_17  and  N_18 
ROOT
HETATM    1  C   UNL     1     -43.544 -47.371  10.698  1.00  0.00     0.075 A 
HETATM    2  C   UNL     1     -44.699 -47.926  10.108  1.00  0.00     0.022 A 
HETATM    3  C   UNL     1     -45.439 -47.217   9.173  1.00  0.00     0.018 A 
HETATM    4  C   UNL     1     -45.006 -45.955   8.865  1.00  0.00     0.089 A 
HETATM    5  N   UNL     1     -43.903 -45.399   9.406  1.00  0.00    -0.352 N 
ATOM      6  HN  UNL     1     -43.630 -44.455   9.130  1.00  0.00     0.166 HD
HETATM    7  C   UNL     1     -43.144 -46.078  10.317  1.00  0.00     0.119 A 
ENDROOT
BRANCH   1   8
HETATM    8  C   UNL     1     -42.907 -48.175  11.784  1.00  0.00     0.255 C 
HETATM    9  N   UNL     1     -42.261 -49.333  11.389  1.00  0.00    -0.355 N 
HETATM   10  H   UNL     1     -42.225 -49.585  10.411  1.00  0.00     0.162 HD
HETATM   11  O   UNL     1     -43.006 -47.853  12.962  1.00  0.00    -0.268 OA
BRANCH   9  12
HETATM   12  C   UNL     1     -41.672 -50.254  12.348  1.00  0.00     0.153 C 
BRANCH  12  13
HETATM   13  C   UNL     1     -41.944 -51.762  12.099  1.00  0.00     0.292 C 
BRANCH  13  14
HETATM   14  N   UNL     1     -41.875 -52.713  13.240  1.00  0.00     0.089 N 
HETATM   15  C   UNL     1     -40.865 -53.743  12.986  1.00  0.00     0.310 C 
BRANCH  14  16
HETATM   16  C   UNL     1     -43.179 -53.260  13.663  1.00  0.00     0.214 C 
HETATM   17  C   UNL     1     -44.170 -53.480  12.506  1.00  0.00     0.042 C 
HETATM   18  C   UNL     1     -43.049 -54.610  14.389  1.00  0.00     0.042 C 
ENDBRANCH  14  16
ENDBRANCH  13  14
ENDBRANCH  12  13
ENDBRANCH   9  12
ENDBRANCH   1   8
BRANCH   7  19
HETATM   19  N   UNL     1     -41.984 -45.418  10.666  1.00  0.00    -0.362 N 
HETATM   20  C   UNL     1     -42.098 -44.368  11.699  1.00  0.00     0.150 C 
HETATM   21  C   UNL     1     -41.030 -43.288  11.460  1.00  0.00     0.187 C 
HETATM   22  O   UNL     1     -39.708 -43.848  11.413  1.00  0.00    -0.388 OA
HETATM   23  C   UNL     1     -39.624 -44.812  10.352  1.00  0.00     0.187 C 
HETATM   24  C   UNL     1     -40.629 -45.962  10.541  1.00  0.00     0.150 C 
ENDBRANCH   7  19
TORSDOF 6
ENDMDL
MODEL 5
REMARK VINA RESULT:      -5.6      1.691      3.839
REMARK  6 active torsions:
REMARK  status: ('A' for Active; 'I' for Inactive)
REMARK    1  A    between atoms: C_2  and  N_4 
REMARK    2  A    between atoms: N_4  and  C_6 
REMARK    3  A    between atoms: C_6  and  C_7 
REMARK    4  A    between atoms: C_7  and  N_8 
REMARK       I    between atoms: N_8  and  C_9 
REMARK    5  A    between atoms: C_9  and  C_11 
REMARK    6  A    between atoms: C_17  and  N_18 
ROOT
HETATM    1  C   UNL     1     -39.541 -49.913  13.043  1.00  0.00     0.075 A 
HETATM    2  C   UNL     1     -38.434 -50.746  13.315  1.00  0.00     0.022 A 
HETATM    3  C   UNL     1     -37.362 -50.824  12.438  1.00  0.00     0.018 A 
HETATM    4  C   UNL     1     -37.437 -50.072  11.297  1.00  0.00     0.089 A 
HETATM    5  N   UNL     1     -38.476 -49.262  11.010  1.00  0.00    -0.352 N 
ATOM      6  HN  UNL     1     -38.468 -48.723  10.143  1.00  0.00     0.166 HD
HETATM    7  C   UNL     1     -39.539 -49.150  11.862  1.00  0.00     0.119 A 
ENDROOT
BRANCH   1   8
HETATM    8  C   UNL     1     -40.689 -50.012  13.992  1.00  0.00     0.255 C 
HETATM    9  N   UNL     1     -41.801 -50.697  13.538  1.00  0.00    -0.355 N 
HETATM   10  H   UNL     1     -41.800 -51.110  12.615  1.00  0.00     0.162 HD
HETATM   11  O   UNL     1     -40.664 -49.464  15.088  1.00  0.00    -0.268 OA
BRANCH   9  12
HETATM   12  C   UNL     1     -43.022 -50.797  14.322  1.00  0.00     0.153 C 
BRANCH  12  13
HETATM   13  C   UNL     1     -43.602 -52.226  14.500  1.00  0.00     0.292 C 
BRANCH  13  14
HETATM   14  N   UNL     1     -44.788 -52.635  13.703  1.00  0.00     0.089 N 
HETATM   15  C   UNL     1     -44.368 -53.297  12.466  1.00  0.00     0.310 C 
BRANCH  14  16
HETATM   16  C   UNL     1     -45.783 -51.565  13.488  1.00  0.00     0.214 C 
HETATM   17  C   UNL     1     -46.658 -51.768  12.239  1.00  0.00     0.042 C 
HETATM   18  C   UNL     1     -46.746 -51.404  14.676  1.00  0.00     0.042 C 
ENDBRANCH  14  16
ENDBRANCH  13  14
ENDBRANCH  12  13
ENDBRANCH   9  12
ENDBRANCH   1   8
BRANCH   7  19
HETATM   19  N   UNL     1     -40.447 -48.183  11.482  1.00  0.00    -0.362 N 
HETATM   20  C   UNL     1     -39.965 -46.787  11.459  1.00  0.00     0.150 C 
HETATM   21  C   UNL     1     -41.131 -45.831  11.760  1.00  0.00     0.187 C 
HETATM   22  O   UNL     1     -42.230 -46.030  10.857  1.00  0.00    -0.388 OA
HETATM   23  C   UNL     1     -42.710 -47.379  10.963  1.00  0.00     0.187 C 
HETATM   24  C   UNL     1     -41.615 -48.406  10.626  1.00  0.00     0.150 C 
ENDBRANCH   7  19
TORSDOF 6
ENDMDL
MODEL 6
REMARK VINA RESULT:      -5.5      2.856      4.347
REMARK  6 active torsions:
REMARK  status: ('A' for Active; 'I' for Inactive)
REMARK    1  A    between atoms: C_2  and  N_4 
REMARK    2  A    between atoms: N_4  and  C_6 
REMARK    3  A    between atoms: C_6  and  C_7 
REMARK    4  A    between atoms: C_7  and  N_8 
REMARK       I    between atoms: N_8  and  C_9 
REMARK    5  A    between atoms: C_9  and  C_11 
REMARK    6  A    between atoms: C_17  and  N_18 
ROOT
HETATM    1  C   UNL     1     -42.258 -47.281  10.314  1.00  0.00     0.075 A 
HETATM    2  C   UNL     1     -42.948 -47.787   9.192  1.00  0.00     0.022 A 
HETATM    3  C   UNL     1     -43.868 -47.009   8.504  1.00  0.00     0.018 A 
HETATM    4  C   UNL     1     -44.084 -45.741   8.974  1.00  0.00     0.089 A 
HETATM    5  N   UNL     1     -43.436 -45.225  10.038  1.00  0.00    -0.352 N 
ATOM      6  HN  UNL     1     -43.639 -44.270  10.334  1.00  0.00     0.166 HD
HETATM    7  C   UNL     1     -42.513 -45.961  10.726  1.00  0.00     0.119 A 
ENDROOT
BRANCH   1   8
HETATM    8  C   UNL     1     -41.394 -48.252  11.049  1.00  0.00     0.255 C 
HETATM    9  N   UNL     1     -41.984 -49.452  11.401  1.00  0.00    -0.355 N 
HETATM   10  H   UNL     1     -42.944 -49.639  11.146  1.00  0.00     0.162 HD
HETATM   11  O   UNL     1     -40.245 -47.971  11.372  1.00  0.00    -0.268 OA
BRANCH   9  12
HETATM   12  C   UNL     1     -41.287 -50.454  12.192  1.00  0.00     0.153 C 
BRANCH  12  13
HETATM   13  C   UNL     1     -41.656 -51.933  11.897  1.00  0.00     0.292 C 
BRANCH  13  14
HETATM   14  N   UNL     1     -42.420 -52.709  12.908  1.00  0.00     0.089 N 
HETATM   15  C   UNL     1     -41.757 -53.986  13.179  1.00  0.00     0.310 C 
BRANCH  14  16
HETATM   16  C   UNL     1     -43.861 -52.845  12.617  1.00  0.00     0.214 C 
HETATM   17  C   UNL     1     -44.474 -54.170  13.102  1.00  0.00     0.042 C 
HETATM   18  C   UNL     1     -44.702 -51.720  13.244  1.00  0.00     0.042 C 
ENDBRANCH  14  16
ENDBRANCH  13  14
ENDBRANCH  12  13
ENDBRANCH   9  12
ENDBRANCH   1   8
BRANCH   7  19
HETATM   19  N   UNL     1     -41.852 -45.240  11.699  1.00  0.00    -0.362 N 
HETATM   20  C   UNL     1     -40.720 -44.401  11.256  1.00  0.00     0.150 C 
HETATM   21  C   UNL     1     -39.686 -44.285  12.388  1.00  0.00     0.187 C 
HETATM   22  O   UNL     1     -40.277 -43.787  13.599  1.00  0.00    -0.388 OA
HETATM   23  C   UNL     1     -41.324 -44.669  14.030  1.00  0.00     0.187 C 
HETATM   24  C   UNL     1     -42.433 -44.803  12.972  1.00  0.00     0.150 C 
ENDBRANCH   7  19
TORSDOF 6
ENDMDL
MODEL 7
REMARK VINA RESULT:      -5.4      2.755      7.400
REMARK  6 active torsions:
REMARK  status: ('A' for Active; 'I' for Inactive)
REMARK    1  A    between atoms: C_2  and  N_4 
REMARK    2  A    between atoms: N_4  and  C_6 
REMARK    3  A    between atoms: C_6  and  C_7 
REMARK    4  A    between atoms: C_7  and  N_8 
REMARK       I    between atoms: N_8  and  C_9 
REMARK    5  A    between atoms: C_9  and  C_11 
REMARK    6  A    between atoms: C_17  and  N_18 
ROOT
HETATM    1  C   UNL     1     -40.574 -53.716  13.924  1.00  0.00     0.075 A 
HETATM    2  C   UNL     1     -39.260 -54.183  14.144  1.00  0.00     0.022 A 
HETATM    3  C   UNL     1     -38.959 -54.996  15.227  1.00  0.00     0.018 A 
HETATM    4  C   UNL     1     -39.988 -55.308  16.075  1.00  0.00     0.089 A 
HETATM    5  N   UNL     1     -41.255 -54.884  15.890  1.00  0.00    -0.352 N 
ATOM      6  HN  UNL     1     -41.978 -55.156  16.557  1.00  0.00     0.166 HD
HETATM    7  C   UNL     1     -41.586 -54.096  14.824  1.00  0.00     0.119 A 
ENDROOT
BRANCH   1   8
HETATM    8  C   UNL     1     -40.749 -52.744  12.805  1.00  0.00     0.255 C 
HETATM    9  N   UNL     1     -41.040 -51.441  13.166  1.00  0.00    -0.355 N 
HETATM   10  H   UNL     1     -41.107 -51.189  14.142  1.00  0.00     0.162 HD
HETATM   11  O   UNL     1     -40.696 -53.100  11.633  1.00  0.00    -0.268 OA
BRANCH   9  12
HETATM   12  C   UNL     1     -41.319 -50.410  12.179  1.00  0.00     0.153 C 
BRANCH  12  13
HETATM   13  C   UNL     1     -40.131 -49.483  11.806  1.00  0.00     0.292 C 
BRANCH  13  14
HETATM   14  N   UNL     1     -39.150 -49.099  12.854  1.00  0.00     0.089 N 
HETATM   15  C   UNL     1     -39.202 -47.656  13.098  1.00  0.00     0.310 C 
BRANCH  14  16
HETATM   16  C   UNL     1     -37.782 -49.608  12.633  1.00  0.00     0.214 C 
HETATM   17  C   UNL     1     -37.476 -50.921  13.375  1.00  0.00     0.042 C 
HETATM   18  C   UNL     1     -37.478 -49.866  11.147  1.00  0.00     0.042 C 
ENDBRANCH  14  16
ENDBRANCH  13  14
ENDBRANCH  12  13
ENDBRANCH   9  12
ENDBRANCH   1   8
BRANCH   7  19
HETATM   19  N   UNL     1     -42.941 -53.864  14.713  1.00  0.00    -0.362 N 
HETATM   20  C   UNL     1     -43.813 -55.049  14.575  1.00  0.00     0.150 C 
HETATM   21  C   UNL     1     -45.061 -54.683  13.756  1.00  0.00     0.187 C 
HETATM   22  O   UNL     1     -45.764 -53.569  14.328  1.00  0.00    -0.388 OA
HETATM   23  C   UNL     1     -44.902 -52.422  14.380  1.00  0.00     0.187 C 
HETATM   24  C   UNL     1     -43.645 -52.686  15.226  1.00  0.00     0.150 C 
ENDBRANCH   7  19
TORSDOF 6
ENDMDL
MODEL 8
REMARK VINA RESULT:      -5.2      1.911      5.996
REMARK  6 active torsions:
REMARK  status: ('A' for Active; 'I' for Inactive)
REMARK    1  A    between atoms: C_2  and  N_4 
REMARK    2  A    between atoms: N_4  and  C_6 
REMARK    3  A    between atoms: C_6  and  C_7 
REMARK    4  A    between atoms: C_7  and  N_8 
REMARK       I    between atoms: N_8  and  C_9 
REMARK    5  A    between atoms: C_9  and  C_11 
REMARK    6  A    between atoms: C_17  and  N_18 
ROOT
HETATM    1  C   UNL     1     -44.477 -51.423  14.061  1.00  0.00     0.075 A 
HETATM    2  C   UNL     1     -45.873 -51.256  14.182  1.00  0.00     0.022 A 
HETATM    3  C   UNL     1     -46.713 -52.345  14.363  1.00  0.00     0.018 A 
HETATM    4  C   UNL     1     -46.128 -53.582  14.401  1.00  0.00     0.089 A 
HETATM    5  N   UNL     1     -44.797 -53.775  14.294  1.00  0.00    -0.352 N 
ATOM      6  HN  UNL     1     -44.423 -54.724  14.335  1.00  0.00     0.166 HD
HETATM    7  C   UNL     1     -43.942 -52.722  14.132  1.00  0.00     0.119 A 
ENDROOT
BRANCH   1   8
HETATM    8  C   UNL     1     -43.692 -50.195  13.739  1.00  0.00     0.255 C 
HETATM    9  N   UNL     1     -43.248 -50.077  12.434  1.00  0.00    -0.355 N 
HETATM   10  H   UNL     1     -43.473 -50.791  11.755  1.00  0.00     0.162 HD
HETATM   11  O   UNL     1     -43.409 -49.371  14.601  1.00  0.00    -0.268 OA
BRANCH   9  12
HETATM   12  C   UNL     1     -42.401 -48.976  12.002  1.00  0.00     0.153 C 
BRANCH  12  13
HETATM   13  C   UNL     1     -40.908 -49.321  11.756  1.00  0.00     0.292 C 
BRANCH  13  14
HETATM   14  N   UNL     1     -40.140 -50.029  12.812  1.00  0.00     0.089 N 
HETATM   15  C   UNL     1     -39.950 -49.160  13.975  1.00  0.00     0.310 C 
BRANCH  14  16
HETATM   16  C   UNL     1     -38.893 -50.665  12.343  1.00  0.00     0.214 C 
HETATM   17  C   UNL     1     -38.010 -49.747  11.480  1.00  0.00     0.042 C 
HETATM   18  C   UNL     1     -38.008 -51.160  13.500  1.00  0.00     0.042 C 
ENDBRANCH  14  16
ENDBRANCH  13  14
ENDBRANCH  12  13
ENDBRANCH   9  12
ENDBRANCH   1   8
BRANCH   7  19
HETATM   19  N   UNL     1     -42.612 -53.084  14.175  1.00  0.00    -0.362 N 
HETATM   20  C   UNL     1     -41.926 -53.262  12.879  1.00  0.00     0.150 C 
HETATM   21  C   UNL     1     -40.812 -54.312  13.022  1.00  0.00     0.187 C 
HETATM   22  O   UNL     1     -39.891 -53.971  14.069  1.00  0.00    -0.388 OA
HETATM   23  C   UNL     1     -40.588 -53.876  15.321  1.00  0.00     0.187 C 
HETATM   24  C   UNL     1     -41.693 -52.806  15.282  1.00  0.00     0.150 C 
ENDBRANCH   7  19
TORSDOF 6
ENDMDL
MODEL 9
REMARK VINA RESULT:      -5.2      1.499      2.116
REMARK  6 active torsions:
REMARK  status: ('A' for Active; 'I' for Inactive)
REMARK    1  A    between atoms: C_2  and  N_4 
REMARK    2  A    between atoms: N_4  and  C_6 
REMARK    3  A    between atoms: C_6  and  C_7 
REMARK    4  A    between atoms: C_7  and  N_8 
REMARK       I    between atoms: N_8  and  C_9 
REMARK    5  A    between atoms: C_9  and  C_11 
REMARK    6  A    between atoms: C_17  and  N_18 
ROOT
HETATM    1  C   UNL     1     -42.088 -47.718  12.044  1.00  0.00     0.075 A 
HETATM    2  C   UNL     1     -42.825 -46.711  11.386  1.00  0.00     0.022 A 
HETATM    3  C   UNL     1     -42.204 -45.796  10.549  1.00  0.00     0.018 A 
HETATM    4  C   UNL     1     -40.846 -45.907  10.407  1.00  0.00     0.089 A 
HETATM    5  N   UNL     1     -40.113 -46.862  11.016  1.00  0.00    -0.352 N 
ATOM      6  HN  UNL     1     -39.105 -46.893  10.864  1.00  0.00     0.166 HD
HETATM    7  C   UNL     1     -40.700 -47.787  11.833  1.00  0.00     0.119 A 
ENDROOT
BRANCH   1   8
HETATM    8  C   UNL     1     -42.845 -48.559  13.018  1.00  0.00     0.255 C 
HETATM    9  N   UNL     1     -43.378 -49.736  12.524  1.00  0.00    -0.355 N 
HETATM   10  H   UNL     1     -43.233 -49.993  11.557  1.00  0.00     0.162 HD
HETATM   11  O   UNL     1     -43.030 -48.194  14.173  1.00  0.00    -0.268 OA
BRANCH   9  12
HETATM   12  C   UNL     1     -44.210 -50.609  13.338  1.00  0.00     0.153 C 
BRANCH  12  13
HETATM   13  C   UNL     1     -43.766 -52.095  13.415  1.00  0.00     0.292 C 
BRANCH  13  14
HETATM   14  N   UNL     1     -44.588 -53.137  12.746  1.00  0.00     0.089 N 
HETATM   15  C   UNL     1     -45.955 -52.654  12.540  1.00  0.00     0.310 C 
BRANCH  14  16
HETATM   16  C   UNL     1     -44.525 -54.470  13.377  1.00  0.00     0.214 C 
HETATM   17  C   UNL     1     -43.377 -54.627  14.389  1.00  0.00     0.042 C 
HETATM   18  C   UNL     1     -45.818 -54.835  14.124  1.00  0.00     0.042 C 
ENDBRANCH  14  16
ENDBRANCH  13  14
ENDBRANCH  12  13
ENDBRANCH   9  12
ENDBRANCH   1   8
BRANCH   7  19
HETATM   19  N   UNL     1     -39.830 -48.766  12.265  1.00  0.00    -0.362 N 
HETATM   20  C   UNL     1     -39.894 -50.071  11.574  1.00  0.00     0.150 C 
HETATM   21  C   UNL     1     -39.492 -51.192  12.546  1.00  0.00     0.187 C 
HETATM   22  O   UNL     1     -38.198 -50.959  13.122  1.00  0.00    -0.388 OA
HETATM   23  C   UNL     1     -38.201 -49.716  13.841  1.00  0.00     0.187 C 
HETATM   24  C   UNL     1     -38.545 -48.526  12.928  1.00  0.00     0.150 C 
ENDBRANCH   7  19
TORSDOF 6
ENDMDL
