MODEL 1
REMARK VINA RESULT:      -6.3      0.000      0.000
REMARK  3 active torsions:
REMARK  status: ('A' for Active; 'I' for Inactive)
REMARK    1  A    between atoms: C_2  and  C_3 
REMARK       I    between atoms: C_2  and  N_12 
REMARK    2  A    between atoms: C_3  and  N_4 
REMARK    3  A    between atoms: N_12  and  C_13 
ROOT
HETATM    1  O   UNL     1     -42.684 -51.896  14.083  1.00  0.00    -0.272 OA
HETATM    2  C   UNL     1     -42.786 -52.105  12.875  1.00  0.00     0.236 C 
HETATM    3  N   UNL     1     -41.887 -51.616  11.953  1.00  0.00    -0.347 N 
HETATM    4  H   UNL     1     -42.057 -51.756  10.959  1.00  0.00     0.163 HD
ENDROOT
BRANCH   2   5
HETATM    5  C   UNL     1     -43.976 -52.866  12.292  1.00  0.00     0.235 C 
BRANCH   5   6
HETATM    6  N   UNL     1     -45.125 -52.778  13.186  1.00  0.00    -0.301 N 
HETATM    7  C   UNL     1     -45.636 -51.546  13.539  1.00  0.00     0.097 A 
HETATM    8  C   UNL     1     -46.690 -51.445  14.344  1.00  0.00     0.034 A 
HETATM    9  C   UNL     1     -47.233 -52.731  14.797  1.00  0.00     0.094 A 
HETATM   10  N   UNL     1     -46.786 -53.896  14.472  1.00  0.00    -0.319 N 
HETATM   11  C   UNL     1     -45.708 -53.973  13.622  1.00  0.00     0.326 A 
ATOM     12  HN  UNL     1     -47.223 -54.742  14.839  1.00  0.00     0.170 HD
HETATM   13  O   UNL     1     -45.266 -55.059  13.252  1.00  0.00    -0.246 OA
ENDBRANCH   5   6
ENDBRANCH   2   5
BRANCH   3  14
HETATM   14  C   UNL     1     -40.685 -50.881  12.356  1.00  0.00     0.170 C 
HETATM   15  C   UNL     1     -40.321 -49.831  11.305  1.00  0.00     0.034 C 
HETATM   16  C   UNL     1     -39.346 -48.800  11.870  1.00  0.00     0.004 C 
HETATM   17  C   UNL     1     -37.880 -49.200  11.755  1.00  0.00     0.015 C 
HETATM   18  C   UNL     1     -37.584 -50.690  11.840  1.00  0.00     0.095 C 
HETATM   19  N   UNL     1     -38.278 -51.411  12.889  1.00  0.00    -0.261 NA
HETATM   20  C   UNL     1     -39.561 -51.873  12.714  1.00  0.00     0.220 C 
HETATM   21  H   UNL     1     -37.721 -52.167  13.271  1.00  0.00     0.130 HD
HETATM   22  O   UNL     1     -39.788 -53.057  12.989  1.00  0.00    -0.278 OA
ENDBRANCH   3  14
TORSDOF 3
ENDMDL
MODEL 2
REMARK VINA RESULT:      -6.2      1.634      2.135
REMARK  3 active torsions:
REMARK  status: ('A' for Active; 'I' for Inactive)
REMARK    1  A    between atoms: C_2  and  C_3 
REMARK       I    between atoms: C_2  and  N_12 
REMARK    2  A    between atoms: C_3  and  N_4 
REMARK    3  A    between atoms: N_12  and  C_13 
ROOT
HETATM    1  O   UNL     1     -41.442 -54.122  13.141  1.00  0.00    -0.272 OA
HETATM    2  C   UNL     1     -41.683 -53.249  13.974  1.00  0.00     0.236 C 
HETATM    3  N   UNL     1     -41.004 -52.051  14.018  1.00  0.00    -0.347 N 
HETATM    4  H   UNL     1     -41.191 -51.393  14.773  1.00  0.00     0.163 HD
ENDROOT
BRANCH   2   5
HETATM    5  C   UNL     1     -42.710 -53.463  15.085  1.00  0.00     0.235 C 
BRANCH   5   6
HETATM    6  N   UNL     1     -44.053 -53.154  14.604  1.00  0.00    -0.301 N 
HETATM    7  C   UNL     1     -44.430 -51.845  14.394  1.00  0.00     0.097 A 
HETATM    8  C   UNL     1     -45.645 -51.543  13.946  1.00  0.00     0.034 A 
HETATM    9  C   UNL     1     -46.508 -52.705  13.704  1.00  0.00     0.094 A 
HETATM   10  N   UNL     1     -46.179 -53.939  13.877  1.00  0.00    -0.319 N 
HETATM   11  C   UNL     1     -44.909 -54.224  14.322  1.00  0.00     0.326 A 
ATOM     12  HN  UNL     1     -46.845 -54.688  13.689  1.00  0.00     0.170 HD
HETATM   13  O   UNL     1     -44.532 -55.386  14.469  1.00  0.00    -0.246 OA
ENDBRANCH   5   6
ENDBRANCH   2   5
BRANCH   3  14
HETATM   14  C   UNL     1     -40.001 -51.690  13.013  1.00  0.00     0.170 C 
HETATM   15  C   UNL     1     -38.709 -51.227  13.688  1.00  0.00     0.034 C 
HETATM   16  C   UNL     1     -37.540 -51.235  12.705  1.00  0.00     0.004 C 
HETATM   17  C   UNL     1     -37.396 -49.953  11.896  1.00  0.00     0.015 C 
HETATM   18  C   UNL     1     -38.687 -49.217  11.573  1.00  0.00     0.095 C 
HETATM   19  N   UNL     1     -39.786 -50.043  11.115  1.00  0.00    -0.261 NA
HETATM   20  C   UNL     1     -40.609 -50.698  12.001  1.00  0.00     0.220 C 
HETATM   21  H   UNL     1     -40.371 -49.568  10.437  1.00  0.00     0.130 HD
HETATM   22  O   UNL     1     -41.829 -50.568  11.856  1.00  0.00    -0.278 OA
ENDBRANCH   3  14
TORSDOF 3
ENDMDL
MODEL 3
REMARK VINA RESULT:      -6.2      2.581      3.351
REMARK  3 active torsions:
REMARK  status: ('A' for Active; 'I' for Inactive)
REMARK    1  A    between atoms: C_2  and  C_3 
REMARK       I    between atoms: C_2  and  N_12 
REMARK    2  A    between atoms: C_3  and  N_4 
REMARK    3  A    between atoms: N_12  and  C_13 
ROOT
HETATM    1  O   UNL     1     -43.259 -55.735  15.524  1.00  0.00    -0.272 OA
HETATM    2  C   UNL     1     -43.559 -54.987  14.594  1.00  0.00     0.236 C 
HETATM    3  N   UNL     1     -42.696 -54.041  14.087  1.00  0.00    -0.347 N 
HETATM    4  H   UNL     1     -43.019 -53.397  13.366  1.00  0.00     0.163 HD
ENDROOT
BRANCH   2   5
HETATM    5  C   UNL     1     -44.957 -54.998  13.977  1.00  0.00     0.235 C 
BRANCH   5   6
HETATM    6  N   UNL     1     -45.645 -53.740  14.250  1.00  0.00    -0.301 N 
HETATM    7  C   UNL     1     -46.128 -53.474  15.514  1.00  0.00     0.097 A 
HETATM    8  C   UNL     1     -46.748 -52.329  15.784  1.00  0.00     0.034 A 
HETATM    9  C   UNL     1     -46.856 -51.412  14.643  1.00  0.00     0.094 A 
HETATM   10  N   UNL     1     -46.401 -51.628  13.457  1.00  0.00    -0.319 N 
HETATM   11  C   UNL     1     -45.746 -52.811  13.208  1.00  0.00     0.326 A 
ATOM     12  HN  UNL     1     -46.525 -50.935  12.718  1.00  0.00     0.170 HD
HETATM   13  O   UNL     1     -45.262 -53.050  12.103  1.00  0.00    -0.246 OA
ENDBRANCH   5   6
ENDBRANCH   2   5
BRANCH   3  14
HETATM   14  C   UNL     1     -41.316 -53.916  14.562  1.00  0.00     0.170 C 
HETATM   15  C   UNL     1     -41.256 -53.031  15.809  1.00  0.00     0.034 C 
HETATM   16  C   UNL     1     -39.931 -53.210  16.548  1.00  0.00     0.004 C 
HETATM   17  C   UNL     1     -38.809 -52.311  16.044  1.00  0.00     0.015 C 
HETATM   18  C   UNL     1     -38.841 -51.969  14.563  1.00  0.00     0.095 C 
HETATM   19  N   UNL     1     -39.114 -53.074  13.666  1.00  0.00    -0.261 NA
HETATM   20  C   UNL     1     -40.400 -53.482  13.400  1.00  0.00     0.220 C 
HETATM   21  H   UNL     1     -38.624 -52.986  12.783  1.00  0.00     0.130 HD
HETATM   22  O   UNL     1     -40.727 -53.617  12.216  1.00  0.00    -0.278 OA
ENDBRANCH   3  14
TORSDOF 3
ENDMDL
MODEL 4
REMARK VINA RESULT:      -6.1      3.519      6.852
REMARK  3 active torsions:
REMARK  status: ('A' for Active; 'I' for Inactive)
REMARK    1  A    between atoms: C_2  and  C_3 
REMARK       I    between atoms: C_2  and  N_12 
REMARK    2  A    between atoms: C_3  and  N_4 
REMARK    3  A    between atoms: N_12  and  C_13 
ROOT
HETATM    1  O   UNL     1     -45.943 -54.713  16.696  1.00  0.00    -0.272 OA
HETATM    2  C   UNL     1     -45.958 -54.028  15.674  1.00  0.00     0.236 C 
HETATM    3  N   UNL     1     -46.262 -52.684  15.680  1.00  0.00    -0.347 N 
HETATM    4  H   UNL     1     -46.333 -52.179  14.798  1.00  0.00     0.163 HD
ENDROOT
BRANCH   2   5
HETATM    5  C   UNL     1     -45.718 -54.641  14.296  1.00  0.00     0.235 C 
BRANCH   5   6
HETATM    6  N   UNL     1     -44.461 -54.155  13.734  1.00  0.00    -0.301 N 
HETATM    7  C   UNL     1     -43.260 -54.519  14.305  1.00  0.00     0.097 A 
HETATM    8  C   UNL     1     -42.104 -54.095  13.802  1.00  0.00     0.034 A 
HETATM    9  C   UNL     1     -42.236 -53.238  12.619  1.00  0.00     0.094 A 
HETATM   10  N   UNL     1     -43.342 -52.893  12.055  1.00  0.00    -0.319 N 
HETATM   11  C   UNL     1     -44.522 -53.361  12.583  1.00  0.00     0.326 A 
ATOM     12  HN  UNL     1     -43.343 -52.287  11.235  1.00  0.00     0.170 HD
HETATM   13  O   UNL     1     -45.604 -53.092  12.062  1.00  0.00    -0.246 OA
ENDBRANCH   5   6
ENDBRANCH   2   5
BRANCH   3  14
HETATM   14  C   UNL     1     -46.501 -51.948  16.924  1.00  0.00     0.170 C 
HETATM   15  C   UNL     1     -47.773 -51.105  16.812  1.00  0.00     0.034 C 
HETATM   16  C   UNL     1     -48.263 -50.660  18.189  1.00  0.00     0.004 C 
HETATM   17  C   UNL     1     -47.633 -49.365  18.686  1.00  0.00     0.015 C 
HETATM   18  C   UNL     1     -46.203 -49.102  18.239  1.00  0.00     0.095 C 
HETATM   19  N   UNL     1     -45.298 -50.230  18.324  1.00  0.00    -0.261 NA
HETATM   20  C   UNL     1     -45.230 -51.173  17.326  1.00  0.00     0.220 C 
HETATM   21  H   UNL     1     -44.351 -49.950  18.555  1.00  0.00     0.130 HD
HETATM   22  O   UNL     1     -44.113 -51.463  16.884  1.00  0.00    -0.278 OA
ENDBRANCH   3  14
TORSDOF 3
ENDMDL
MODEL 5
REMARK VINA RESULT:      -6.1      1.814      6.435
REMARK  3 active torsions:
REMARK  status: ('A' for Active; 'I' for Inactive)
REMARK    1  A    between atoms: C_2  and  C_3 
REMARK       I    between atoms: C_2  and  N_12 
REMARK    2  A    between atoms: C_3  and  N_4 
REMARK    3  A    between atoms: N_12  and  C_13 
ROOT
HETATM    1  O   UNL     1     -43.364 -49.345  12.582  1.00  0.00    -0.272 OA
HETATM    2  C   UNL     1     -42.691 -50.372  12.514  1.00  0.00     0.236 C 
HETATM    3  N   UNL     1     -43.193 -51.617  12.826  1.00  0.00    -0.347 N 
HETATM    4  H   UNL     1     -42.574 -52.426  12.824  1.00  0.00     0.163 HD
ENDROOT
BRANCH   2   5
HETATM    5  C   UNL     1     -41.207 -50.335  12.152  1.00  0.00     0.235 C 
BRANCH   5   6
HETATM    6  N   UNL     1     -40.395 -50.773  13.283  1.00  0.00    -0.301 N 
HETATM    7  C   UNL     1     -40.160 -49.919  14.340  1.00  0.00     0.097 A 
HETATM    8  C   UNL     1     -39.432 -50.304  15.384  1.00  0.00     0.034 A 
HETATM    9  C   UNL     1     -38.928 -51.679  15.299  1.00  0.00     0.094 A 
HETATM   10  N   UNL     1     -39.143 -52.504  14.332  1.00  0.00    -0.319 N 
HETATM   11  C   UNL     1     -39.917 -52.088  13.274  1.00  0.00     0.326 A 
ATOM     12  HN  UNL     1     -38.749 -53.444  14.352  1.00  0.00     0.170 HD
HETATM   13  O   UNL     1     -40.183 -52.847  12.343  1.00  0.00    -0.246 OA
ENDBRANCH   5   6
ENDBRANCH   2   5
BRANCH   3  14
HETATM   14  C   UNL     1     -44.601 -51.820  13.176  1.00  0.00     0.170 C 
HETATM   15  C   UNL     1     -44.866 -51.371  14.615  1.00  0.00     0.034 C 
HETATM   16  C   UNL     1     -46.361 -51.190  14.869  1.00  0.00     0.004 C 
HETATM   17  C   UNL     1     -47.080 -52.463  15.297  1.00  0.00     0.015 C 
HETATM   18  C   UNL     1     -46.533 -53.763  14.728  1.00  0.00     0.095 C 
HETATM   19  N   UNL     1     -46.219 -53.749  13.313  1.00  0.00    -0.261 NA
HETATM   20  C   UNL     1     -45.017 -53.268  12.850  1.00  0.00     0.220 C 
HETATM   21  H   UNL     1     -46.390 -54.645  12.870  1.00  0.00     0.130 HD
HETATM   22  O   UNL     1     -44.378 -53.978  12.066  1.00  0.00    -0.278 OA
ENDBRANCH   3  14
TORSDOF 3
ENDMDL
MODEL 6
REMARK VINA RESULT:      -6.0      2.373      2.867
REMARK  3 active torsions:
REMARK  status: ('A' for Active; 'I' for Inactive)
REMARK    1  A    between atoms: C_2  and  C_3 
REMARK       I    between atoms: C_2  and  N_12 
REMARK    2  A    between atoms: C_3  and  N_4 
REMARK    3  A    between atoms: N_12  and  C_13 
ROOT
HETATM    1  O   UNL     1     -41.976 -50.969  14.050  1.00  0.00    -0.272 OA
HETATM    2  C   UNL     1     -42.597 -51.130  13.000  1.00  0.00     0.236 C 
HETATM    3  N   UNL     1     -42.747 -50.135  12.060  1.00  0.00    -0.347 N 
HETATM    4  H   UNL     1     -43.333 -50.297  11.242  1.00  0.00     0.163 HD
ENDROOT
BRANCH   2   5
HETATM    5  C   UNL     1     -43.326 -52.438  12.693  1.00  0.00     0.235 C 
BRANCH   5   6
HETATM    6  N   UNL     1     -44.608 -52.482  13.389  1.00  0.00    -0.301 N 
HETATM    7  C   UNL     1     -45.075 -51.368  14.055  1.00  0.00     0.097 A 
HETATM    8  C   UNL     1     -46.245 -51.386  14.685  1.00  0.00     0.034 A 
HETATM    9  C   UNL     1     -46.963 -52.663  14.598  1.00  0.00     0.094 A 
HETATM   10  N   UNL     1     -46.559 -53.715  13.971  1.00  0.00    -0.319 N 
HETATM   11  C   UNL     1     -45.354 -53.663  13.311  1.00  0.00     0.326 A 
ATOM     12  HN  UNL     1     -47.121 -54.566  13.966  1.00  0.00     0.170 HD
HETATM   13  O   UNL     1     -44.940 -54.627  12.667  1.00  0.00    -0.246 OA
ENDBRANCH   5   6
ENDBRANCH   2   5
BRANCH   3  14
HETATM   14  C   UNL     1     -42.096 -48.830  12.201  1.00  0.00     0.170 C 
HETATM   15  C   UNL     1     -43.117 -47.701  12.041  1.00  0.00     0.034 C 
HETATM   16  C   UNL     1     -42.567 -46.380  12.575  1.00  0.00     0.004 C 
HETATM   17  C   UNL     1     -41.757 -45.585  11.558  1.00  0.00     0.015 C 
HETATM   18  C   UNL     1     -40.983 -46.401  10.534  1.00  0.00     0.095 C 
HETATM   19  N   UNL     1     -40.256 -47.541  11.056  1.00  0.00    -0.261 NA
HETATM   20  C   UNL     1     -40.874 -48.751  11.265  1.00  0.00     0.220 C 
HETATM   21  H   UNL     1     -39.393 -47.712  10.553  1.00  0.00     0.130 HD
HETATM   22  O   UNL     1     -40.333 -49.760  10.799  1.00  0.00    -0.278 OA
ENDBRANCH   3  14
TORSDOF 3
ENDMDL
MODEL 7
REMARK VINA RESULT:      -5.9      2.499      6.941
REMARK  3 active torsions:
REMARK  status: ('A' for Active; 'I' for Inactive)
REMARK    1  A    between atoms: C_2  and  C_3 
REMARK       I    between atoms: C_2  and  N_12 
REMARK    2  A    between atoms: C_3  and  N_4 
REMARK    3  A    between atoms: N_12  and  C_13 
ROOT
HETATM    1  O   UNL     1     -39.212 -54.051  13.461  1.00  0.00    -0.272 OA
HETATM    2  C   UNL     1     -39.579 -53.037  14.054  1.00  0.00     0.236 C 
HETATM    3  N   UNL     1     -40.905 -52.751  14.296  1.00  0.00    -0.347 N 
HETATM    4  H   UNL     1     -41.159 -51.862  14.725  1.00  0.00     0.163 HD
ENDROOT
BRANCH   2   5
HETATM    5  C   UNL     1     -38.584 -51.966  14.499  1.00  0.00     0.235 C 
BRANCH   5   6
HETATM    6  N   UNL     1     -38.585 -50.848  13.561  1.00  0.00    -0.301 N 
HETATM    7  C   UNL     1     -39.434 -49.778  13.758  1.00  0.00     0.097 A 
HETATM    8  C   UNL     1     -39.442 -48.745  12.920  1.00  0.00     0.034 A 
HETATM    9  C   UNL     1     -38.488 -48.856  11.811  1.00  0.00     0.094 A 
HETATM   10  N   UNL     1     -37.673 -49.834  11.610  1.00  0.00    -0.319 N 
HETATM   11  C   UNL     1     -37.671 -50.881  12.503  1.00  0.00     0.326 A 
ATOM     12  HN  UNL     1     -37.044 -49.833  10.807  1.00  0.00     0.170 HD
HETATM   13  O   UNL     1     -36.888 -51.822  12.377  1.00  0.00    -0.246 OA
ENDBRANCH   5   6
ENDBRANCH   2   5
BRANCH   3  14
HETATM   14  C   UNL     1     -41.977 -53.685  13.944  1.00  0.00     0.170 C 
HETATM   15  C   UNL     1     -43.140 -52.942  13.284  1.00  0.00     0.034 C 
HETATM   16  C   UNL     1     -44.069 -53.910  12.554  1.00  0.00     0.004 C 
HETATM   17  C   UNL     1     -45.156 -54.515  13.434  1.00  0.00     0.015 C 
HETATM   18  C   UNL     1     -44.792 -54.729  14.895  1.00  0.00     0.095 C 
HETATM   19  N   UNL     1     -43.487 -55.312  15.141  1.00  0.00    -0.261 NA
HETATM   20  C   UNL     1     -42.351 -54.538  15.172  1.00  0.00     0.220 C 
HETATM   21  H   UNL     1     -43.480 -55.913  15.957  1.00  0.00     0.130 HD
HETATM   22  O   UNL     1     -41.594 -54.668  16.141  1.00  0.00    -0.278 OA
ENDBRANCH   3  14
TORSDOF 3
ENDMDL
MODEL 8
REMARK VINA RESULT:      -5.9      1.175      6.629
REMARK  3 active torsions:
REMARK  status: ('A' for Active; 'I' for Inactive)
REMARK    1  A    between atoms: C_2  and  C_3 
REMARK       I    between atoms: C_2  and  N_12 
REMARK    2  A    between atoms: C_3  and  N_4 
REMARK    3  A    between atoms: N_12  and  C_13 
ROOT
HETATM    1  O   UNL     1     -42.358 -51.935  13.933  1.00  0.00    -0.272 OA
HETATM    2  C   UNL     1     -42.386 -52.330  12.768  1.00  0.00     0.236 C 
HETATM    3  N   UNL     1     -43.520 -52.849  12.182  1.00  0.00    -0.347 N 
HETATM    4  H   UNL     1     -43.471 -53.231  11.239  1.00  0.00     0.163 HD
ENDROOT
BRANCH   2   5
HETATM    5  C   UNL     1     -41.130 -52.349  11.899  1.00  0.00     0.235 C 
BRANCH   5   6
HETATM    6  N   UNL     1     -40.413 -51.083  12.010  1.00  0.00    -0.301 N 
HETATM    7  C   UNL     1     -40.962 -49.928  11.493  1.00  0.00     0.097 A 
HETATM    8  C   UNL     1     -40.329 -48.763  11.594  1.00  0.00     0.034 A 
HETATM    9  C   UNL     1     -39.039 -48.831  12.290  1.00  0.00     0.094 A 
HETATM   10  N   UNL     1     -38.509 -49.891  12.795  1.00  0.00    -0.319 N 
HETATM   11  C   UNL     1     -39.193 -51.080  12.695  1.00  0.00     0.326 A 
ATOM     12  HN  UNL     1     -37.602 -49.850  13.260  1.00  0.00     0.170 HD
HETATM   13  O   UNL     1     -38.749 -52.114  13.192  1.00  0.00    -0.246 OA
ENDBRANCH   5   6
ENDBRANCH   2   5
BRANCH   3  14
HETATM   14  C   UNL     1     -44.807 -52.885  12.881  1.00  0.00     0.170 C 
HETATM   15  C   UNL     1     -45.189 -51.487  13.373  1.00  0.00     0.034 C 
HETATM   16  C   UNL     1     -46.671 -51.415  13.732  1.00  0.00     0.004 C 
HETATM   17  C   UNL     1     -46.988 -51.837  15.161  1.00  0.00     0.015 C 
HETATM   18  C   UNL     1     -46.087 -52.907  15.758  1.00  0.00     0.095 C 
HETATM   19  N   UNL     1     -45.794 -54.035  14.896  1.00  0.00    -0.261 NA
HETATM   20  C   UNL     1     -44.785 -53.982  13.964  1.00  0.00     0.220 C 
HETATM   21  H   UNL     1     -45.696 -54.902  15.413  1.00  0.00     0.130 HD
HETATM   22  O   UNL     1     -43.967 -54.909  13.947  1.00  0.00    -0.278 OA
ENDBRANCH   3  14
TORSDOF 3
ENDMDL
MODEL 9
REMARK VINA RESULT:      -5.8      2.684      3.586
REMARK  3 active torsions:
REMARK  status: ('A' for Active; 'I' for Inactive)
REMARK    1  A    between atoms: C_2  and  C_3 
REMARK       I    between atoms: C_2  and  N_12 
REMARK    2  A    between atoms: C_3  and  N_4 
REMARK    3  A    between atoms: N_12  and  C_13 
ROOT
HETATM    1  O   UNL     1     -42.120 -50.758  13.617  1.00  0.00    -0.272 OA
HETATM    2  C   UNL     1     -41.836 -51.097  12.469  1.00  0.00     0.236 C 
HETATM    3  N   UNL     1     -41.617 -50.191  11.454  1.00  0.00    -0.347 N 
HETATM    4  H   UNL     1     -41.458 -50.525  10.505  1.00  0.00     0.163 HD
ENDROOT
BRANCH   2   5
HETATM    5  C   UNL     1     -41.783 -52.568  12.058  1.00  0.00     0.235 C 
BRANCH   5   6
HETATM    6  N   UNL     1     -42.751 -53.346  12.824  1.00  0.00    -0.301 N 
HETATM    7  C   UNL     1     -44.087 -53.323  12.480  1.00  0.00     0.097 A 
HETATM    8  C   UNL     1     -44.983 -54.033  13.159  1.00  0.00     0.034 A 
HETATM    9  C   UNL     1     -44.423 -54.818  14.265  1.00  0.00     0.094 A 
HETATM   10  N   UNL     1     -43.180 -54.871  14.600  1.00  0.00    -0.319 N 
HETATM   11  C   UNL     1     -42.271 -54.142  13.869  1.00  0.00     0.326 A 
ATOM     12  HN  UNL     1     -42.877 -55.440  15.390  1.00  0.00     0.170 HD
HETATM   13  O   UNL     1     -41.068 -54.186  14.124  1.00  0.00    -0.246 OA
ENDBRANCH   5   6
ENDBRANCH   2   5
BRANCH   3  14
HETATM   14  C   UNL     1     -41.617 -48.746  11.692  1.00  0.00     0.170 C 
HETATM   15  C   UNL     1     -42.559 -48.042  10.713  1.00  0.00     0.034 C 
HETATM   16  C   UNL     1     -42.888 -46.627  11.186  1.00  0.00     0.004 C 
HETATM   17  C   UNL     1     -41.885 -45.571  10.740  1.00  0.00     0.015 C 
HETATM   18  C   UNL     1     -40.443 -46.035  10.599  1.00  0.00     0.095 C 
HETATM   19  N   UNL     1     -39.939 -46.863  11.677  1.00  0.00    -0.261 NA
HETATM   20  C   UNL     1     -40.168 -48.218  11.708  1.00  0.00     0.220 C 
HETATM   21  H   UNL     1     -38.954 -46.708  11.856  1.00  0.00     0.130 HD
HETATM   22  O   UNL     1     -39.198 -48.961  11.890  1.00  0.00    -0.278 OA
ENDBRANCH   3  14
TORSDOF 3
ENDMDL
