MODEL 1
REMARK VINA RESULT:      -6.1      0.000      0.000
REMARK  4 active torsions:
REMARK  status: ('A' for Active; 'I' for Inactive)
REMARK    1  A    between atoms: C_2  and  C_5 
REMARK    2  A    between atoms: C_8  and  C_9 
REMARK    3  A    between atoms: C_9  and  C_10 
REMARK    4  A    between atoms: C_10  and  N_11 
REMARK       I    between atoms: N_11  and  C_12 
REMARK       I    between atoms: C_12  and  N_14 
ROOT
HETATM    1  C   UNL     1     -41.376 -51.405  11.991  1.00  0.00     0.084 C 
ENDROOT
BRANCH   1   2
HETATM    2  C   UNL     1     -42.525 -51.402  12.952  1.00  0.00     0.052 A 
HETATM    3  S   UNL     1     -42.262 -50.872  14.567  1.00  0.00    -0.087 SA
HETATM    4  C   UNL     1     -43.903 -51.189  14.927  1.00  0.00     0.077 A 
HETATM    5  C   UNL     1     -44.563 -51.673  13.810  1.00  0.00     0.024 A 
HETATM    6  N   UNL     1     -43.759 -51.771  12.679  1.00  0.00    -0.356 N 
ATOM      7  HN  UNL     1     -44.081 -52.086  11.764  1.00  0.00     0.166 HD
BRANCH   5   8
HETATM    8  C   UNL     1     -46.026 -52.089  13.735  1.00  0.00    -0.008 C 
HETATM    9  C   UNL     1     -46.853 -51.321  14.784  1.00  0.00     0.021 C 
HETATM   10  C   UNL     1     -46.159 -53.603  14.003  1.00  0.00     0.021 C 
HETATM   11  C   UNL     1     -46.629 -51.798  12.345  1.00  0.00     0.021 C 
ENDBRANCH   5   8
ENDBRANCH   1   2
BRANCH   1  12
HETATM   12  C   UNL     1     -40.921 -49.998  11.609  1.00  0.00     0.131 C 
BRANCH  12  13
HETATM   13  N   UNL     1     -42.013 -49.226  11.029  1.00  0.00    -0.343 N 
HETATM   14  C   UNL     1     -41.826 -47.915  10.667  1.00  0.00     0.318 C 
HETATM   15  O   UNL     1     -40.769 -47.319  10.839  1.00  0.00    -0.247 OA
HETATM   16  N   UNL     1     -42.917 -47.342  10.063  1.00  0.00    -0.334 N 
HETATM   17  C   UNL     1     -42.824 -46.014   9.490  1.00  0.00     0.127 C 
HETATM   18  C   UNL     1     -44.306 -47.688  10.288  1.00  0.00     0.127 C 
HETATM   19  C   UNL     1     -44.198 -45.731   8.888  1.00  0.00     0.022 C 
HETATM   20  C   UNL     1     -45.030 -46.985   9.156  1.00  0.00     0.022 C 
HETATM   21  H   UNL     1     -42.625 -49.729  10.405  1.00  0.00     0.164 HD
ENDBRANCH  12  13
ENDBRANCH   1  12
TORSDOF 4
ENDMDL
MODEL 2
REMARK VINA RESULT:      -6.0      2.618      6.528
REMARK  4 active torsions:
REMARK  status: ('A' for Active; 'I' for Inactive)
REMARK    1  A    between atoms: C_2  and  C_5 
REMARK    2  A    between atoms: C_8  and  C_9 
REMARK    3  A    between atoms: C_9  and  C_10 
REMARK    4  A    between atoms: C_10  and  N_11 
REMARK       I    between atoms: N_11  and  C_12 
REMARK       I    between atoms: C_12  and  N_14 
ROOT
HETATM    1  C   UNL     1     -40.477 -49.377  12.046  1.00  0.00     0.084 C 
ENDROOT
BRANCH   1   2
HETATM    2  C   UNL     1     -41.147 -48.285  11.270  1.00  0.00     0.052 A 
HETATM    3  S   UNL     1     -40.493 -46.695  11.329  1.00  0.00    -0.087 SA
HETATM    4  C   UNL     1     -41.750 -46.151  10.306  1.00  0.00     0.077 A 
HETATM    5  C   UNL     1     -42.593 -47.196   9.970  1.00  0.00     0.024 A 
HETATM    6  N   UNL     1     -42.220 -48.419  10.519  1.00  0.00    -0.356 N 
ATOM      7  HN  UNL     1     -42.711 -49.299  10.362  1.00  0.00     0.166 HD
BRANCH   5   8
HETATM    8  C   UNL     1     -43.836 -47.109   9.095  1.00  0.00    -0.008 C 
HETATM    9  C   UNL     1     -44.189 -45.635   8.814  1.00  0.00     0.021 C 
HETATM   10  C   UNL     1     -45.030 -47.782   9.804  1.00  0.00     0.021 C 
HETATM   11  C   UNL     1     -43.628 -47.818   7.740  1.00  0.00     0.021 C 
ENDBRANCH   5   8
ENDBRANCH   1   2
BRANCH   1  12
HETATM   12  C   UNL     1     -40.543 -50.729  11.338  1.00  0.00     0.131 C 
BRANCH  12  13
HETATM   13  N   UNL     1     -41.619 -51.555  11.871  1.00  0.00    -0.343 N 
HETATM   14  C   UNL     1     -41.337 -52.682  12.604  1.00  0.00     0.318 C 
HETATM   15  O   UNL     1     -40.194 -53.071  12.816  1.00  0.00    -0.247 OA
HETATM   16  N   UNL     1     -42.447 -53.314  13.107  1.00  0.00    -0.334 N 
HETATM   17  C   UNL     1     -42.304 -54.427  14.023  1.00  0.00     0.127 C 
HETATM   18  C   UNL     1     -43.772 -53.321  12.520  1.00  0.00     0.127 C 
HETATM   19  C   UNL     1     -43.728 -54.841  14.387  1.00  0.00     0.022 C 
HETATM   20  C   UNL     1     -44.643 -53.880  13.628  1.00  0.00     0.022 C 
HETATM   21  H   UNL     1     -42.433 -51.059  12.200  1.00  0.00     0.164 HD
ENDBRANCH  12  13
ENDBRANCH   1  12
TORSDOF 4
ENDMDL
MODEL 3
REMARK VINA RESULT:      -5.9      1.918      5.824
REMARK  4 active torsions:
REMARK  status: ('A' for Active; 'I' for Inactive)
REMARK    1  A    between atoms: C_2  and  C_5 
REMARK    2  A    between atoms: C_8  and  C_9 
REMARK    3  A    between atoms: C_9  and  C_10 
REMARK    4  A    between atoms: C_10  and  N_11 
REMARK       I    between atoms: N_11  and  C_12 
REMARK       I    between atoms: C_12  and  N_14 
ROOT
HETATM    1  C   UNL     1     -40.416 -49.813  11.353  1.00  0.00     0.084 C 
ENDROOT
BRANCH   1   2
HETATM    2  C   UNL     1     -41.356 -48.674  11.104  1.00  0.00     0.052 A 
HETATM    3  S   UNL     1     -41.385 -47.358  12.211  1.00  0.00    -0.087 SA
HETATM    4  C   UNL     1     -42.615 -46.618  11.282  1.00  0.00     0.077 A 
HETATM    5  C   UNL     1     -42.936 -47.400  10.185  1.00  0.00     0.024 A 
HETATM    6  N   UNL     1     -42.188 -48.569  10.089  1.00  0.00    -0.356 N 
ATOM      7  HN  UNL     1     -42.273 -49.251   9.336  1.00  0.00     0.166 HD
BRANCH   5   8
HETATM    8  C   UNL     1     -43.994 -47.092   9.134  1.00  0.00    -0.008 C 
HETATM    9  C   UNL     1     -43.617 -47.746   7.790  1.00  0.00     0.021 C 
HETATM   10  C   UNL     1     -44.110 -45.567   8.932  1.00  0.00     0.021 C 
HETATM   11  C   UNL     1     -45.381 -47.623   9.551  1.00  0.00     0.021 C 
ENDBRANCH   5   8
ENDBRANCH   1   2
BRANCH   1  12
HETATM   12  C   UNL     1     -40.726 -50.562  12.648  1.00  0.00     0.131 C 
BRANCH  12  13
HETATM   13  N   UNL     1     -42.087 -51.081  12.649  1.00  0.00    -0.343 N 
HETATM   14  C   UNL     1     -42.924 -50.845  13.712  1.00  0.00     0.318 C 
HETATM   15  O   UNL     1     -42.574 -50.232  14.714  1.00  0.00    -0.247 OA
HETATM   16  N   UNL     1     -44.198 -51.327  13.537  1.00  0.00    -0.334 N 
HETATM   17  C   UNL     1     -45.234 -51.024  14.504  1.00  0.00     0.127 C 
HETATM   18  C   UNL     1     -44.582 -52.475  12.741  1.00  0.00     0.127 C 
HETATM   19  C   UNL     1     -46.499 -51.688  13.967  1.00  0.00     0.022 C 
HETATM   20  C   UNL     1     -46.090 -52.350  12.652  1.00  0.00     0.022 C 
HETATM   21  H   UNL     1     -42.562 -51.074  11.759  1.00  0.00     0.164 HD
ENDBRANCH  12  13
ENDBRANCH   1  12
TORSDOF 4
ENDMDL
MODEL 4
REMARK VINA RESULT:      -5.5      2.758      6.904
REMARK  4 active torsions:
REMARK  status: ('A' for Active; 'I' for Inactive)
REMARK    1  A    between atoms: C_2  and  C_5 
REMARK    2  A    between atoms: C_8  and  C_9 
REMARK    3  A    between atoms: C_9  and  C_10 
REMARK    4  A    between atoms: C_10  and  N_11 
REMARK       I    between atoms: N_11  and  C_12 
REMARK       I    between atoms: C_12  and  N_14 
ROOT
HETATM    1  C   UNL     1     -43.264 -49.277  13.540  1.00  0.00     0.084 C 
ENDROOT
BRANCH   1   2
HETATM    2  C   UNL     1     -42.952 -48.722  12.185  1.00  0.00     0.052 A 
HETATM    3  S   UNL     1     -41.308 -48.576  11.701  1.00  0.00    -0.087 SA
HETATM    4  C   UNL     1     -41.817 -47.907  10.212  1.00  0.00     0.077 A 
HETATM    5  C   UNL     1     -43.198 -47.833  10.156  1.00  0.00     0.024 A 
HETATM    6  N   UNL     1     -43.834 -48.323  11.293  1.00  0.00    -0.356 N 
ATOM      7  HN  UNL     1     -44.845 -48.368  11.417  1.00  0.00     0.166 HD
BRANCH   5   8
HETATM    8  C   UNL     1     -44.029 -47.279   9.006  1.00  0.00    -0.008 C 
HETATM    9  C   UNL     1     -43.524 -47.844   7.664  1.00  0.00     0.021 C 
HETATM   10  C   UNL     1     -43.922 -45.740   8.972  1.00  0.00     0.021 C 
HETATM   11  C   UNL     1     -45.519 -47.649   9.151  1.00  0.00     0.021 C 
ENDBRANCH   5   8
ENDBRANCH   1   2
BRANCH   1  12
HETATM   12  C   UNL     1     -43.848 -50.687  13.480  1.00  0.00     0.131 C 
BRANCH  12  13
HETATM   13  N   UNL     1     -42.952 -51.660  14.092  1.00  0.00    -0.343 N 
HETATM   14  C   UNL     1     -42.081 -52.389  13.321  1.00  0.00     0.318 C 
HETATM   15  O   UNL     1     -42.033 -52.295  12.099  1.00  0.00    -0.247 OA
HETATM   16  N   UNL     1     -41.245 -53.205  14.042  1.00  0.00    -0.334 N 
HETATM   17  C   UNL     1     -40.173 -53.921  13.381  1.00  0.00     0.127 C 
HETATM   18  C   UNL     1     -41.536 -53.816  15.323  1.00  0.00     0.127 C 
HETATM   19  C   UNL     1     -39.450 -54.684  14.489  1.00  0.00     0.022 C 
HETATM   20  C   UNL     1     -40.183 -54.327  15.781  1.00  0.00     0.022 C 
HETATM   21  H   UNL     1     -42.571 -51.403  14.990  1.00  0.00     0.164 HD
ENDBRANCH  12  13
ENDBRANCH   1  12
TORSDOF 4
ENDMDL
MODEL 5
REMARK VINA RESULT:      -5.5      3.405      4.478
REMARK  4 active torsions:
REMARK  status: ('A' for Active; 'I' for Inactive)
REMARK    1  A    between atoms: C_2  and  C_5 
REMARK    2  A    between atoms: C_8  and  C_9 
REMARK    3  A    between atoms: C_9  and  C_10 
REMARK    4  A    between atoms: C_10  and  N_11 
REMARK       I    between atoms: N_11  and  C_12 
REMARK       I    between atoms: C_12  and  N_14 
ROOT
HETATM    1  C   UNL     1     -41.425 -54.137  14.822  1.00  0.00     0.084 C 
ENDROOT
BRANCH   1   2
HETATM    2  C   UNL     1     -42.886 -53.921  14.576  1.00  0.00     0.052 A 
HETATM    3  S   UNL     1     -43.973 -55.237  14.792  1.00  0.00    -0.087 SA
HETATM    4  C   UNL     1     -45.271 -54.228  14.322  1.00  0.00     0.077 A 
HETATM    5  C   UNL     1     -44.818 -52.952  14.032  1.00  0.00     0.024 A 
HETATM    6  N   UNL     1     -43.446 -52.790  14.201  1.00  0.00    -0.356 N 
ATOM      7  HN  UNL     1     -42.944 -51.915  14.055  1.00  0.00     0.166 HD
BRANCH   5   8
HETATM    8  C   UNL     1     -45.664 -51.778  13.561  1.00  0.00    -0.008 C 
HETATM    9  C   UNL     1     -44.766 -50.566  13.244  1.00  0.00     0.021 C 
HETATM   10  C   UNL     1     -46.673 -51.379  14.658  1.00  0.00     0.021 C 
HETATM   11  C   UNL     1     -46.462 -52.127  12.287  1.00  0.00     0.021 C 
ENDBRANCH   5   8
ENDBRANCH   1   2
BRANCH   1  12
HETATM   12  C   UNL     1     -40.611 -54.199  13.531  1.00  0.00     0.131 C 
BRANCH  12  13
HETATM   13  N   UNL     1     -39.903 -52.949  13.288  1.00  0.00    -0.343 N 
HETATM   14  C   UNL     1     -40.436 -51.994  12.459  1.00  0.00     0.318 C 
HETATM   15  O   UNL     1     -41.494 -52.147  11.859  1.00  0.00    -0.247 OA
HETATM   16  N   UNL     1     -39.697 -50.839  12.389  1.00  0.00    -0.334 N 
HETATM   17  C   UNL     1     -40.207 -49.686  11.675  1.00  0.00     0.127 C 
HETATM   18  C   UNL     1     -38.262 -50.725  12.557  1.00  0.00     0.127 C 
HETATM   19  C   UNL     1     -39.145 -48.602  11.841  1.00  0.00     0.022 C 
HETATM   20  C   UNL     1     -38.044 -49.230  12.695  1.00  0.00     0.022 C 
HETATM   21  H   UNL     1     -39.411 -52.561  14.079  1.00  0.00     0.164 HD
ENDBRANCH  12  13
ENDBRANCH   1  12
TORSDOF 4
ENDMDL
MODEL 6
REMARK VINA RESULT:      -5.3      3.665      6.481
REMARK  4 active torsions:
REMARK  status: ('A' for Active; 'I' for Inactive)
REMARK    1  A    between atoms: C_2  and  C_5 
REMARK    2  A    between atoms: C_8  and  C_9 
REMARK    3  A    between atoms: C_9  and  C_10 
REMARK    4  A    between atoms: C_10  and  N_11 
REMARK       I    between atoms: N_11  and  C_12 
REMARK       I    between atoms: C_12  and  N_14 
ROOT
HETATM    1  C   UNL     1     -40.153 -54.168  14.027  1.00  0.00     0.084 C 
ENDROOT
BRANCH   1   2
HETATM    2  C   UNL     1     -39.515 -52.825  14.204  1.00  0.00     0.052 A 
HETATM    3  S   UNL     1     -38.933 -52.375  15.759  1.00  0.00    -0.087 SA
HETATM    4  C   UNL     1     -38.449 -50.861  15.128  1.00  0.00     0.077 A 
HETATM    5  C   UNL     1     -38.748 -50.777  13.778  1.00  0.00     0.024 A 
HETATM    6  N   UNL     1     -39.343 -51.923  13.261  1.00  0.00    -0.356 N 
ATOM      7  HN  UNL     1     -39.611 -52.046  12.284  1.00  0.00     0.166 HD
BRANCH   5   8
HETATM    8  C   UNL     1     -38.490 -49.583  12.869  1.00  0.00    -0.008 C 
HETATM    9  C   UNL     1     -37.839 -48.436  13.666  1.00  0.00     0.021 C 
HETATM   10  C   UNL     1     -39.820 -49.081  12.267  1.00  0.00     0.021 C 
HETATM   11  C   UNL     1     -37.549 -49.949  11.702  1.00  0.00     0.021 C 
ENDBRANCH   5   8
ENDBRANCH   1   2
BRANCH   1  12
HETATM   12  C   UNL     1     -41.180 -54.189  12.896  1.00  0.00     0.131 C 
BRANCH  12  13
HETATM   13  N   UNL     1     -42.512 -53.855  13.381  1.00  0.00    -0.343 N 
HETATM   14  C   UNL     1     -43.051 -52.614  13.146  1.00  0.00     0.318 C 
HETATM   15  O   UNL     1     -42.445 -51.724  12.560  1.00  0.00    -0.247 OA
HETATM   16  N   UNL     1     -44.341 -52.471  13.592  1.00  0.00    -0.334 N 
HETATM   17  C   UNL     1     -45.094 -51.273  13.283  1.00  0.00     0.127 C 
HETATM   18  C   UNL     1     -44.943 -53.160  14.716  1.00  0.00     0.127 C 
HETATM   19  C   UNL     1     -46.472 -51.485  13.905  1.00  0.00     0.022 C 
HETATM   20  C   UNL     1     -46.423 -52.869  14.553  1.00  0.00     0.022 C 
HETATM   21  H   UNL     1     -43.193 -54.599  13.347  1.00  0.00     0.164 HD
ENDBRANCH  12  13
ENDBRANCH   1  12
TORSDOF 4
ENDMDL
MODEL 7
REMARK VINA RESULT:      -5.2      3.476      5.506
REMARK  4 active torsions:
REMARK  status: ('A' for Active; 'I' for Inactive)
REMARK    1  A    between atoms: C_2  and  C_5 
REMARK    2  A    between atoms: C_8  and  C_9 
REMARK    3  A    between atoms: C_9  and  C_10 
REMARK    4  A    between atoms: C_10  and  N_11 
REMARK       I    between atoms: N_11  and  C_12 
REMARK       I    between atoms: C_12  and  N_14 
ROOT
HETATM    1  C   UNL     1     -42.728 -48.690  11.474  1.00  0.00     0.084 C 
ENDROOT
BRANCH   1   2
HETATM    2  C   UNL     1     -41.576 -49.558  11.878  1.00  0.00     0.052 A 
HETATM    3  S   UNL     1     -41.882 -51.178  12.366  1.00  0.00    -0.087 SA
HETATM    4  C   UNL     1     -40.210 -51.398  12.646  1.00  0.00     0.077 A 
HETATM    5  C   UNL     1     -39.509 -50.240  12.353  1.00  0.00     0.024 A 
HETATM    6  N   UNL     1     -40.310 -49.199  11.895  1.00  0.00    -0.356 N 
ATOM      7  HN  UNL     1     -39.963 -48.283  11.611  1.00  0.00     0.166 HD
BRANCH   5   8
HETATM    8  C   UNL     1     -38.007 -50.033  12.493  1.00  0.00    -0.008 C 
HETATM    9  C   UNL     1     -37.364 -49.842  11.106  1.00  0.00     0.021 C 
HETATM   10  C   UNL     1     -37.366 -51.258  13.177  1.00  0.00     0.021 C 
HETATM   11  C   UNL     1     -37.682 -48.789  13.346  1.00  0.00     0.021 C 
ENDBRANCH   5   8
ENDBRANCH   1   2
BRANCH   1  12
HETATM   12  C   UNL     1     -42.407 -47.804  10.272  1.00  0.00     0.131 C 
BRANCH  12  13
HETATM   13  N   UNL     1     -42.419 -46.392  10.634  1.00  0.00    -0.343 N 
HETATM   14  C   UNL     1     -41.246 -45.727  10.893  1.00  0.00     0.318 C 
HETATM   15  O   UNL     1     -40.150 -46.275  10.872  1.00  0.00    -0.247 OA
HETATM   16  N   UNL     1     -41.408 -44.387  11.142  1.00  0.00    -0.334 N 
HETATM   17  C   UNL     1     -40.252 -43.524  11.283  1.00  0.00     0.127 C 
HETATM   18  C   UNL     1     -42.573 -43.755  11.727  1.00  0.00     0.127 C 
HETATM   19  C   UNL     1     -40.814 -42.124  11.514  1.00  0.00     0.022 C 
HETATM   20  C   UNL     1     -42.334 -42.279  11.475  1.00  0.00     0.022 C 
HETATM   21  H   UNL     1     -43.105 -45.823  10.162  1.00  0.00     0.164 HD
ENDBRANCH  12  13
ENDBRANCH   1  12
TORSDOF 4
ENDMDL
MODEL 8
REMARK VINA RESULT:      -5.2      3.989      5.042
REMARK  4 active torsions:
REMARK  status: ('A' for Active; 'I' for Inactive)
REMARK    1  A    between atoms: C_2  and  C_5 
REMARK    2  A    between atoms: C_8  and  C_9 
REMARK    3  A    between atoms: C_9  and  C_10 
REMARK    4  A    between atoms: C_10  and  N_11 
REMARK       I    between atoms: N_11  and  C_12 
REMARK       I    between atoms: C_12  and  N_14 
ROOT
HETATM    1  C   UNL     1     -40.163 -54.362  15.756  1.00  0.00     0.084 C 
ENDROOT
BRANCH   1   2
HETATM    2  C   UNL     1     -41.640 -54.122  15.701  1.00  0.00     0.052 A 
HETATM    3  S   UNL     1     -42.490 -53.807  17.162  1.00  0.00    -0.087 SA
HETATM    4  C   UNL     1     -43.949 -53.698  16.277  1.00  0.00     0.077 A 
HETATM    5  C   UNL     1     -43.717 -53.900  14.927  1.00  0.00     0.024 A 
HETATM    6  N   UNL     1     -42.381 -54.124  14.613  1.00  0.00    -0.356 N 
ATOM      7  HN  UNL     1     -42.024 -54.270  13.669  1.00  0.00     0.166 HD
BRANCH   5   8
HETATM    8  C   UNL     1     -44.764 -53.900  13.820  1.00  0.00    -0.008 C 
HETATM    9  C   UNL     1     -45.498 -55.255  13.782  1.00  0.00     0.021 C 
HETATM   10  C   UNL     1     -44.088 -53.659  12.454  1.00  0.00     0.021 C 
HETATM   11  C   UNL     1     -45.816 -52.792  14.033  1.00  0.00     0.021 C 
ENDBRANCH   5   8
ENDBRANCH   1   2
BRANCH   1  12
HETATM   12  C   UNL     1     -39.516 -54.388  14.372  1.00  0.00     0.131 C 
BRANCH  12  13
HETATM   13  N   UNL     1     -39.042 -53.066  13.983  1.00  0.00    -0.343 N 
HETATM   14  C   UNL     1     -39.657 -52.373  12.970  1.00  0.00     0.318 C 
HETATM   15  O   UNL     1     -40.595 -52.827  12.325  1.00  0.00    -0.247 OA
HETATM   16  N   UNL     1     -39.153 -51.112  12.769  1.00  0.00    -0.334 N 
HETATM   17  C   UNL     1     -39.796 -50.206  11.840  1.00  0.00     0.127 C 
HETATM   18  C   UNL     1     -37.793 -50.679  13.025  1.00  0.00     0.127 C 
HETATM   19  C   UNL     1     -38.988 -48.912  11.907  1.00  0.00     0.022 C 
HETATM   20  C   UNL     1     -37.885 -49.168  12.933  1.00  0.00     0.022 C 
HETATM   21  H   UNL     1     -38.721 -52.474  14.735  1.00  0.00     0.164 HD
ENDBRANCH  12  13
ENDBRANCH   1  12
TORSDOF 4
ENDMDL
MODEL 9
REMARK VINA RESULT:      -5.1      2.930      7.194
REMARK  4 active torsions:
REMARK  status: ('A' for Active; 'I' for Inactive)
REMARK    1  A    between atoms: C_2  and  C_5 
REMARK    2  A    between atoms: C_8  and  C_9 
REMARK    3  A    between atoms: C_9  and  C_10 
REMARK    4  A    between atoms: C_10  and  N_11 
REMARK       I    between atoms: N_11  and  C_12 
REMARK       I    between atoms: C_12  and  N_14 
ROOT
HETATM    1  C   UNL     1     -40.603 -48.639  12.027  1.00  0.00     0.084 C 
ENDROOT
BRANCH   1   2
HETATM    2  C   UNL     1     -41.327 -47.434  11.509  1.00  0.00     0.052 A 
HETATM    3  S   UNL     1     -42.353 -47.603  10.139  1.00  0.00    -0.087 SA
HETATM    4  C   UNL     1     -42.703 -45.931  10.210  1.00  0.00     0.077 A 
HETATM    5  C   UNL     1     -42.032 -45.335  11.265  1.00  0.00     0.024 A 
HETATM    6  N   UNL     1     -41.260 -46.220  12.011  1.00  0.00    -0.356 N 
ATOM      7  HN  UNL     1     -40.716 -45.962  12.835  1.00  0.00     0.166 HD
BRANCH   5   8
HETATM    8  C   UNL     1     -42.070 -43.860  11.644  1.00  0.00    -0.008 C 
HETATM    9  C   UNL     1     -40.700 -43.207  11.379  1.00  0.00     0.021 C 
HETATM   10  C   UNL     1     -42.416 -43.708  13.139  1.00  0.00     0.021 C 
HETATM   11  C   UNL     1     -43.132 -43.092  10.829  1.00  0.00     0.021 C 
ENDBRANCH   5   8
ENDBRANCH   1   2
BRANCH   1  12
HETATM   12  C   UNL     1     -40.743 -49.852  11.110  1.00  0.00     0.131 C 
BRANCH  12  13
HETATM   13  N   UNL     1     -41.613 -50.864  11.696  1.00  0.00    -0.343 N 
HETATM   14  C   UNL     1     -41.081 -51.961  12.328  1.00  0.00     0.318 C 
HETATM   15  O   UNL     1     -39.876 -52.169  12.403  1.00  0.00    -0.247 OA
HETATM   16  N   UNL     1     -42.019 -52.785  12.900  1.00  0.00    -0.334 N 
HETATM   17  C   UNL     1     -41.606 -53.899  13.729  1.00  0.00     0.127 C 
HETATM   18  C   UNL     1     -43.382 -52.980  12.448  1.00  0.00     0.127 C 
HETATM   19  C   UNL     1     -42.900 -54.553  14.207  1.00  0.00     0.022 C 
HETATM   20  C   UNL     1     -44.030 -53.721  13.602  1.00  0.00     0.022 C 
HETATM   21  H   UNL     1     -42.455 -50.521  12.133  1.00  0.00     0.164 HD
ENDBRANCH  12  13
ENDBRANCH   1  12
TORSDOF 4
ENDMDL
