MODEL 1
REMARK VINA RESULT:      -6.4      0.000      0.000
REMARK  5 active torsions:
REMARK  status: ('A' for Active; 'I' for Inactive)
REMARK    1  A    between atoms: C_6  and  N_7 
REMARK       I    between atoms: N_7  and  C_8 
REMARK       I    between atoms: C_8  and  N_10 
REMARK    2  A    between atoms: N_10  and  C_11 
REMARK    3  A    between atoms: C_11  and  C_12 
REMARK    4  A    between atoms: C_12  and  C_13 
REMARK    5  A    between atoms: C_13  and  N_14 
ROOT
HETATM    1  N   UNL     1     -42.231 -52.504  11.798  1.00  0.00    -0.295 N 
HETATM    2  C   UNL     1     -41.422 -51.463  12.194  1.00  0.00     0.321 C 
HETATM    3  O   UNL     1     -41.183 -51.090  13.331  1.00  0.00    -0.247 OA
HETATM    4  N   UNL     1     -40.832 -50.845  11.099  1.00  0.00    -0.343 N 
HETATM    5  H   UNL     1     -42.181 -52.796  10.838  1.00  0.00     0.172 HD
HETATM    6  H   UNL     1     -41.425 -50.781  10.287  1.00  0.00     0.164 HD
ENDROOT
BRANCH   1   7
HETATM    7  C   UNL     1     -42.950 -53.309  12.692  1.00  0.00     0.109 A 
HETATM    8  C   UNL     1     -44.312 -53.477  12.486  1.00  0.00     0.049 A 
HETATM    9  C   UNL     1     -45.022 -54.310  13.354  1.00  0.00     0.006 A 
HETATM   10  C   UNL     1     -44.354 -54.941  14.400  1.00  0.00     0.025 A 
HETATM   11  C   UNL     1     -42.996 -54.713  14.547  1.00  0.00     0.007 A 
HETATM   12  C   UNL     1     -42.199 -55.324  15.654  1.00  0.00     0.068 C 
HETATM   13  N   UNL     1     -42.314 -53.899  13.717  1.00  0.00    -0.346 N 
ATOM     14  HN  UNL     1     -41.319 -53.733  13.866  1.00  0.00     0.167 HD
ENDBRANCH   1   7
BRANCH   4  15
HETATM   15  C   UNL     1     -39.980 -49.704  11.382  1.00  0.00     0.126 C 
BRANCH  15  16
HETATM   16  C   UNL     1     -40.734 -48.385  11.423  1.00  0.00     0.050 C 
BRANCH  16  17
HETATM   17  C   UNL     1     -41.726 -48.211  10.266  1.00  0.00     0.274 C 
BRANCH  17  18
HETATM   18  N   UNL     1     -42.953 -47.533  10.709  1.00  0.00     0.092 N 
HETATM   19  C   UNL     1     -43.958 -47.307   9.650  1.00  0.00     0.298 C 
HETATM   20  C   UNL     1     -43.722 -46.074   8.762  1.00  0.00     0.198 C 
HETATM   21  O   UNL     1     -43.501 -44.890   9.534  1.00  0.00    -0.388 OA
HETATM   22  C   UNL     1     -42.398 -45.081  10.426  1.00  0.00     0.198 C 
HETATM   23  C   UNL     1     -42.667 -46.250  11.386  1.00  0.00     0.298 C 
ENDBRANCH  17  18
ENDBRANCH  16  17
ENDBRANCH  15  16
ENDBRANCH   4  15
TORSDOF 5
ENDMDL
MODEL 2
REMARK VINA RESULT:      -6.3      1.236      1.877
REMARK  5 active torsions:
REMARK  status: ('A' for Active; 'I' for Inactive)
REMARK    1  A    between atoms: C_6  and  N_7 
REMARK       I    between atoms: N_7  and  C_8 
REMARK       I    between atoms: C_8  and  N_10 
REMARK    2  A    between atoms: N_10  and  C_11 
REMARK    3  A    between atoms: C_11  and  C_12 
REMARK    4  A    between atoms: C_12  and  C_13 
REMARK    5  A    between atoms: C_13  and  N_14 
ROOT
HETATM    1  N   UNL     1     -42.751 -52.313  11.804  1.00  0.00    -0.295 N 
HETATM    2  C   UNL     1     -41.872 -51.372  12.290  1.00  0.00     0.321 C 
HETATM    3  O   UNL     1     -41.865 -50.852  13.394  1.00  0.00    -0.247 OA
HETATM    4  N   UNL     1     -40.900 -51.062  11.348  1.00  0.00    -0.343 N 
HETATM    5  H   UNL     1     -42.514 -52.772  10.942  1.00  0.00     0.172 HD
HETATM    6  H   UNL     1     -41.233 -51.041  10.397  1.00  0.00     0.164 HD
ENDROOT
BRANCH   1   7
HETATM    7  C   UNL     1     -43.831 -52.817  12.541  1.00  0.00     0.109 A 
HETATM    8  C   UNL     1     -43.900 -54.183  12.768  1.00  0.00     0.049 A 
HETATM    9  C   UNL     1     -44.956 -54.682  13.535  1.00  0.00     0.006 A 
HETATM   10  C   UNL     1     -45.909 -53.805  14.043  1.00  0.00     0.025 A 
HETATM   11  C   UNL     1     -45.779 -52.455  13.762  1.00  0.00     0.007 A 
HETATM   12  C   UNL     1     -46.767 -51.440  14.240  1.00  0.00     0.068 C 
HETATM   13  N   UNL     1     -44.767 -51.976  13.011  1.00  0.00    -0.346 N 
ATOM     14  HN  UNL     1     -44.712 -50.979  12.801  1.00  0.00     0.167 HD
ENDBRANCH   1   7
BRANCH   4  15
HETATM   15  C   UNL     1     -39.930 -50.050  11.727  1.00  0.00     0.126 C 
BRANCH  15  16
HETATM   16  C   UNL     1     -40.425 -48.630  11.505  1.00  0.00     0.050 C 
BRANCH  16  17
HETATM   17  C   UNL     1     -41.516 -48.522  10.433  1.00  0.00     0.274 C 
BRANCH  17  18
HETATM   18  N   UNL     1     -42.675 -47.763  10.923  1.00  0.00     0.092 N 
HETATM   19  C   UNL     1     -43.711 -47.480   9.908  1.00  0.00     0.298 C 
HETATM   20  C   UNL     1     -43.437 -46.271   8.997  1.00  0.00     0.198 C 
HETATM   21  O   UNL     1     -43.105 -45.099   9.746  1.00  0.00    -0.388 OA
HETATM   22  C   UNL     1     -41.978 -45.354  10.590  1.00  0.00     0.198 C 
HETATM   23  C   UNL     1     -42.278 -46.496  11.573  1.00  0.00     0.298 C 
ENDBRANCH  17  18
ENDBRANCH  16  17
ENDBRANCH  15  16
ENDBRANCH   4  15
TORSDOF 5
ENDMDL
MODEL 3
REMARK VINA RESULT:      -6.2      1.859      7.330
REMARK  5 active torsions:
REMARK  status: ('A' for Active; 'I' for Inactive)
REMARK    1  A    between atoms: C_6  and  N_7 
REMARK       I    between atoms: N_7  and  C_8 
REMARK       I    between atoms: C_8  and  N_10 
REMARK    2  A    between atoms: N_10  and  C_11 
REMARK    3  A    between atoms: C_11  and  C_12 
REMARK    4  A    between atoms: C_12  and  C_13 
REMARK    5  A    between atoms: C_13  and  N_14 
ROOT
HETATM    1  N   UNL     1     -42.217 -48.403   9.524  1.00  0.00    -0.295 N 
HETATM    2  C   UNL     1     -41.569 -48.576  10.726  1.00  0.00     0.321 C 
HETATM    3  O   UNL     1     -41.822 -48.050  11.798  1.00  0.00    -0.247 OA
HETATM    4  N   UNL     1     -40.537 -49.499  10.608  1.00  0.00    -0.343 N 
HETATM    5  H   UNL     1     -42.002 -49.043   8.781  1.00  0.00     0.172 HD
HETATM    6  H   UNL     1     -40.039 -49.457   9.734  1.00  0.00     0.164 HD
ENDROOT
BRANCH   1   7
HETATM    7  C   UNL     1     -43.302 -47.534   9.349  1.00  0.00     0.109 A 
HETATM    8  C   UNL     1     -43.051 -46.176   9.224  1.00  0.00     0.049 A 
HETATM    9  C   UNL     1     -44.129 -45.312   9.011  1.00  0.00     0.006 A 
HETATM   10  C   UNL     1     -45.419 -45.830   8.935  1.00  0.00     0.025 A 
HETATM   11  C   UNL     1     -45.590 -47.197   9.082  1.00  0.00     0.007 A 
HETATM   12  C   UNL     1     -46.938 -47.843   9.044  1.00  0.00     0.068 C 
HETATM   13  N   UNL     1     -44.551 -48.028   9.301  1.00  0.00    -0.346 N 
ATOM     14  HN  UNL     1     -44.711 -49.027   9.429  1.00  0.00     0.167 HD
ENDBRANCH   1   7
BRANCH   4  15
HETATM   15  C   UNL     1     -39.749 -49.744  11.803  1.00  0.00     0.126 C 
BRANCH  15  16
HETATM   16  C   UNL     1     -39.908 -51.153  12.350  1.00  0.00     0.050 C 
BRANCH  16  17
HETATM   17  C   UNL     1     -41.279 -51.773  12.055  1.00  0.00     0.274 C 
BRANCH  17  18
HETATM   18  N   UNL     1     -42.104 -51.851  13.269  1.00  0.00     0.092 N 
HETATM   19  C   UNL     1     -41.673 -52.865  14.253  1.00  0.00     0.298 C 
HETATM   20  C   UNL     1     -42.138 -54.305  13.972  1.00  0.00     0.198 C 
HETATM   21  O   UNL     1     -43.546 -54.376  13.729  1.00  0.00    -0.388 OA
HETATM   22  C   UNL     1     -43.905 -53.515  12.644  1.00  0.00     0.198 C 
HETATM   23  C   UNL     1     -43.534 -52.057  12.958  1.00  0.00     0.298 C 
ENDBRANCH  17  18
ENDBRANCH  16  17
ENDBRANCH  15  16
ENDBRANCH   4  15
TORSDOF 5
ENDMDL
MODEL 4
REMARK VINA RESULT:      -6.0      1.869      7.703
REMARK  5 active torsions:
REMARK  status: ('A' for Active; 'I' for Inactive)
REMARK    1  A    between atoms: C_6  and  N_7 
REMARK       I    between atoms: N_7  and  C_8 
REMARK       I    between atoms: C_8  and  N_10 
REMARK    2  A    between atoms: N_10  and  C_11 
REMARK    3  A    between atoms: C_11  and  C_12 
REMARK    4  A    between atoms: C_12  and  C_13 
REMARK    5  A    between atoms: C_13  and  N_14 
ROOT
HETATM    1  N   UNL     1     -41.253 -49.287  10.451  1.00  0.00    -0.295 N 
HETATM    2  C   UNL     1     -40.912 -49.923  11.623  1.00  0.00     0.321 C 
HETATM    3  O   UNL     1     -40.856 -49.448  12.746  1.00  0.00    -0.247 OA
HETATM    4  N   UNL     1     -40.643 -51.268  11.402  1.00  0.00    -0.343 N 
HETATM    5  H   UNL     1     -41.426 -49.858   9.643  1.00  0.00     0.172 HD
HETATM    6  H   UNL     1     -40.171 -51.460  10.533  1.00  0.00     0.164 HD
ENDROOT
BRANCH   1   7
HETATM    7  C   UNL     1     -41.579 -47.926  10.376  1.00  0.00     0.109 A 
HETATM    8  C   UNL     1     -42.896 -47.573  10.122  1.00  0.00     0.049 A 
HETATM    9  C   UNL     1     -43.231 -46.217  10.084  1.00  0.00     0.006 A 
HETATM   10  C   UNL     1     -42.242 -45.260  10.296  1.00  0.00     0.025 A 
HETATM   11  C   UNL     1     -40.947 -45.692  10.531  1.00  0.00     0.007 A 
HETATM   12  C   UNL     1     -39.813 -44.740  10.742  1.00  0.00     0.068 C 
HETATM   13  N   UNL     1     -40.623 -47.000  10.554  1.00  0.00    -0.346 N 
ATOM     14  HN  UNL     1     -39.656 -47.286  10.706  1.00  0.00     0.167 HD
ENDBRANCH   1   7
BRANCH   4  15
HETATM   15  C   UNL     1     -40.234 -52.045  12.558  1.00  0.00     0.126 C 
BRANCH  15  16
HETATM   16  C   UNL     1     -41.134 -53.239  12.829  1.00  0.00     0.050 C 
BRANCH  16  17
HETATM   17  C   UNL     1     -42.615 -52.968  12.541  1.00  0.00     0.274 C 
BRANCH  17  18
HETATM   18  N   UNL     1     -43.387 -52.833  13.786  1.00  0.00     0.092 N 
HETATM   19  C   UNL     1     -42.878 -53.626  14.924  1.00  0.00     0.298 C 
HETATM   20  C   UNL     1     -43.300 -55.105  14.946  1.00  0.00     0.198 C 
HETATM   21  O   UNL     1     -44.713 -55.262  14.788  1.00  0.00    -0.388 OA
HETATM   22  C   UNL     1     -45.148 -54.637  13.577  1.00  0.00     0.198 C 
HETATM   23  C   UNL     1     -44.820 -53.136  13.588  1.00  0.00     0.298 C 
ENDBRANCH  17  18
ENDBRANCH  16  17
ENDBRANCH  15  16
ENDBRANCH   4  15
TORSDOF 5
ENDMDL
MODEL 5
REMARK VINA RESULT:      -6.0      1.962      7.237
REMARK  5 active torsions:
REMARK  status: ('A' for Active; 'I' for Inactive)
REMARK    1  A    between atoms: C_6  and  N_7 
REMARK       I    between atoms: N_7  and  C_8 
REMARK       I    between atoms: C_8  and  N_10 
REMARK    2  A    between atoms: N_10  and  C_11 
REMARK    3  A    between atoms: C_11  and  C_12 
REMARK    4  A    between atoms: C_12  and  C_13 
REMARK    5  A    between atoms: C_13  and  N_14 
ROOT
HETATM    1  N   UNL     1     -40.871 -49.925  11.048  1.00  0.00    -0.295 N 
HETATM    2  C   UNL     1     -41.210 -50.701  12.133  1.00  0.00     0.321 C 
HETATM    3  O   UNL     1     -42.003 -50.441  13.023  1.00  0.00    -0.247 OA
HETATM    4  N   UNL     1     -40.538 -51.917  12.106  1.00  0.00    -0.343 N 
HETATM    5  H   UNL     1     -40.340 -50.356  10.312  1.00  0.00     0.172 HD
HETATM    6  H   UNL     1     -39.592 -51.862  11.763  1.00  0.00     0.164 HD
ENDROOT
BRANCH   1   7
HETATM    7  C   UNL     1     -41.400 -48.649  10.814  1.00  0.00     0.109 A 
HETATM    8  C   UNL     1     -40.596 -47.543  11.048  1.00  0.00     0.049 A 
HETATM    9  C   UNL     1     -41.110 -46.272  10.780  1.00  0.00     0.006 A 
HETATM   10  C   UNL     1     -42.408 -46.145  10.293  1.00  0.00     0.025 A 
HETATM   11  C   UNL     1     -43.153 -47.296  10.097  1.00  0.00     0.007 A 
HETATM   12  C   UNL     1     -44.565 -47.260   9.605  1.00  0.00     0.068 C 
HETATM   13  N   UNL     1     -42.661 -48.521  10.369  1.00  0.00    -0.346 N 
ATOM     14  HN  UNL     1     -43.244 -49.348  10.238  1.00  0.00     0.167 HD
ENDBRANCH   1   7
BRANCH   4  15
HETATM   15  C   UNL     1     -40.782 -52.816  13.220  1.00  0.00     0.126 C 
BRANCH  15  16
HETATM   16  C   UNL     1     -41.676 -53.991  12.860  1.00  0.00     0.050 C 
BRANCH  16  17
HETATM   17  C   UNL     1     -42.899 -54.133  13.774  1.00  0.00     0.274 C 
BRANCH  17  18
HETATM   18  N   UNL     1     -44.144 -54.206  12.996  1.00  0.00     0.092 N 
HETATM   19  C   UNL     1     -44.686 -52.902  12.561  1.00  0.00     0.298 C 
HETATM   20  C   UNL     1     -45.511 -52.140  13.612  1.00  0.00     0.198 C 
HETATM   21  O   UNL     1     -46.527 -52.961  14.194  1.00  0.00    -0.388 OA
HETATM   22  C   UNL     1     -45.945 -54.134  14.771  1.00  0.00     0.198 C 
HETATM   23  C   UNL     1     -45.202 -54.955  13.706  1.00  0.00     0.298 C 
ENDBRANCH  17  18
ENDBRANCH  16  17
ENDBRANCH  15  16
ENDBRANCH   4  15
TORSDOF 5
ENDMDL
MODEL 6
REMARK VINA RESULT:      -5.9      3.184      5.239
REMARK  5 active torsions:
REMARK  status: ('A' for Active; 'I' for Inactive)
REMARK    1  A    between atoms: C_6  and  N_7 
REMARK       I    between atoms: N_7  and  C_8 
REMARK       I    between atoms: C_8  and  N_10 
REMARK    2  A    between atoms: N_10  and  C_11 
REMARK    3  A    between atoms: C_11  and  C_12 
REMARK    4  A    between atoms: C_12  and  C_13 
REMARK    5  A    between atoms: C_13  and  N_14 
ROOT
HETATM    1  N   UNL     1     -42.315 -52.359  11.799  1.00  0.00    -0.295 N 
HETATM    2  C   UNL     1     -41.660 -51.182  12.079  1.00  0.00     0.321 C 
HETATM    3  O   UNL     1     -41.888 -50.393  12.982  1.00  0.00    -0.247 OA
HETATM    4  N   UNL     1     -40.615 -50.968  11.189  1.00  0.00    -0.343 N 
HETATM    5  H   UNL     1     -41.893 -52.982  11.134  1.00  0.00     0.172 HD
HETATM    6  H   UNL     1     -40.806 -51.261  10.244  1.00  0.00     0.164 HD
ENDROOT
BRANCH   1   7
HETATM    7  C   UNL     1     -43.408 -52.831  12.538  1.00  0.00     0.109 A 
HETATM    8  C   UNL     1     -43.339 -54.104  13.085  1.00  0.00     0.049 A 
HETATM    9  C   UNL     1     -44.412 -54.562  13.854  1.00  0.00     0.006 A 
HETATM   10  C   UNL     1     -45.518 -53.738  14.047  1.00  0.00     0.025 A 
HETATM   11  C   UNL     1     -45.517 -52.485  13.457  1.00  0.00     0.007 A 
HETATM   12  C   UNL     1     -46.671 -51.542  13.584  1.00  0.00     0.068 C 
HETATM   13  N   UNL     1     -44.487 -52.050  12.705  1.00  0.00    -0.346 N 
ATOM     14  HN  UNL     1     -44.527 -51.131  12.264  1.00  0.00     0.167 HD
ENDBRANCH   1   7
BRANCH   4  15
HETATM   15  C   UNL     1     -39.865 -49.735  11.356  1.00  0.00     0.126 C 
BRANCH  15  16
HETATM   16  C   UNL     1     -38.407 -49.962  11.717  1.00  0.00     0.050 C 
BRANCH  16  17
HETATM   17  C   UNL     1     -38.034 -49.447  13.112  1.00  0.00     0.274 C 
BRANCH  17  18
HETATM   18  N   UNL     1     -37.539 -50.533  13.970  1.00  0.00     0.092 N 
HETATM   19  C   UNL     1     -38.521 -51.599  14.256  1.00  0.00     0.298 C 
HETATM   20  C   UNL     1     -39.517 -51.300  15.389  1.00  0.00     0.198 C 
HETATM   21  O   UNL     1     -38.859 -50.862  16.581  1.00  0.00    -0.388 OA
HETATM   22  C   UNL     1     -38.054 -49.711  16.306  1.00  0.00     0.198 C 
HETATM   23  C   UNL     1     -36.989 -50.029  15.246  1.00  0.00     0.298 C 
ENDBRANCH  17  18
ENDBRANCH  16  17
ENDBRANCH  15  16
ENDBRANCH   4  15
TORSDOF 5
ENDMDL
MODEL 7
REMARK VINA RESULT:      -5.7      2.031      2.494
REMARK  5 active torsions:
REMARK  status: ('A' for Active; 'I' for Inactive)
REMARK    1  A    between atoms: C_6  and  N_7 
REMARK       I    between atoms: N_7  and  C_8 
REMARK       I    between atoms: C_8  and  N_10 
REMARK    2  A    between atoms: N_10  and  C_11 
REMARK    3  A    between atoms: C_11  and  C_12 
REMARK    4  A    between atoms: C_12  and  C_13 
REMARK    5  A    between atoms: C_13  and  N_14 
ROOT
HETATM    1  N   UNL     1     -43.940 -51.097  12.617  1.00  0.00    -0.295 N 
HETATM    2  C   UNL     1     -42.580 -51.294  12.688  1.00  0.00     0.321 C 
HETATM    3  O   UNL     1     -41.976 -52.131  13.339  1.00  0.00    -0.247 OA
HETATM    4  N   UNL     1     -41.903 -50.404  11.863  1.00  0.00    -0.343 N 
HETATM    5  H   UNL     1     -44.288 -50.487  11.899  1.00  0.00     0.172 HD
HETATM    6  H   UNL     1     -42.308 -49.482  11.824  1.00  0.00     0.164 HD
ENDROOT
BRANCH   1   7
HETATM    7  C   UNL     1     -44.870 -51.855  13.340  1.00  0.00     0.109 A 
HETATM    8  C   UNL     1     -45.830 -51.190  14.089  1.00  0.00     0.049 A 
HETATM    9  C   UNL     1     -46.782 -51.945  14.780  1.00  0.00     0.006 A 
HETATM   10  C   UNL     1     -46.741 -53.334  14.706  1.00  0.00     0.025 A 
HETATM   11  C   UNL     1     -45.743 -53.925  13.948  1.00  0.00     0.007 A 
HETATM   12  C   UNL     1     -45.601 -55.409  13.831  1.00  0.00     0.068 C 
HETATM   13  N   UNL     1     -44.818 -53.196  13.293  1.00  0.00    -0.346 N 
ATOM     14  HN  UNL     1     -44.081 -53.661  12.762  1.00  0.00     0.167 HD
ENDBRANCH   1   7
BRANCH   4  15
HETATM   15  C   UNL     1     -40.453 -50.485  11.875  1.00  0.00     0.126 C 
BRANCH  15  16
HETATM   16  C   UNL     1     -39.786 -49.244  12.443  1.00  0.00     0.050 C 
BRANCH  16  17
HETATM   17  C   UNL     1     -39.837 -48.035  11.500  1.00  0.00     0.274 C 
BRANCH  17  18
HETATM   18  N   UNL     1     -40.621 -46.936  12.079  1.00  0.00     0.092 N 
HETATM   19  C   UNL     1     -41.986 -46.788  11.533  1.00  0.00     0.298 C 
HETATM   20  C   UNL     1     -42.092 -46.023  10.203  1.00  0.00     0.198 C 
HETATM   21  O   UNL     1     -41.408 -44.767  10.251  1.00  0.00    -0.388 OA
HETATM   22  C   UNL     1     -40.036 -44.964  10.605  1.00  0.00     0.198 C 
HETATM   23  C   UNL     1     -39.919 -45.639  11.981  1.00  0.00     0.298 C 
ENDBRANCH  17  18
ENDBRANCH  16  17
ENDBRANCH  15  16
ENDBRANCH   4  15
TORSDOF 5
ENDMDL
MODEL 8
REMARK VINA RESULT:      -5.7      1.698      7.651
REMARK  5 active torsions:
REMARK  status: ('A' for Active; 'I' for Inactive)
REMARK    1  A    between atoms: C_6  and  N_7 
REMARK       I    between atoms: N_7  and  C_8 
REMARK       I    between atoms: C_8  and  N_10 
REMARK    2  A    between atoms: N_10  and  C_11 
REMARK    3  A    between atoms: C_11  and  C_12 
REMARK    4  A    between atoms: C_12  and  C_13 
REMARK    5  A    between atoms: C_13  and  N_14 
ROOT
HETATM    1  N   UNL     1     -41.534 -48.683   9.943  1.00  0.00    -0.295 N 
HETATM    2  C   UNL     1     -41.331 -49.279  11.167  1.00  0.00     0.321 C 
HETATM    3  O   UNL     1     -41.763 -48.929  12.253  1.00  0.00    -0.247 OA
HETATM    4  N   UNL     1     -40.553 -50.423  11.042  1.00  0.00    -0.343 N 
HETATM    5  H   UNL     1     -41.261 -49.195   9.123  1.00  0.00     0.172 HD
HETATM    6  H   UNL     1     -39.820 -50.355  10.353  1.00  0.00     0.164 HD
ENDROOT
BRANCH   1   7
HETATM    7  C   UNL     1     -42.288 -47.515   9.767  1.00  0.00     0.109 A 
HETATM    8  C   UNL     1     -43.332 -47.530   8.854  1.00  0.00     0.049 A 
HETATM    9  C   UNL     1     -44.108 -46.378   8.705  1.00  0.00     0.006 A 
HETATM   10  C   UNL     1     -43.813 -45.249   9.466  1.00  0.00     0.025 A 
HETATM   11  C   UNL     1     -42.746 -45.308  10.347  1.00  0.00     0.007 A 
HETATM   12  C   UNL     1     -42.336 -44.140  11.185  1.00  0.00     0.068 C 
HETATM   13  N   UNL     1     -41.990 -46.416  10.480  1.00  0.00    -0.346 N 
ATOM     14  HN  UNL     1     -41.196 -46.421  11.120  1.00  0.00     0.167 HD
ENDBRANCH   1   7
BRANCH   4  15
HETATM   15  C   UNL     1     -40.234 -51.126  12.272  1.00  0.00     0.126 C 
BRANCH  15  16
HETATM   16  C   UNL     1     -40.826 -52.524  12.336  1.00  0.00     0.050 C 
BRANCH  16  17
HETATM   17  C   UNL     1     -42.347 -52.537  12.531  1.00  0.00     0.274 C 
BRANCH  17  18
HETATM   18  N   UNL     1     -42.830 -53.877  12.893  1.00  0.00     0.092 N 
HETATM   19  C   UNL     1     -44.299 -54.030  12.903  1.00  0.00     0.298 C 
HETATM   20  C   UNL     1     -45.011 -53.543  14.177  1.00  0.00     0.198 C 
HETATM   21  O   UNL     1     -44.421 -54.087  15.361  1.00  0.00    -0.388 OA
HETATM   22  C   UNL     1     -43.028 -53.763  15.413  1.00  0.00     0.198 C 
HETATM   23  C   UNL     1     -42.289 -54.332  14.191  1.00  0.00     0.298 C 
ENDBRANCH  17  18
ENDBRANCH  16  17
ENDBRANCH  15  16
ENDBRANCH   4  15
TORSDOF 5
ENDMDL
MODEL 9
REMARK VINA RESULT:      -5.6      2.833      7.127
REMARK  5 active torsions:
REMARK  status: ('A' for Active; 'I' for Inactive)
REMARK    1  A    between atoms: C_6  and  N_7 
REMARK       I    between atoms: N_7  and  C_8 
REMARK       I    between atoms: C_8  and  N_10 
REMARK    2  A    between atoms: N_10  and  C_11 
REMARK    3  A    between atoms: C_11  and  C_12 
REMARK    4  A    between atoms: C_12  and  C_13 
REMARK    5  A    between atoms: C_13  and  N_14 
ROOT
HETATM    1  N   UNL     1     -41.014 -49.414  10.569  1.00  0.00    -0.295 N 
HETATM    2  C   UNL     1     -41.333 -50.226  11.634  1.00  0.00     0.321 C 
HETATM    3  O   UNL     1     -41.983 -49.941  12.627  1.00  0.00    -0.247 OA
HETATM    4  N   UNL     1     -40.834 -51.509  11.450  1.00  0.00    -0.343 N 
HETATM    5  H   UNL     1     -40.628 -49.848   9.750  1.00  0.00     0.172 HD
HETATM    6  H   UNL     1     -39.931 -51.545  11.002  1.00  0.00     0.164 HD
ENDROOT
BRANCH   1   7
HETATM    7  C   UNL     1     -41.394 -48.068  10.483  1.00  0.00     0.109 A 
HETATM    8  C   UNL     1     -42.728 -47.767  10.256  1.00  0.00     0.049 A 
HETATM    9  C   UNL     1     -43.114 -46.425  10.207  1.00  0.00     0.006 A 
HETATM   10  C   UNL     1     -42.157 -45.429  10.380  1.00  0.00     0.025 A 
HETATM   11  C   UNL     1     -40.841 -45.810  10.590  1.00  0.00     0.007 A 
HETATM   12  C   UNL     1     -39.739 -44.814  10.758  1.00  0.00     0.068 C 
HETATM   13  N   UNL     1     -40.468 -47.104  10.623  1.00  0.00    -0.346 N 
ATOM     14  HN  UNL     1     -39.488 -47.352  10.755  1.00  0.00     0.167 HD
ENDBRANCH   1   7
BRANCH   4  15
HETATM   15  C   UNL     1     -41.072 -52.457  12.524  1.00  0.00     0.126 C 
BRANCH  15  16
HETATM   16  C   UNL     1     -39.834 -52.745  13.358  1.00  0.00     0.050 C 
BRANCH  16  17
HETATM   17  C   UNL     1     -39.530 -51.660  14.398  1.00  0.00     0.274 C 
BRANCH  17  18
HETATM   18  N   UNL     1     -38.109 -51.282  14.379  1.00  0.00     0.092 N 
HETATM   19  C   UNL     1     -37.710 -50.303  15.411  1.00  0.00     0.298 C 
HETATM   20  C   UNL     1     -37.999 -48.829  15.078  1.00  0.00     0.198 C 
HETATM   21  O   UNL     1     -37.500 -48.462  13.789  1.00  0.00    -0.388 OA
HETATM   22  C   UNL     1     -38.051 -49.318  12.783  1.00  0.00     0.198 C 
HETATM   23  C   UNL     1     -37.683 -50.786  13.053  1.00  0.00     0.298 C 
ENDBRANCH  17  18
ENDBRANCH  16  17
ENDBRANCH  15  16
ENDBRANCH   4  15
TORSDOF 5
ENDMDL
