MODEL 1
REMARK VINA RESULT:      -6.3      0.000      0.000
REMARK  4 active torsions:
REMARK  status: ('A' for Active; 'I' for Inactive)
REMARK    1  A    between atoms: O_2  and  C_3 
REMARK    2  A    between atoms: C_6  and  N_7 
REMARK       I    between atoms: N_7  and  C_8 
REMARK    3  A    between atoms: C_8  and  C_10 
REMARK    4  A    between atoms: C_10  and  C_11 
ROOT
HETATM    1  N   UNL     1     -43.658 -50.133  12.504  1.00  0.00    -0.355 N 
HETATM    2  C   UNL     1     -43.030 -48.905  12.369  1.00  0.00     0.222 C 
HETATM    3  O   UNL     1     -42.946 -48.061  13.256  1.00  0.00    -0.273 OA
HETATM    4  H   UNL     1     -43.755 -50.684  11.660  1.00  0.00     0.162 HD
ENDROOT
BRANCH   1   5
HETATM    5  C   UNL     1     -44.394 -50.612  13.721  1.00  0.00     0.098 C 
HETATM    6  C   UNL     1     -43.809 -51.800  14.518  1.00  0.00     0.064 C 
HETATM    7  C   UNL     1     -44.698 -52.779  13.682  1.00  0.00     0.067 C 
HETATM    8  C   UNL     1     -44.005 -53.384  12.453  1.00  0.00     0.047 C 
HETATM    9  C   UNL     1     -45.658 -51.526  13.447  1.00  0.00     0.004 C 
HETATM   10  C   UNL     1     -46.332 -51.410  12.081  1.00  0.00     0.020 C 
HETATM   11  C   UNL     1     -46.730 -51.367  14.545  1.00  0.00     0.020 C 
BRANCH   7  12
HETATM   12  O   UNL     1     -45.235 -53.848  14.511  1.00  0.00    -0.384 OA
HETATM   13  C   UNL     1     -45.530 -55.096  13.903  1.00  0.00     0.202 C 
ENDBRANCH   7  12
ENDBRANCH   1   5
BRANCH   2  14
HETATM   14  C   UNL     1     -42.385 -48.646  11.024  1.00  0.00     0.146 C 
BRANCH  14  15
HETATM   15  C   UNL     1     -42.730 -47.292  10.520  1.00  0.00     0.006 A 
HETATM   16  C   UNL     1     -43.949 -46.861   9.931  1.00  0.00     0.038 A 
HETATM   17  C   UNL     1     -45.181 -47.637   9.655  1.00  0.00     0.071 C 
HETATM   18  N   UNL     1     -43.904 -45.568   9.601  1.00  0.00    -0.265 N 
HETATM   19  O   UNL     1     -42.648 -45.129   9.960  1.00  0.00    -0.242 OA
ATOM     20  HN  UNL     1     -44.647 -45.017   9.172  1.00  0.00     0.194 HD
HETATM   21  C   UNL     1     -41.942 -46.155  10.502  1.00  0.00     0.081 A 
HETATM   22  C   UNL     1     -40.564 -45.836  10.936  1.00  0.00     0.079 C 
ENDBRANCH  14  15
ENDBRANCH   2  14
TORSDOF 4
ENDMDL
MODEL 2
REMARK VINA RESULT:      -6.0      2.102      3.063
REMARK  4 active torsions:
REMARK  status: ('A' for Active; 'I' for Inactive)
REMARK    1  A    between atoms: O_2  and  C_3 
REMARK    2  A    between atoms: C_6  and  N_7 
REMARK       I    between atoms: N_7  and  C_8 
REMARK    3  A    between atoms: C_8  and  C_10 
REMARK    4  A    between atoms: C_10  and  C_11 
ROOT
HETATM    1  N   UNL     1     -43.874 -50.262  12.894  1.00  0.00    -0.355 N 
HETATM    2  C   UNL     1     -43.184 -49.060  12.884  1.00  0.00     0.222 C 
HETATM    3  O   UNL     1     -43.022 -48.336  13.862  1.00  0.00    -0.273 OA
HETATM    4  H   UNL     1     -44.032 -50.698  11.994  1.00  0.00     0.162 HD
ENDROOT
BRANCH   1   5
HETATM    5  C   UNL     1     -44.592 -50.849  14.073  1.00  0.00     0.098 C 
HETATM    6  C   UNL     1     -43.999 -52.107  14.748  1.00  0.00     0.064 C 
HETATM    7  C   UNL     1     -44.906 -53.002  13.839  1.00  0.00     0.067 C 
HETATM    8  C   UNL     1     -44.235 -53.492  12.549  1.00  0.00     0.047 C 
HETATM    9  C   UNL     1     -45.864 -51.731  13.737  1.00  0.00     0.004 C 
HETATM   10  C   UNL     1     -46.560 -51.487  12.399  1.00  0.00     0.020 C 
HETATM   11  C   UNL     1     -46.918 -51.671  14.863  1.00  0.00     0.020 C 
BRANCH   7  12
HETATM   12  O   UNL     1     -45.434 -54.142  14.575  1.00  0.00    -0.384 OA
HETATM   13  C   UNL     1     -45.635 -55.363  13.881  1.00  0.00     0.202 C 
ENDBRANCH   7  12
ENDBRANCH   1   5
BRANCH   2  14
HETATM   14  C   UNL     1     -42.573 -48.670  11.554  1.00  0.00     0.146 C 
BRANCH  14  15
HETATM   15  C   UNL     1     -41.116 -48.959  11.532  1.00  0.00     0.006 A 
HETATM   16  C   UNL     1     -40.043 -48.042  11.369  1.00  0.00     0.038 A 
HETATM   17  C   UNL     1     -40.089 -46.574  11.167  1.00  0.00     0.071 C 
HETATM   18  N   UNL     1     -38.860 -48.660  11.407  1.00  0.00    -0.265 N 
HETATM   19  O   UNL     1     -39.136 -49.998  11.587  1.00  0.00    -0.242 OA
ATOM     20  HN  UNL     1     -37.939 -48.230  11.321  1.00  0.00     0.194 HD
HETATM   21  C   UNL     1     -40.480 -50.182  11.656  1.00  0.00     0.081 A 
HETATM   22  C   UNL     1     -40.935 -51.576  11.846  1.00  0.00     0.079 C 
ENDBRANCH  14  15
ENDBRANCH   2  14
TORSDOF 4
ENDMDL
MODEL 3
REMARK VINA RESULT:      -5.7      3.548      4.597
REMARK  4 active torsions:
REMARK  status: ('A' for Active; 'I' for Inactive)
REMARK    1  A    between atoms: O_2  and  C_3 
REMARK    2  A    between atoms: C_6  and  N_7 
REMARK       I    between atoms: N_7  and  C_8 
REMARK    3  A    between atoms: C_8  and  C_10 
REMARK    4  A    between atoms: C_10  and  C_11 
ROOT
HETATM    1  N   UNL     1     -42.441 -51.856  12.103  1.00  0.00    -0.355 N 
HETATM    2  C   UNL     1     -41.075 -51.663  11.967  1.00  0.00     0.222 C 
HETATM    3  O   UNL     1     -40.222 -52.519  12.182  1.00  0.00    -0.273 OA
HETATM    4  H   UNL     1     -43.023 -51.033  12.007  1.00  0.00     0.162 HD
ENDROOT
BRANCH   1   5
HETATM    5  C   UNL     1     -43.104 -53.108  12.595  1.00  0.00     0.098 C 
HETATM    6  C   UNL     1     -44.626 -53.271  12.382  1.00  0.00     0.064 C 
HETATM    7  C   UNL     1     -44.873 -52.666  13.805  1.00  0.00     0.067 C 
HETATM    8  C   UNL     1     -45.131 -51.154  13.823  1.00  0.00     0.047 C 
HETATM    9  C   UNL     1     -43.398 -53.168  14.149  1.00  0.00     0.004 C 
HETATM   10  C   UNL     1     -42.554 -52.281  15.064  1.00  0.00     0.020 C 
HETATM   11  C   UNL     1     -43.358 -54.615  14.686  1.00  0.00     0.020 C 
BRANCH   7  12
HETATM   12  O   UNL     1     -45.957 -53.353  14.492  1.00  0.00    -0.384 OA
HETATM   13  C   UNL     1     -46.910 -52.575  15.201  1.00  0.00     0.202 C 
ENDBRANCH   7  12
ENDBRANCH   1   5
BRANCH   2  14
HETATM   14  C   UNL     1     -40.655 -50.291  11.482  1.00  0.00     0.146 C 
BRANCH  14  15
HETATM   15  C   UNL     1     -39.714 -49.653  12.438  1.00  0.00     0.006 A 
HETATM   16  C   UNL     1     -38.306 -49.503  12.315  1.00  0.00     0.038 A 
HETATM   17  C   UNL     1     -37.410 -49.947  11.221  1.00  0.00     0.071 C 
HETATM   18  N   UNL     1     -37.787 -48.871  13.369  1.00  0.00    -0.265 N 
HETATM   19  O   UNL     1     -38.844 -48.603  14.211  1.00  0.00    -0.242 OA
ATOM     20  HN  UNL     1     -36.806 -48.634  13.522  1.00  0.00     0.194 HD
HETATM   21  C   UNL     1     -39.995 -49.073  13.663  1.00  0.00     0.081 A 
HETATM   22  C   UNL     1     -41.225 -48.860  14.456  1.00  0.00     0.079 C 
ENDBRANCH  14  15
ENDBRANCH   2  14
TORSDOF 4
ENDMDL
MODEL 4
REMARK VINA RESULT:      -5.7      3.649      4.447
REMARK  4 active torsions:
REMARK  status: ('A' for Active; 'I' for Inactive)
REMARK    1  A    between atoms: O_2  and  C_3 
REMARK    2  A    between atoms: C_6  and  N_7 
REMARK       I    between atoms: N_7  and  C_8 
REMARK    3  A    between atoms: C_8  and  C_10 
REMARK    4  A    between atoms: C_10  and  C_11 
ROOT
HETATM    1  N   UNL     1     -42.444 -51.866  12.112  1.00  0.00    -0.355 N 
HETATM    2  C   UNL     1     -41.078 -51.671  11.973  1.00  0.00     0.222 C 
HETATM    3  O   UNL     1     -40.224 -52.524  12.190  1.00  0.00    -0.273 OA
HETATM    4  H   UNL     1     -43.028 -51.044  12.013  1.00  0.00     0.162 HD
ENDROOT
BRANCH   1   5
HETATM    5  C   UNL     1     -43.104 -53.118  12.609  1.00  0.00     0.098 C 
HETATM    6  C   UNL     1     -44.622 -53.294  12.380  1.00  0.00     0.064 C 
HETATM    7  C   UNL     1     -44.891 -52.676  13.793  1.00  0.00     0.067 C 
HETATM    8  C   UNL     1     -45.160 -51.165  13.791  1.00  0.00     0.047 C 
HETATM    9  C   UNL     1     -43.417 -53.163  14.160  1.00  0.00     0.004 C 
HETATM   10  C   UNL     1     -42.591 -52.260  15.075  1.00  0.00     0.020 C 
HETATM   11  C   UNL     1     -43.373 -54.603  14.713  1.00  0.00     0.020 C 
BRANCH   7  12
HETATM   12  O   UNL     1     -45.979 -53.363  14.474  1.00  0.00    -0.384 OA
HETATM   13  C   UNL     1     -46.914 -52.589  15.208  1.00  0.00     0.202 C 
ENDBRANCH   7  12
ENDBRANCH   1   5
BRANCH   2  14
HETATM   14  C   UNL     1     -40.662 -50.300  11.482  1.00  0.00     0.146 C 
BRANCH  14  15
HETATM   15  C   UNL     1     -39.666 -49.687  12.398  1.00  0.00     0.006 A 
HETATM   16  C   UNL     1     -39.896 -49.078  13.662  1.00  0.00     0.038 A 
HETATM   17  C   UNL     1     -41.172 -48.885  14.389  1.00  0.00     0.071 C 
HETATM   18  N   UNL     1     -38.759 -48.639  14.208  1.00  0.00    -0.265 N 
HETATM   19  O   UNL     1     -37.762 -48.943  13.306  1.00  0.00    -0.242 OA
ATOM     20  HN  UNL     1     -38.651 -48.174  15.109  1.00  0.00     0.194 HD
HETATM   21  C   UNL     1     -38.299 -49.562  12.222  1.00  0.00     0.081 A 
HETATM   22  C   UNL     1     -37.346 -49.949  11.160  1.00  0.00     0.079 C 
ENDBRANCH  14  15
ENDBRANCH   2  14
TORSDOF 4
ENDMDL
MODEL 5
REMARK VINA RESULT:      -5.6      3.830      6.803
REMARK  4 active torsions:
REMARK  status: ('A' for Active; 'I' for Inactive)
REMARK    1  A    between atoms: O_2  and  C_3 
REMARK    2  A    between atoms: C_6  and  N_7 
REMARK       I    between atoms: N_7  and  C_8 
REMARK    3  A    between atoms: C_8  and  C_10 
REMARK    4  A    between atoms: C_10  and  C_11 
ROOT
HETATM    1  N   UNL     1     -43.552 -52.122  12.778  1.00  0.00    -0.355 N 
HETATM    2  C   UNL     1     -44.528 -51.256  13.248  1.00  0.00     0.222 C 
HETATM    3  O   UNL     1     -44.348 -50.068  13.498  1.00  0.00    -0.273 OA
HETATM    4  H   UNL     1     -43.807 -53.101  12.725  1.00  0.00     0.162 HD
ENDROOT
BRANCH   1   5
HETATM    5  C   UNL     1     -42.109 -51.779  12.559  1.00  0.00     0.098 C 
HETATM    6  C   UNL     1     -41.182 -52.847  11.935  1.00  0.00     0.064 C 
HETATM    7  C   UNL     1     -40.780 -53.316  13.374  1.00  0.00     0.067 C 
HETATM    8  C   UNL     1     -41.606 -54.487  13.920  1.00  0.00     0.047 C 
HETATM    9  C   UNL     1     -41.182 -51.845  13.842  1.00  0.00     0.004 C 
HETATM   10  C   UNL     1     -41.854 -51.706  15.207  1.00  0.00     0.020 C 
HETATM   11  C   UNL     1     -40.015 -50.839  13.759  1.00  0.00     0.020 C 
BRANCH   7  12
HETATM   12  O   UNL     1     -39.363 -53.644  13.448  1.00  0.00    -0.384 OA
HETATM   13  C   UNL     1     -38.934 -54.578  14.426  1.00  0.00     0.202 C 
ENDBRANCH   7  12
ENDBRANCH   1   5
BRANCH   2  14
HETATM   14  C   UNL     1     -45.908 -51.856  13.415  1.00  0.00     0.146 C 
BRANCH  14  15
HETATM   15  C   UNL     1     -45.971 -52.716  14.625  1.00  0.00     0.006 A 
HETATM   16  C   UNL     1     -46.229 -52.323  15.966  1.00  0.00     0.038 A 
HETATM   17  C   UNL     1     -46.488 -50.969  16.512  1.00  0.00     0.071 C 
HETATM   18  N   UNL     1     -46.215 -53.370  16.794  1.00  0.00    -0.265 N 
HETATM   19  O   UNL     1     -45.938 -54.470  16.012  1.00  0.00    -0.242 OA
ATOM     20  HN  UNL     1     -46.377 -53.359  17.801  1.00  0.00     0.194 HD
HETATM   21  C   UNL     1     -45.785 -54.084  14.718  1.00  0.00     0.081 A 
HETATM   22  C   UNL     1     -45.479 -55.161  13.752  1.00  0.00     0.079 C 
ENDBRANCH  14  15
ENDBRANCH   2  14
TORSDOF 4
ENDMDL
MODEL 6
REMARK VINA RESULT:      -5.4      4.258      6.979
REMARK  4 active torsions:
REMARK  status: ('A' for Active; 'I' for Inactive)
REMARK    1  A    between atoms: O_2  and  C_3 
REMARK    2  A    between atoms: C_6  and  N_7 
REMARK       I    between atoms: N_7  and  C_8 
REMARK    3  A    between atoms: C_8  and  C_10 
REMARK    4  A    between atoms: C_10  and  C_11 
ROOT
HETATM    1  N   UNL     1     -42.235 -52.988  15.239  1.00  0.00    -0.355 N 
HETATM    2  C   UNL     1     -43.222 -53.370  16.135  1.00  0.00     0.222 C 
HETATM    3  O   UNL     1     -43.028 -54.029  17.152  1.00  0.00    -0.273 OA
HETATM    4  H   UNL     1     -42.550 -52.548  14.383  1.00  0.00     0.162 HD
ENDROOT
BRANCH   1   5
HETATM    5  C   UNL     1     -40.785 -53.364  15.321  1.00  0.00     0.098 C 
HETATM    6  C   UNL     1     -39.736 -52.237  15.455  1.00  0.00     0.064 C 
HETATM    7  C   UNL     1     -39.572 -52.226  13.899  1.00  0.00     0.067 C 
HETATM    8  C   UNL     1     -40.447 -51.197  13.170  1.00  0.00     0.047 C 
HETATM    9  C   UNL     1     -40.090 -53.734  13.947  1.00  0.00     0.004 C 
HETATM   10  C   UNL     1     -40.988 -54.201  12.804  1.00  0.00     0.020 C 
HETATM   11  C   UNL     1     -38.953 -54.761  14.137  1.00  0.00     0.020 C 
BRANCH   7  12
HETATM   12  O   UNL     1     -38.181 -52.040  13.513  1.00  0.00    -0.384 OA
HETATM   13  C   UNL     1     -37.847 -50.932  12.691  1.00  0.00     0.202 C 
ENDBRANCH   7  12
ENDBRANCH   1   5
BRANCH   2  14
HETATM   14  C   UNL     1     -44.620 -52.887  15.810  1.00  0.00     0.146 C 
BRANCH  14  15
HETATM   15  C   UNL     1     -44.879 -52.952  14.349  1.00  0.00     0.006 A 
HETATM   16  C   UNL     1     -44.753 -51.910  13.390  1.00  0.00     0.038 A 
HETATM   17  C   UNL     1     -44.346 -50.499  13.589  1.00  0.00     0.071 C 
HETATM   18  N   UNL     1     -45.065 -52.334  12.163  1.00  0.00    -0.265 N 
HETATM   19  O   UNL     1     -45.413 -53.661  12.296  1.00  0.00    -0.242 OA
ATOM     20  HN  UNL     1     -45.050 -51.787  11.302  1.00  0.00     0.194 HD
HETATM   21  C   UNL     1     -45.310 -54.032  13.599  1.00  0.00     0.081 A 
HETATM   22  C   UNL     1     -45.655 -55.437  13.902  1.00  0.00     0.079 C 
ENDBRANCH  14  15
ENDBRANCH   2  14
TORSDOF 4
ENDMDL
MODEL 7
REMARK VINA RESULT:      -5.4      2.040      6.988
REMARK  4 active torsions:
REMARK  status: ('A' for Active; 'I' for Inactive)
REMARK    1  A    between atoms: O_2  and  C_3 
REMARK    2  A    between atoms: C_6  and  N_7 
REMARK       I    between atoms: N_7  and  C_8 
REMARK    3  A    between atoms: C_8  and  C_10 
REMARK    4  A    between atoms: C_10  and  C_11 
ROOT
HETATM    1  N   UNL     1     -42.948 -50.543  12.769  1.00  0.00    -0.355 N 
HETATM    2  C   UNL     1     -42.665 -51.882  12.989  1.00  0.00     0.222 C 
HETATM    3  O   UNL     1     -41.783 -52.298  13.734  1.00  0.00    -0.273 OA
HETATM    4  H   UNL     1     -43.623 -50.339  12.042  1.00  0.00     0.162 HD
ENDROOT
BRANCH   1   5
HETATM    5  C   UNL     1     -42.193 -49.382  13.345  1.00  0.00     0.098 C 
HETATM    6  C   UNL     1     -42.942 -48.047  13.562  1.00  0.00     0.064 C 
HETATM    7  C   UNL     1     -42.463 -47.568  12.151  1.00  0.00     0.067 C 
HETATM    8  C   UNL     1     -43.458 -47.833  11.013  1.00  0.00     0.047 C 
HETATM    9  C   UNL     1     -41.259 -48.597  12.335  1.00  0.00     0.004 C 
HETATM   10  C   UNL     1     -40.781 -49.343  11.090  1.00  0.00     0.020 C 
HETATM   11  C   UNL     1     -40.035 -47.981  13.045  1.00  0.00     0.020 C 
BRANCH   7  12
HETATM   12  O   UNL     1     -42.105 -46.157  12.164  1.00  0.00    -0.384 OA
HETATM   13  C   UNL     1     -42.327 -45.390  10.990  1.00  0.00     0.202 C 
ENDBRANCH   7  12
ENDBRANCH   1   5
BRANCH   2  14
HETATM   14  C   UNL     1     -43.558 -52.865  12.262  1.00  0.00     0.146 C 
BRANCH  14  15
HETATM   15  C   UNL     1     -44.697 -53.285  13.120  1.00  0.00     0.006 A 
HETATM   16  C   UNL     1     -46.032 -52.798  13.103  1.00  0.00     0.038 A 
HETATM   17  C   UNL     1     -46.634 -51.749  12.247  1.00  0.00     0.071 C 
HETATM   18  N   UNL     1     -46.789 -53.413  14.014  1.00  0.00    -0.265 N 
HETATM   19  O   UNL     1     -45.960 -54.309  14.654  1.00  0.00    -0.242 OA
ATOM     20  HN  UNL     1     -47.779 -53.252  14.200  1.00  0.00     0.194 HD
HETATM   21  C   UNL     1     -44.710 -54.231  14.129  1.00  0.00     0.081 A 
HETATM   22  C   UNL     1     -43.702 -55.138  14.719  1.00  0.00     0.079 C 
ENDBRANCH  14  15
ENDBRANCH   2  14
TORSDOF 4
ENDMDL
MODEL 8
REMARK VINA RESULT:      -5.4      1.407      2.863
REMARK  4 active torsions:
REMARK  status: ('A' for Active; 'I' for Inactive)
REMARK    1  A    between atoms: O_2  and  C_3 
REMARK    2  A    between atoms: C_6  and  N_7 
REMARK       I    between atoms: N_7  and  C_8 
REMARK    3  A    between atoms: C_8  and  C_10 
REMARK    4  A    between atoms: C_10  and  C_11 
ROOT
HETATM    1  N   UNL     1     -43.261 -50.638  12.950  1.00  0.00    -0.355 N 
HETATM    2  C   UNL     1     -42.425 -49.718  12.336  1.00  0.00     0.222 C 
HETATM    3  O   UNL     1     -41.473 -50.007  11.617  1.00  0.00    -0.273 OA
HETATM    4  H   UNL     1     -43.934 -50.265  13.609  1.00  0.00     0.162 HD
ENDROOT
BRANCH   1   5
HETATM    5  C   UNL     1     -43.111 -52.129  12.897  1.00  0.00     0.098 C 
HETATM    6  C   UNL     1     -44.256 -52.966  12.283  1.00  0.00     0.064 C 
HETATM    7  C   UNL     1     -44.868 -53.149  13.712  1.00  0.00     0.067 C 
HETATM    8  C   UNL     1     -45.944 -52.121  14.084  1.00  0.00     0.047 C 
HETATM    9  C   UNL     1     -43.389 -52.899  14.253  1.00  0.00     0.004 C 
HETATM   10  C   UNL     1     -43.245 -52.111  15.555  1.00  0.00     0.020 C 
HETATM   11  C   UNL     1     -42.553 -54.192  14.361  1.00  0.00     0.020 C 
BRANCH   7  12
HETATM   12  O   UNL     1     -45.396 -54.493  13.895  1.00  0.00    -0.384 OA
HETATM   13  C   UNL     1     -46.541 -54.666  14.715  1.00  0.00     0.202 C 
ENDBRANCH   7  12
ENDBRANCH   1   5
BRANCH   2  14
HETATM   14  C   UNL     1     -42.772 -48.263  12.571  1.00  0.00     0.146 C 
BRANCH  14  15
HETATM   15  C   UNL     1     -42.501 -47.449  11.358  1.00  0.00     0.006 A 
HETATM   16  C   UNL     1     -41.321 -46.727  11.032  1.00  0.00     0.038 A 
HETATM   17  C   UNL     1     -40.067 -46.585  11.809  1.00  0.00     0.071 C 
HETATM   18  N   UNL     1     -41.432 -46.113   9.852  1.00  0.00    -0.265 N 
HETATM   19  O   UNL     1     -42.693 -46.413   9.385  1.00  0.00    -0.242 OA
ATOM     20  HN  UNL     1     -40.727 -45.539   9.390  1.00  0.00     0.194 HD
HETATM   21  C   UNL     1     -43.337 -47.204  10.283  1.00  0.00     0.081 A 
HETATM   22  C   UNL     1     -44.712 -47.609   9.920  1.00  0.00     0.079 C 
ENDBRANCH  14  15
ENDBRANCH   2  14
TORSDOF 4
ENDMDL
MODEL 9
REMARK VINA RESULT:      -5.3      2.333      7.502
REMARK  4 active torsions:
REMARK  status: ('A' for Active; 'I' for Inactive)
REMARK    1  A    between atoms: O_2  and  C_3 
REMARK    2  A    between atoms: C_6  and  N_7 
REMARK       I    between atoms: N_7  and  C_8 
REMARK    3  A    between atoms: C_8  and  C_10 
REMARK    4  A    between atoms: C_10  and  C_11 
ROOT
HETATM    1  N   UNL     1     -43.097 -50.722  12.542  1.00  0.00    -0.355 N 
HETATM    2  C   UNL     1     -43.908 -51.741  13.017  1.00  0.00     0.222 C 
HETATM    3  O   UNL     1     -44.861 -51.582  13.773  1.00  0.00    -0.273 OA
HETATM    4  H   UNL     1     -42.277 -51.007  12.019  1.00  0.00     0.162 HD
ENDROOT
BRANCH   1   5
HETATM    5  C   UNL     1     -43.200 -49.274  12.917  1.00  0.00     0.098 C 
HETATM    6  C   UNL     1     -43.162 -48.214  11.792  1.00  0.00     0.064 C 
HETATM    7  C   UNL     1     -41.615 -48.083  11.989  1.00  0.00     0.067 C 
HETATM    8  C   UNL     1     -40.773 -48.965  11.059  1.00  0.00     0.047 C 
HETATM    9  C   UNL     1     -41.874 -48.609  13.473  1.00  0.00     0.004 C 
HETATM   10  C   UNL     1     -40.821 -49.534  14.079  1.00  0.00     0.020 C 
HETATM   11  C   UNL     1     -42.177 -47.476  14.476  1.00  0.00     0.020 C 
BRANCH   7  12
HETATM   12  O   UNL     1     -41.181 -46.698  11.870  1.00  0.00    -0.384 OA
HETATM   13  C   UNL     1     -40.043 -46.411  11.073  1.00  0.00     0.202 C 
ENDBRANCH   7  12
ENDBRANCH   1   5
BRANCH   2  14
HETATM   14  C   UNL     1     -43.577 -53.129  12.510  1.00  0.00     0.146 C 
BRANCH  14  15
HETATM   15  C   UNL     1     -43.392 -54.078  13.638  1.00  0.00     0.006 A 
HETATM   16  C   UNL     1     -42.209 -54.333  14.384  1.00  0.00     0.038 A 
HETATM   17  C   UNL     1     -40.860 -53.740  14.230  1.00  0.00     0.071 C 
HETATM   18  N   UNL     1     -42.417 -55.249  15.332  1.00  0.00    -0.265 N 
HETATM   19  O   UNL     1     -43.739 -55.620  15.220  1.00  0.00    -0.242 OA
ATOM     20  HN  UNL     1     -41.735 -55.603  16.004  1.00  0.00     0.194 HD
HETATM   21  C   UNL     1     -44.323 -54.928  14.207  1.00  0.00     0.081 A 
HETATM   22  C   UNL     1     -45.752 -55.222  13.962  1.00  0.00     0.079 C 
ENDBRANCH  14  15
ENDBRANCH   2  14
TORSDOF 4
ENDMDL
