MODEL 1
REMARK VINA RESULT:      -6.5      0.000      0.000
REMARK  4 active torsions:
REMARK  status: ('A' for Active; 'I' for Inactive)
REMARK    1  A    between atoms: C_2  and  C_3 
REMARK    2  A    between atoms: C_2  and  N_10 
REMARK    3  A    between atoms: C_3  and  N_4 
REMARK       I    between atoms: N_10  and  C_11 
REMARK       I    between atoms: C_11  and  N_13 
REMARK    4  A    between atoms: N_13  and  C_14 
ROOT
HETATM    1  N   UNL     1     -41.193 -50.508  11.445  1.00  0.00    -0.341 N 
HETATM    2  C   UNL     1     -42.063 -51.106  12.325  1.00  0.00     0.300 C 
HETATM    3  O   UNL     1     -42.464 -50.556  13.344  1.00  0.00    -0.254 OA
HETATM    4  N   UNL     1     -42.417 -52.375  11.917  1.00  0.00    -0.196 NA
HETATM    5  H   UNL     1     -41.123 -50.941  10.532  1.00  0.00     0.164 HD
HETATM    6  H   UNL     1     -41.595 -52.952  11.790  1.00  0.00     0.139 HD
ENDROOT
BRANCH   1   7
HETATM    7  C   UNL     1     -40.773 -49.111  11.601  1.00  0.00     0.110 C 
HETATM    8  C   UNL     1     -39.255 -49.039  11.460  1.00  0.00     0.034 C 
BRANCH   7   9
HETATM    9  C   UNL     1     -41.498 -48.171  10.591  1.00  0.00     0.297 C 
BRANCH   9  10
HETATM   10  N   UNL     1     -42.856 -47.681  10.921  1.00  0.00     0.094 N 
HETATM   11  C   UNL     1     -43.715 -47.483   9.730  1.00  0.00     0.298 C 
HETATM   12  C   UNL     1     -43.302 -46.306   8.824  1.00  0.00     0.198 C 
HETATM   13  O   UNL     1     -43.213 -45.077   9.560  1.00  0.00    -0.388 OA
HETATM   14  C   UNL     1     -42.317 -45.210  10.670  1.00  0.00     0.198 C 
HETATM   15  C   UNL     1     -42.757 -46.360  11.599  1.00  0.00     0.298 C 
ENDBRANCH   9  10
ENDBRANCH   7   9
ENDBRANCH   1   7
BRANCH   4  16
HETATM   16  C   UNL     1     -43.388 -53.071  12.651  1.00  0.00     0.094 C 
HETATM   17  N   UNL     1     -44.655 -52.684  12.396  1.00  0.00    -0.356 N 
HETATM   18  C   UNL     1     -45.639 -53.430  12.942  1.00  0.00     0.089 C 
ATOM     19  HN  UNL     1     -44.860 -51.868  11.818  1.00  0.00     0.166 HD
HETATM   20  C   UNL     1     -45.414 -54.522  13.761  1.00  0.00     0.018 C 
HETATM   21  C   UNL     1     -44.102 -54.837  14.090  1.00  0.00     0.011 C 
HETATM   22  C   UNL     1     -43.051 -54.083  13.558  1.00  0.00    -0.023 C 
HETATM   23  C   UNL     1     -41.644 -54.334  14.017  1.00  0.00     0.052 C 
ENDBRANCH   4  16
TORSDOF 4
ENDMDL
MODEL 2
REMARK VINA RESULT:      -6.3      1.931      2.567
REMARK  4 active torsions:
REMARK  status: ('A' for Active; 'I' for Inactive)
REMARK    1  A    between atoms: C_2  and  C_3 
REMARK    2  A    between atoms: C_2  and  N_10 
REMARK    3  A    between atoms: C_3  and  N_4 
REMARK       I    between atoms: N_10  and  C_11 
REMARK       I    between atoms: C_11  and  N_13 
REMARK    4  A    between atoms: N_13  and  C_14 
ROOT
HETATM    1  N   UNL     1     -42.153 -50.313  11.889  1.00  0.00    -0.341 N 
HETATM    2  C   UNL     1     -43.001 -50.286  12.969  1.00  0.00     0.300 C 
HETATM    3  O   UNL     1     -43.050 -49.347  13.756  1.00  0.00    -0.254 OA
HETATM    4  N   UNL     1     -43.774 -51.426  13.046  1.00  0.00    -0.196 NA
HETATM    5  H   UNL     1     -42.364 -51.005  11.180  1.00  0.00     0.164 HD
HETATM    6  H   UNL     1     -43.191 -52.251  13.080  1.00  0.00     0.139 HD
ENDROOT
BRANCH   1   7
HETATM    7  C   UNL     1     -41.322 -49.160  11.528  1.00  0.00     0.110 C 
HETATM    8  C   UNL     1     -39.935 -49.660  11.134  1.00  0.00     0.034 C 
BRANCH   7   9
HETATM    9  C   UNL     1     -41.976 -48.304  10.401  1.00  0.00     0.297 C 
BRANCH   9  10
HETATM   10  N   UNL     1     -43.303 -47.695  10.646  1.00  0.00     0.094 N 
HETATM   11  C   UNL     1     -44.040 -47.371   9.402  1.00  0.00     0.298 C 
HETATM   12  C   UNL     1     -43.445 -46.209   8.582  1.00  0.00     0.198 C 
HETATM   13  O   UNL     1     -43.299 -45.022   9.375  1.00  0.00    -0.388 OA
HETATM   14  C   UNL     1     -42.513 -45.282  10.544  1.00  0.00     0.198 C 
HETATM   15  C   UNL     1     -43.134 -46.415  11.386  1.00  0.00     0.298 C 
ENDBRANCH   9  10
ENDBRANCH   7   9
ENDBRANCH   1   7
BRANCH   4  16
HETATM   16  C   UNL     1     -44.771 -51.497  14.030  1.00  0.00     0.094 C 
HETATM   17  N   UNL     1     -44.298 -51.542  15.293  1.00  0.00    -0.356 N 
HETATM   18  C   UNL     1     -45.207 -51.439  16.286  1.00  0.00     0.089 C 
ATOM     19  HN  UNL     1     -43.302 -51.648  15.489  1.00  0.00     0.166 HD
HETATM   20  C   UNL     1     -46.570 -51.331  16.074  1.00  0.00     0.018 C 
HETATM   21  C   UNL     1     -47.039 -51.390  14.768  1.00  0.00     0.011 C 
HETATM   22  C   UNL     1     -46.134 -51.510  13.709  1.00  0.00    -0.023 C 
HETATM   23  C   UNL     1     -46.641 -51.710  12.311  1.00  0.00     0.052 C 
ENDBRANCH   4  16
TORSDOF 4
ENDMDL
MODEL 3
REMARK VINA RESULT:      -6.1      2.270      6.740
REMARK  4 active torsions:
REMARK  status: ('A' for Active; 'I' for Inactive)
REMARK    1  A    between atoms: C_2  and  C_3 
REMARK    2  A    between atoms: C_2  and  N_10 
REMARK    3  A    between atoms: C_3  and  N_4 
REMARK       I    between atoms: N_10  and  C_11 
REMARK       I    between atoms: C_11  and  N_13 
REMARK    4  A    between atoms: N_13  and  C_14 
ROOT
HETATM    1  N   UNL     1     -41.388 -53.362  12.229  1.00  0.00    -0.341 N 
HETATM    2  C   UNL     1     -41.385 -51.991  12.328  1.00  0.00     0.300 C 
HETATM    3  O   UNL     1     -41.881 -51.389  13.274  1.00  0.00    -0.254 OA
HETATM    4  N   UNL     1     -40.763 -51.398  11.249  1.00  0.00    -0.196 NA
HETATM    5  H   UNL     1     -40.749 -53.756  11.549  1.00  0.00     0.164 HD
HETATM    6  H   UNL     1     -41.199 -51.686  10.383  1.00  0.00     0.139 HD
ENDROOT
BRANCH   1   7
HETATM    7  C   UNL     1     -41.882 -54.215  13.315  1.00  0.00     0.110 C 
HETATM    8  C   UNL     1     -40.864 -54.200  14.451  1.00  0.00     0.034 C 
BRANCH   7   9
HETATM    9  C   UNL     1     -43.300 -53.780  13.796  1.00  0.00     0.297 C 
BRANCH   9  10
HETATM   10  N   UNL     1     -44.472 -54.113  12.954  1.00  0.00     0.094 N 
HETATM   11  C   UNL     1     -45.274 -52.928  12.568  1.00  0.00     0.298 C 
HETATM   12  C   UNL     1     -46.049 -52.267  13.725  1.00  0.00     0.198 C 
HETATM   13  O   UNL     1     -46.888 -53.211  14.408  1.00  0.00    -0.388 OA
HETATM   14  C   UNL     1     -46.124 -54.329  14.874  1.00  0.00     0.198 C 
HETATM   15  C   UNL     1     -45.384 -55.016  13.708  1.00  0.00     0.298 C 
ENDBRANCH   9  10
ENDBRANCH   7   9
ENDBRANCH   1   7
BRANCH   4  16
HETATM   16  C   UNL     1     -40.579 -50.008  11.260  1.00  0.00     0.094 C 
HETATM   17  N   UNL     1     -41.651 -49.305  10.838  1.00  0.00    -0.356 N 
HETATM   18  C   UNL     1     -41.595 -47.965  10.988  1.00  0.00     0.089 C 
ATOM     19  HN  UNL     1     -42.465 -49.764  10.427  1.00  0.00     0.166 HD
HETATM   20  C   UNL     1     -40.502 -47.292  11.505  1.00  0.00     0.018 C 
HETATM   21  C   UNL     1     -39.374 -48.029  11.836  1.00  0.00     0.011 C 
HETATM   22  C   UNL     1     -39.382 -49.420  11.685  1.00  0.00    -0.023 C 
HETATM   23  C   UNL     1     -38.122 -50.204  11.913  1.00  0.00     0.052 C 
ENDBRANCH   4  16
TORSDOF 4
ENDMDL
MODEL 4
REMARK VINA RESULT:      -5.9      1.342      1.882
REMARK  4 active torsions:
REMARK  status: ('A' for Active; 'I' for Inactive)
REMARK    1  A    between atoms: C_2  and  C_3 
REMARK    2  A    between atoms: C_2  and  N_10 
REMARK    3  A    between atoms: C_3  and  N_4 
REMARK       I    between atoms: N_10  and  C_11 
REMARK       I    between atoms: C_11  and  N_13 
REMARK    4  A    between atoms: N_13  and  C_14 
ROOT
HETATM    1  N   UNL     1     -40.753 -50.802  11.472  1.00  0.00    -0.341 N 
HETATM    2  C   UNL     1     -41.686 -51.311  12.344  1.00  0.00     0.300 C 
HETATM    3  O   UNL     1     -41.912 -50.817  13.443  1.00  0.00    -0.254 OA
HETATM    4  N   UNL     1     -42.321 -52.422  11.829  1.00  0.00    -0.196 NA
HETATM    5  H   UNL     1     -40.821 -51.128  10.515  1.00  0.00     0.164 HD
HETATM    6  H   UNL     1     -41.648 -53.135  11.581  1.00  0.00     0.139 HD
ENDROOT
BRANCH   1   7
HETATM    7  C   UNL     1     -40.039 -49.551  11.746  1.00  0.00     0.110 C 
HETATM    8  C   UNL     1     -38.560 -49.753  11.431  1.00  0.00     0.034 C 
BRANCH   7   9
HETATM    9  C   UNL     1     -40.646 -48.352  10.957  1.00  0.00     0.297 C 
BRANCH   9  10
HETATM   10  N   UNL     1     -40.178 -46.982  11.270  1.00  0.00     0.094 N 
HETATM   11  C   UNL     1     -40.237 -46.656  12.714  1.00  0.00     0.298 C 
HETATM   12  C   UNL     1     -41.661 -46.507  13.286  1.00  0.00     0.198 C 
HETATM   13  O   UNL     1     -42.430 -45.547  12.547  1.00  0.00    -0.388 OA
HETATM   14  C   UNL     1     -42.468 -45.886  11.156  1.00  0.00     0.198 C 
HETATM   15  C   UNL     1     -41.043 -45.990  10.574  1.00  0.00     0.298 C 
ENDBRANCH   9  10
ENDBRANCH   7   9
ENDBRANCH   1   7
BRANCH   4  16
HETATM   16  C   UNL     1     -43.380 -52.987  12.553  1.00  0.00     0.094 C 
HETATM   17  N   UNL     1     -44.585 -52.437  12.289  1.00  0.00    -0.356 N 
HETATM   18  C   UNL     1     -45.662 -53.050  12.825  1.00  0.00     0.089 C 
ATOM     19  HN  UNL     1     -44.677 -51.600  11.713  1.00  0.00     0.166 HD
HETATM   20  C   UNL     1     -45.587 -54.164  13.642  1.00  0.00     0.018 C 
HETATM   21  C   UNL     1     -44.331 -54.648  13.980  1.00  0.00     0.011 C 
HETATM   22  C   UNL     1     -43.187 -54.037  13.459  1.00  0.00    -0.023 C 
HETATM   23  C   UNL     1     -41.828 -54.470  13.927  1.00  0.00     0.052 C 
ENDBRANCH   4  16
TORSDOF 4
ENDMDL
MODEL 5
REMARK VINA RESULT:      -5.9      1.294      2.018
REMARK  4 active torsions:
REMARK  status: ('A' for Active; 'I' for Inactive)
REMARK    1  A    between atoms: C_2  and  C_3 
REMARK    2  A    between atoms: C_2  and  N_10 
REMARK    3  A    between atoms: C_3  and  N_4 
REMARK       I    between atoms: N_10  and  C_11 
REMARK       I    between atoms: C_11  and  N_13 
REMARK    4  A    between atoms: N_13  and  C_14 
ROOT
HETATM    1  N   UNL     1     -42.058 -50.955  11.820  1.00  0.00    -0.341 N 
HETATM    2  C   UNL     1     -42.796 -51.614  12.774  1.00  0.00     0.300 C 
HETATM    3  O   UNL     1     -42.638 -51.440  13.978  1.00  0.00    -0.254 OA
HETATM    4  N   UNL     1     -43.716 -52.473  12.211  1.00  0.00    -0.196 NA
HETATM    5  H   UNL     1     -42.430 -50.984  10.878  1.00  0.00     0.164 HD
HETATM    6  H   UNL     1     -43.259 -53.138  11.602  1.00  0.00     0.139 HD
ENDROOT
BRANCH   1   7
HETATM    7  C   UNL     1     -41.104 -49.899  12.173  1.00  0.00     0.110 C 
HETATM    8  C   UNL     1     -39.689 -50.458  12.050  1.00  0.00     0.034 C 
BRANCH   7   9
HETATM    9  C   UNL     1     -41.304 -48.621  11.302  1.00  0.00     0.297 C 
BRANCH   9  10
HETATM   10  N   UNL     1     -42.368 -47.662  11.677  1.00  0.00     0.094 N 
HETATM   11  C   UNL     1     -43.468 -47.588  10.687  1.00  0.00     0.298 C 
HETATM   12  C   UNL     1     -43.086 -46.936   9.343  1.00  0.00     0.198 C 
HETATM   13  O   UNL     1     -42.522 -45.629   9.531  1.00  0.00    -0.388 OA
HETATM   14  C   UNL     1     -41.397 -45.681  10.415  1.00  0.00     0.198 C 
HETATM   15  C   UNL     1     -41.791 -46.293  11.775  1.00  0.00     0.298 C 
ENDBRANCH   9  10
ENDBRANCH   7   9
ENDBRANCH   1   7
BRANCH   4  16
HETATM   16  C   UNL     1     -44.623 -53.133  13.053  1.00  0.00     0.094 C 
HETATM   17  N   UNL     1     -44.128 -54.247  13.633  1.00  0.00    -0.356 N 
HETATM   18  C   UNL     1     -44.892 -54.828  14.582  1.00  0.00     0.089 C 
ATOM     19  HN  UNL     1     -43.220 -54.631  13.366  1.00  0.00     0.166 HD
HETATM   20  C   UNL     1     -46.143 -54.368  14.953  1.00  0.00     0.018 C 
HETATM   21  C   UNL     1     -46.672 -53.281  14.270  1.00  0.00     0.011 C 
HETATM   22  C   UNL     1     -45.921 -52.655  13.269  1.00  0.00    -0.023 C 
HETATM   23  C   UNL     1     -46.540 -51.569  12.439  1.00  0.00     0.052 C 
ENDBRANCH   4  16
TORSDOF 4
ENDMDL
MODEL 6
REMARK VINA RESULT:      -5.8      2.141      4.099
REMARK  4 active torsions:
REMARK  status: ('A' for Active; 'I' for Inactive)
REMARK    1  A    between atoms: C_2  and  C_3 
REMARK    2  A    between atoms: C_2  and  N_10 
REMARK    3  A    between atoms: C_3  and  N_4 
REMARK       I    between atoms: N_10  and  C_11 
REMARK       I    between atoms: C_11  and  N_13 
REMARK    4  A    between atoms: N_13  and  C_14 
ROOT
HETATM    1  N   UNL     1     -40.978 -50.721  11.131  1.00  0.00    -0.341 N 
HETATM    2  C   UNL     1     -41.868 -51.203  12.061  1.00  0.00     0.300 C 
HETATM    3  O   UNL     1     -42.271 -50.536  13.008  1.00  0.00    -0.254 OA
HETATM    4  N   UNL     1     -42.242 -52.503  11.791  1.00  0.00    -0.196 NA
HETATM    5  H   UNL     1     -40.906 -51.254  10.273  1.00  0.00     0.164 HD
HETATM    6  H   UNL     1     -41.430 -53.104  11.739  1.00  0.00     0.139 HD
ENDROOT
BRANCH   1   7
HETATM    7  C   UNL     1     -40.533 -49.324  11.138  1.00  0.00     0.110 C 
HETATM    8  C   UNL     1     -41.726 -48.429  10.814  1.00  0.00     0.034 C 
BRANCH   7   9
HETATM    9  C   UNL     1     -39.861 -48.935  12.489  1.00  0.00     0.297 C 
BRANCH   9  10
HETATM   10  N   UNL     1     -38.410 -48.636  12.505  1.00  0.00     0.094 N 
HETATM   11  C   UNL     1     -37.574 -49.751  12.002  1.00  0.00     0.298 C 
HETATM   12  C   UNL     1     -37.525 -50.987  12.923  1.00  0.00     0.198 C 
HETATM   13  O   UNL     1     -37.112 -50.641  14.253  1.00  0.00    -0.388 OA
HETATM   14  C   UNL     1     -37.959 -49.625  14.802  1.00  0.00     0.198 C 
HETATM   15  C   UNL     1     -37.972 -48.372  13.903  1.00  0.00     0.298 C 
ENDBRANCH   9  10
ENDBRANCH   7   9
ENDBRANCH   1   7
BRANCH   4  16
HETATM   16  C   UNL     1     -43.234 -53.096  12.585  1.00  0.00     0.094 C 
HETATM   17  N   UNL     1     -44.487 -52.675  12.310  1.00  0.00    -0.356 N 
HETATM   18  C   UNL     1     -45.495 -53.332  12.920  1.00  0.00     0.089 C 
ATOM     19  HN  UNL     1     -44.662 -51.898  11.672  1.00  0.00     0.166 HD
HETATM   20  C   UNL     1     -45.308 -54.365  13.821  1.00  0.00     0.018 C 
HETATM   21  C   UNL     1     -44.008 -54.711  14.164  1.00  0.00     0.011 C 
HETATM   22  C   UNL     1     -42.932 -54.048  13.566  1.00  0.00    -0.023 C 
HETATM   23  C   UNL     1     -41.532 -54.324  14.032  1.00  0.00     0.052 C 
ENDBRANCH   4  16
TORSDOF 4
ENDMDL
MODEL 7
REMARK VINA RESULT:      -5.8      1.133      1.936
REMARK  4 active torsions:
REMARK  status: ('A' for Active; 'I' for Inactive)
REMARK    1  A    between atoms: C_2  and  C_3 
REMARK    2  A    between atoms: C_2  and  N_10 
REMARK    3  A    between atoms: C_3  and  N_4 
REMARK       I    between atoms: N_10  and  C_11 
REMARK       I    between atoms: C_11  and  N_13 
REMARK    4  A    between atoms: N_13  and  C_14 
ROOT
HETATM    1  N   UNL     1     -40.925 -50.855  11.478  1.00  0.00    -0.341 N 
HETATM    2  C   UNL     1     -41.196 -51.623  12.586  1.00  0.00     0.300 C 
HETATM    3  O   UNL     1     -41.082 -51.205  13.732  1.00  0.00    -0.254 OA
HETATM    4  N   UNL     1     -41.605 -52.895  12.243  1.00  0.00    -0.196 NA
HETATM    5  H   UNL     1     -41.282 -51.209  10.599  1.00  0.00     0.164 HD
HETATM    6  H   UNL     1     -40.912 -53.349  11.663  1.00  0.00     0.139 HD
ENDROOT
BRANCH   1   7
HETATM    7  C   UNL     1     -40.593 -49.431  11.587  1.00  0.00     0.110 C 
HETATM    8  C   UNL     1     -39.097 -49.258  11.344  1.00  0.00     0.034 C 
BRANCH   7   9
HETATM    9  C   UNL     1     -41.447 -48.561  10.615  1.00  0.00     0.297 C 
BRANCH   9  10
HETATM   10  N   UNL     1     -42.574 -47.774  11.165  1.00  0.00     0.094 N 
HETATM   11  C   UNL     1     -43.632 -47.486  10.168  1.00  0.00     0.298 C 
HETATM   12  C   UNL     1     -43.224 -46.490   9.064  1.00  0.00     0.198 C 
HETATM   13  O   UNL     1     -42.737 -45.258   9.615  1.00  0.00    -0.388 OA
HETATM   14  C   UNL     1     -41.651 -45.497  10.517  1.00  0.00     0.198 C 
HETATM   15  C   UNL     1     -42.073 -46.458  11.647  1.00  0.00     0.298 C 
ENDBRANCH   9  10
ENDBRANCH   7   9
ENDBRANCH   1   7
BRANCH   4  16
HETATM   16  C   UNL     1     -42.027 -53.762  13.260  1.00  0.00     0.094 C 
HETATM   17  N   UNL     1     -41.026 -54.244  14.027  1.00  0.00    -0.356 N 
HETATM   18  C   UNL     1     -41.385 -54.945  15.124  1.00  0.00     0.089 C 
ATOM     19  HN  UNL     1     -40.046 -54.086  13.790  1.00  0.00     0.166 HD
HETATM   20  C   UNL     1     -42.696 -55.218  15.469  1.00  0.00     0.018 C 
HETATM   21  C   UNL     1     -43.703 -54.798  14.610  1.00  0.00     0.011 C 
HETATM   22  C   UNL     1     -43.377 -54.081  13.455  1.00  0.00    -0.023 C 
HETATM   23  C   UNL     1     -44.446 -53.744  12.457  1.00  0.00     0.052 C 
ENDBRANCH   4  16
TORSDOF 4
ENDMDL
MODEL 8
REMARK VINA RESULT:      -5.6      2.285      7.630
REMARK  4 active torsions:
REMARK  status: ('A' for Active; 'I' for Inactive)
REMARK    1  A    between atoms: C_2  and  C_3 
REMARK    2  A    between atoms: C_2  and  N_10 
REMARK    3  A    between atoms: C_3  and  N_4 
REMARK       I    between atoms: N_10  and  C_11 
REMARK       I    between atoms: C_11  and  N_13 
REMARK    4  A    between atoms: N_13  and  C_14 
ROOT
HETATM    1  N   UNL     1     -42.254 -52.961  12.415  1.00  0.00    -0.341 N 
HETATM    2  C   UNL     1     -42.028 -51.606  12.382  1.00  0.00     0.300 C 
HETATM    3  O   UNL     1     -42.557 -50.822  13.162  1.00  0.00    -0.254 OA
HETATM    4  N   UNL     1     -41.148 -51.255  11.380  1.00  0.00    -0.196 NA
HETATM    5  H   UNL     1     -41.593 -53.531  11.901  1.00  0.00     0.164 HD
HETATM    6  H   UNL     1     -41.482 -51.576  10.481  1.00  0.00     0.139 HD
ENDROOT
BRANCH   1   7
HETATM    7  C   UNL     1     -43.057 -53.587  13.471  1.00  0.00     0.110 C 
HETATM    8  C   UNL     1     -44.208 -54.350  12.823  1.00  0.00     0.034 C 
BRANCH   7   9
HETATM    9  C   UNL     1     -42.194 -54.502  14.391  1.00  0.00     0.297 C 
BRANCH   9  10
HETATM   10  N   UNL     1     -41.296 -53.872  15.385  1.00  0.00     0.094 N 
HETATM   11  C   UNL     1     -39.915 -53.673  14.888  1.00  0.00     0.298 C 
HETATM   12  C   UNL     1     -39.105 -54.970  14.694  1.00  0.00     0.198 C 
HETATM   13  O   UNL     1     -39.073 -55.759  15.893  1.00  0.00    -0.388 OA
HETATM   14  C   UNL     1     -40.400 -56.045  16.351  1.00  0.00     0.198 C 
HETATM   15  C   UNL     1     -41.195 -54.745  16.587  1.00  0.00     0.298 C 
ENDBRANCH   9  10
ENDBRANCH   7   9
ENDBRANCH   1   7
BRANCH   4  16
HETATM   16  C   UNL     1     -40.728 -49.920  11.291  1.00  0.00     0.094 C 
HETATM   17  N   UNL     1     -41.638 -49.090  10.738  1.00  0.00    -0.356 N 
HETATM   18  C   UNL     1     -41.361 -47.770  10.781  1.00  0.00     0.089 C 
ATOM     19  HN  UNL     1     -42.493 -49.444  10.308  1.00  0.00     0.166 HD
HETATM   20  C   UNL     1     -40.200 -47.244  11.319  1.00  0.00     0.018 C 
HETATM   21  C   UNL     1     -39.235 -48.124  11.790  1.00  0.00     0.011 C 
HETATM   22  C   UNL     1     -39.473 -49.502  11.752  1.00  0.00    -0.023 C 
HETATM   23  C   UNL     1     -38.383 -50.460  12.132  1.00  0.00     0.052 C 
ENDBRANCH   4  16
TORSDOF 4
ENDMDL
MODEL 9
REMARK VINA RESULT:      -5.3      3.471      4.959
REMARK  4 active torsions:
REMARK  status: ('A' for Active; 'I' for Inactive)
REMARK    1  A    between atoms: C_2  and  C_3 
REMARK    2  A    between atoms: C_2  and  N_10 
REMARK    3  A    between atoms: C_3  and  N_4 
REMARK       I    between atoms: N_10  and  C_11 
REMARK       I    between atoms: C_11  and  N_13 
REMARK    4  A    between atoms: N_13  and  C_14 
ROOT
HETATM    1  N   UNL     1     -42.140 -53.440  13.741  1.00  0.00    -0.341 N 
HETATM    2  C   UNL     1     -43.068 -52.912  14.606  1.00  0.00     0.300 C 
HETATM    3  O   UNL     1     -42.776 -52.124  15.499  1.00  0.00    -0.254 OA
HETATM    4  N   UNL     1     -44.340 -53.374  14.342  1.00  0.00    -0.196 NA
HETATM    5  H   UNL     1     -42.513 -53.876  12.906  1.00  0.00     0.164 HD
HETATM    6  H   UNL     1     -44.367 -54.385  14.373  1.00  0.00     0.139 HD
ENDROOT
BRANCH   1   7
HETATM    7  C   UNL     1     -40.740 -53.003  13.747  1.00  0.00     0.110 C 
HETATM    8  C   UNL     1     -39.843 -54.234  13.656  1.00  0.00     0.034 C 
BRANCH   7   9
HETATM    9  C   UNL     1     -40.447 -51.982  12.606  1.00  0.00     0.297 C 
BRANCH   9  10
HETATM   10  N   UNL     1     -40.385 -50.540  12.937  1.00  0.00     0.094 N 
HETATM   11  C   UNL     1     -39.832 -49.708  11.843  1.00  0.00     0.298 C 
HETATM   12  C   UNL     1     -38.326 -49.909  11.576  1.00  0.00     0.198 C 
HETATM   13  O   UNL     1     -37.547 -49.714  12.766  1.00  0.00    -0.388 OA
HETATM   14  C   UNL     1     -38.001 -50.572  13.819  1.00  0.00     0.198 C 
HETATM   15  C   UNL     1     -39.497 -50.338  14.115  1.00  0.00     0.298 C 
ENDBRANCH   9  10
ENDBRANCH   7   9
ENDBRANCH   1   7
BRANCH   4  16
HETATM   16  C   UNL     1     -45.414 -52.839  15.066  1.00  0.00     0.094 C 
HETATM   17  N   UNL     1     -45.500 -53.284  16.338  1.00  0.00    -0.356 N 
HETATM   18  C   UNL     1     -46.406 -52.678  17.133  1.00  0.00     0.089 C 
ATOM     19  HN  UNL     1     -44.908 -54.042  16.681  1.00  0.00     0.166 HD
HETATM   20  C   UNL     1     -47.256 -51.673  16.707  1.00  0.00     0.018 C 
HETATM   21  C   UNL     1     -47.218 -51.304  15.369  1.00  0.00     0.011 C 
HETATM   22  C   UNL     1     -46.304 -51.915  14.505  1.00  0.00    -0.023 C 
HETATM   23  C   UNL     1     -46.352 -51.617  13.035  1.00  0.00     0.052 C 
ENDBRANCH   4  16
TORSDOF 4
ENDMDL
