MODEL 1
REMARK VINA RESULT:      -6.2      0.000      0.000
REMARK  6 active torsions:
REMARK  status: ('A' for Active; 'I' for Inactive)
REMARK    1  A    between atoms: C_2  and  C_4 
REMARK    2  A    between atoms: C_4  and  C_5 
REMARK    3  A    between atoms: C_4  and  N_16 
REMARK    4  A    between atoms: C_5  and  N_6 
REMARK       I    between atoms: N_6  and  C_7 
REMARK    5  A    between atoms: C_7  and  C_9 
REMARK    6  A    between atoms: C_9  and  N_10 
ROOT
HETATM    1  C   UNL     1     -43.588 -49.897  13.419  1.00  0.00     0.159 C 
ENDROOT
BRANCH   1   2
HETATM    2  C   UNL     1     -43.673 -51.463  13.556  1.00  0.00     0.244 C 
BRANCH   2   3
HETATM    3  C   UNL     1     -45.156 -51.853  13.946  1.00  0.00     0.012 C 
HETATM    4  C   UNL     1     -45.659 -51.169  15.223  1.00  0.00     0.012 C 
HETATM    5  C   UNL     1     -46.169 -51.617  12.816  1.00  0.00     0.012 C 
ENDBRANCH   2   3
BRANCH   2   6
HETATM    6  N   UNL     1     -42.675 -52.060  14.517  1.00  0.00     0.095 N 
HETATM    7  C   UNL     1     -41.267 -51.689  14.310  1.00  0.00     0.273 C 
HETATM    8  C   UNL     1     -40.697 -52.235  12.995  1.00  0.00     0.034 C 
HETATM    9  C   UNL     1     -40.748 -53.770  12.965  1.00  0.00    -0.015 C 
HETATM   10  C   UNL     1     -39.637 -54.369  13.837  1.00  0.00     0.010 C 
HETATM   11  C   UNL     1     -42.143 -54.268  13.385  1.00  0.00     0.034 C 
HETATM   12  C   UNL     1     -42.707 -53.538  14.614  1.00  0.00     0.273 C 
ENDBRANCH   2   6
ENDBRANCH   1   2
BRANCH   1  13
HETATM   13  N   UNL     1     -43.468 -49.358  12.065  1.00  0.00    -0.358 N 
HETATM   14  C   UNL     1     -43.022 -48.066  11.865  1.00  0.00     0.237 C 
HETATM   15  O   UNL     1     -43.021 -47.219  12.754  1.00  0.00    -0.272 OA
HETATM   16  H   UNL     1     -43.308 -50.009  11.316  1.00  0.00     0.162 HD
BRANCH  14  17
HETATM   17  C   UNL     1     -42.557 -47.763  10.458  1.00  0.00     0.249 C 
BRANCH  17  18
HETATM   18  N   UNL     1     -43.395 -46.765   9.838  1.00  0.00    -0.264 N 
HETATM   19  C   UNL     1     -44.655 -46.892   9.343  1.00  0.00     0.213 A 
HETATM   20  N   UNL     1     -45.003 -45.748   8.806  1.00  0.00    -0.281 N 
HETATM   21  N   UNL     1     -43.927 -44.907   8.972  1.00  0.00    -0.008 NA
ATOM     22  HN  UNL     1     -45.891 -45.526   8.356  1.00  0.00     0.184 HD
HETATM   23  N   UNL     1     -42.935 -45.526   9.598  1.00  0.00    -0.005 NA
ENDBRANCH  17  18
ENDBRANCH  14  17
ENDBRANCH   1  13
TORSDOF 6
ENDMDL
MODEL 2
REMARK VINA RESULT:      -6.1      2.308      3.871
REMARK  6 active torsions:
REMARK  status: ('A' for Active; 'I' for Inactive)
REMARK    1  A    between atoms: C_2  and  C_4 
REMARK    2  A    between atoms: C_4  and  C_5 
REMARK    3  A    between atoms: C_4  and  N_16 
REMARK    4  A    between atoms: C_5  and  N_6 
REMARK       I    between atoms: N_6  and  C_7 
REMARK    5  A    between atoms: C_7  and  C_9 
REMARK    6  A    between atoms: C_9  and  N_10 
ROOT
HETATM    1  C   UNL     1     -40.799 -49.635  10.954  1.00  0.00     0.159 C 
ENDROOT
BRANCH   1   2
HETATM    2  C   UNL     1     -40.292 -50.271  12.302  1.00  0.00     0.244 C 
BRANCH   2   3
HETATM    3  C   UNL     1     -38.876 -49.655  12.646  1.00  0.00     0.012 C 
HETATM    4  C   UNL     1     -37.881 -49.704  11.479  1.00  0.00     0.012 C 
HETATM    5  C   UNL     1     -38.948 -48.219  13.186  1.00  0.00     0.012 C 
ENDBRANCH   2   3
BRANCH   2   6
HETATM    6  N   UNL     1     -40.253 -51.779  12.304  1.00  0.00     0.095 N 
HETATM    7  C   UNL     1     -41.477 -52.465  11.864  1.00  0.00     0.273 C 
HETATM    8  C   UNL     1     -42.655 -52.249  12.823  1.00  0.00     0.034 C 
HETATM    9  C   UNL     1     -42.334 -52.794  14.224  1.00  0.00    -0.015 C 
HETATM   10  C   UNL     1     -42.435 -54.324  14.249  1.00  0.00     0.010 C 
HETATM   11  C   UNL     1     -40.953 -52.298  14.687  1.00  0.00     0.034 C 
HETATM   12  C   UNL     1     -39.873 -52.393  13.597  1.00  0.00     0.273 C 
ENDBRANCH   2   6
ENDBRANCH   1   2
BRANCH   1  13
HETATM   13  N   UNL     1     -42.009 -48.817  11.023  1.00  0.00    -0.358 N 
HETATM   14  C   UNL     1     -41.964 -47.475  10.700  1.00  0.00     0.237 C 
HETATM   15  O   UNL     1     -40.917 -46.835  10.664  1.00  0.00    -0.272 OA
HETATM   16  H   UNL     1     -42.893 -49.279  10.898  1.00  0.00     0.162 HD
BRANCH  14  17
HETATM   17  C   UNL     1     -43.308 -46.842  10.416  1.00  0.00     0.249 C 
BRANCH  17  18
HETATM   18  N   UNL     1     -43.916 -47.419   9.241  1.00  0.00    -0.264 N 
HETATM   19  C   UNL     1     -45.219 -47.737   9.020  1.00  0.00     0.213 A 
HETATM   20  N   UNL     1     -45.310 -48.305   7.841  1.00  0.00    -0.281 N 
HETATM   21  N   UNL     1     -44.030 -48.338   7.337  1.00  0.00    -0.008 NA
ATOM     22  HN  UNL     1     -46.156 -48.651   7.391  1.00  0.00     0.184 HD
HETATM   23  N   UNL     1     -43.170 -47.803   8.192  1.00  0.00    -0.005 NA
ENDBRANCH  17  18
ENDBRANCH  14  17
ENDBRANCH   1  13
TORSDOF 6
ENDMDL
MODEL 3
REMARK VINA RESULT:      -5.8      3.987      5.755
REMARK  6 active torsions:
REMARK  status: ('A' for Active; 'I' for Inactive)
REMARK    1  A    between atoms: C_2  and  C_4 
REMARK    2  A    between atoms: C_4  and  C_5 
REMARK    3  A    between atoms: C_4  and  N_16 
REMARK    4  A    between atoms: C_5  and  N_6 
REMARK       I    between atoms: N_6  and  C_7 
REMARK    5  A    between atoms: C_7  and  C_9 
REMARK    6  A    between atoms: C_9  and  N_10 
ROOT
HETATM    1  C   UNL     1     -41.181 -51.860  14.894  1.00  0.00     0.159 C 
ENDROOT
BRANCH   1   2
HETATM    2  C   UNL     1     -42.442 -52.641  14.367  1.00  0.00     0.244 C 
BRANCH   2   3
HETATM    3  C   UNL     1     -42.053 -54.166  14.197  1.00  0.00     0.012 C 
HETATM    4  C   UNL     1     -40.541 -54.418  14.165  1.00  0.00     0.012 C 
HETATM    5  C   UNL     1     -42.693 -55.082  15.251  1.00  0.00     0.012 C 
ENDBRANCH   2   3
BRANCH   2   6
HETATM    6  N   UNL     1     -43.039 -52.080  13.100  1.00  0.00     0.095 N 
HETATM    7  C   UNL     1     -43.895 -50.894  13.252  1.00  0.00     0.273 C 
HETATM    8  C   UNL     1     -45.188 -51.190  14.022  1.00  0.00     0.034 C 
HETATM    9  C   UNL     1     -46.037 -52.244  13.295  1.00  0.00    -0.015 C 
HETATM   10  C   UNL     1     -46.752 -51.628  12.087  1.00  0.00     0.010 C 
HETATM   11  C   UNL     1     -45.166 -53.450  12.897  1.00  0.00     0.034 C 
HETATM   12  C   UNL     1     -43.811 -53.050  12.290  1.00  0.00     0.273 C 
ENDBRANCH   2   6
ENDBRANCH   1   2
BRANCH   1  13
HETATM   13  N   UNL     1     -40.662 -50.791  14.042  1.00  0.00    -0.358 N 
HETATM   14  C   UNL     1     -39.815 -49.832  14.562  1.00  0.00     0.237 C 
HETATM   15  O   UNL     1     -39.714 -49.619  15.767  1.00  0.00    -0.272 OA
HETATM   16  H   UNL     1     -40.578 -50.977  13.058  1.00  0.00     0.162 HD
BRANCH  14  17
HETATM   17  C   UNL     1     -39.037 -49.043  13.533  1.00  0.00     0.249 C 
BRANCH  17  18
HETATM   18  N   UNL     1     -38.199 -49.908  12.739  1.00  0.00    -0.264 N 
HETATM   19  C   UNL     1     -37.874 -49.814  11.422  1.00  0.00     0.213 A 
HETATM   20  N   UNL     1     -37.146 -50.857  11.103  1.00  0.00    -0.281 N 
HETATM   21  N   UNL     1     -37.030 -51.606  12.251  1.00  0.00    -0.008 NA
ATOM     22  HN  UNL     1     -36.746 -51.069  10.189  1.00  0.00     0.184 HD
HETATM   23  N   UNL     1     -37.679 -51.034  13.256  1.00  0.00    -0.005 NA
ENDBRANCH  17  18
ENDBRANCH  14  17
ENDBRANCH   1  13
TORSDOF 6
ENDMDL
MODEL 4
REMARK VINA RESULT:      -5.8      4.484      5.984
REMARK  6 active torsions:
REMARK  status: ('A' for Active; 'I' for Inactive)
REMARK    1  A    between atoms: C_2  and  C_4 
REMARK    2  A    between atoms: C_4  and  C_5 
REMARK    3  A    between atoms: C_4  and  N_16 
REMARK    4  A    between atoms: C_5  and  N_6 
REMARK       I    between atoms: N_6  and  C_7 
REMARK    5  A    between atoms: C_7  and  C_9 
REMARK    6  A    between atoms: C_9  and  N_10 
ROOT
HETATM    1  C   UNL     1     -41.553 -54.273  14.430  1.00  0.00     0.159 C 
ENDROOT
BRANCH   1   2
HETATM    2  C   UNL     1     -42.981 -53.989  15.030  1.00  0.00     0.244 C 
BRANCH   2   3
HETATM    3  C   UNL     1     -43.170 -54.886  16.320  1.00  0.00     0.012 C 
HETATM    4  C   UNL     1     -42.140 -56.016  16.444  1.00  0.00     0.012 C 
HETATM    5  C   UNL     1     -43.193 -54.080  17.628  1.00  0.00     0.012 C 
ENDBRANCH   2   3
BRANCH   2   6
HETATM    6  N   UNL     1     -44.117 -54.179  14.055  1.00  0.00     0.095 N 
HETATM    7  C   UNL     1     -44.042 -53.404  12.808  1.00  0.00     0.273 C 
HETATM    8  C   UNL     1     -44.168 -51.893  13.039  1.00  0.00     0.034 C 
HETATM    9  C   UNL     1     -45.517 -51.542  13.685  1.00  0.00    -0.015 C 
HETATM   10  C   UNL     1     -46.647 -51.602  12.651  1.00  0.00     0.010 C 
HETATM   11  C   UNL     1     -45.788 -52.461  14.890  1.00  0.00     0.034 C 
HETATM   12  C   UNL     1     -45.467 -53.939  14.615  1.00  0.00     0.273 C 
ENDBRANCH   2   6
ENDBRANCH   1   2
BRANCH   1  13
HETATM   13  N   UNL     1     -40.595 -53.169  14.454  1.00  0.00    -0.358 N 
HETATM   14  C   UNL     1     -40.307 -52.469  13.298  1.00  0.00     0.237 C 
HETATM   15  O   UNL     1     -40.554 -52.907  12.178  1.00  0.00    -0.272 OA
HETATM   16  H   UNL     1     -40.475 -52.673  15.320  1.00  0.00     0.162 HD
BRANCH  14  17
HETATM   17  C   UNL     1     -39.639 -51.130  13.514  1.00  0.00     0.249 C 
BRANCH  17  18
HETATM   18  N   UNL     1     -38.593 -50.908  12.546  1.00  0.00    -0.264 N 
HETATM   19  C   UNL     1     -38.565 -50.043  11.497  1.00  0.00     0.213 A 
HETATM   20  N   UNL     1     -37.445 -50.230  10.840  1.00  0.00    -0.281 N 
HETATM   21  N   UNL     1     -36.780 -51.236  11.501  1.00  0.00    -0.008 NA
ATOM     22  HN  UNL     1     -37.132 -49.731  10.008  1.00  0.00     0.184 HD
HETATM   23  N   UNL     1     -37.480 -51.661  12.543  1.00  0.00    -0.005 NA
ENDBRANCH  17  18
ENDBRANCH  14  17
ENDBRANCH   1  13
TORSDOF 6
ENDMDL
MODEL 5
REMARK VINA RESULT:      -5.7      3.230      4.395
REMARK  6 active torsions:
REMARK  status: ('A' for Active; 'I' for Inactive)
REMARK    1  A    between atoms: C_2  and  C_4 
REMARK    2  A    between atoms: C_4  and  C_5 
REMARK    3  A    between atoms: C_4  and  N_16 
REMARK    4  A    between atoms: C_5  and  N_6 
REMARK       I    between atoms: N_6  and  C_7 
REMARK    5  A    between atoms: C_7  and  C_9 
REMARK    6  A    between atoms: C_9  and  N_10 
ROOT
HETATM    1  C   UNL     1     -44.012 -50.786  13.452  1.00  0.00     0.159 C 
ENDROOT
BRANCH   1   2
HETATM    2  C   UNL     1     -44.611 -52.192  13.834  1.00  0.00     0.244 C 
BRANCH   2   3
HETATM    3  C   UNL     1     -46.181 -52.137  13.646  1.00  0.00     0.012 C 
HETATM    4  C   UNL     1     -46.907 -51.343  14.739  1.00  0.00     0.012 C 
HETATM    5  C   UNL     1     -46.614 -51.610  12.269  1.00  0.00     0.012 C 
ENDBRANCH   2   3
BRANCH   2   6
HETATM    6  N   UNL     1     -44.238 -52.673  15.215  1.00  0.00     0.095 N 
HETATM    7  C   UNL     1     -42.812 -52.604  15.567  1.00  0.00     0.273 C 
HETATM    8  C   UNL     1     -41.947 -53.557  14.733  1.00  0.00     0.034 C 
HETATM    9  C   UNL     1     -42.373 -55.018  14.944  1.00  0.00    -0.015 C 
HETATM   10  C   UNL     1     -41.867 -55.543  16.293  1.00  0.00     0.010 C 
HETATM   11  C   UNL     1     -43.900 -55.155  14.807  1.00  0.00     0.034 C 
HETATM   12  C   UNL     1     -44.680 -54.050  15.537  1.00  0.00     0.273 C 
ENDBRANCH   2   6
ENDBRANCH   1   2
BRANCH   1  13
HETATM   13  N   UNL     1     -42.890 -50.779  12.516  1.00  0.00    -0.358 N 
HETATM   14  C   UNL     1     -42.240 -49.598  12.213  1.00  0.00     0.237 C 
HETATM   15  O   UNL     1     -42.736 -48.495  12.424  1.00  0.00    -0.272 OA
HETATM   16  H   UNL     1     -42.350 -51.623  12.426  1.00  0.00     0.162 HD
BRANCH  14  17
HETATM   17  C   UNL     1     -40.878 -49.764  11.577  1.00  0.00     0.249 C 
BRANCH  17  18
HETATM   18  N   UNL     1     -39.990 -50.508  12.437  1.00  0.00    -0.264 N 
HETATM   19  C   UNL     1     -39.116 -50.046  13.370  1.00  0.00     0.213 A 
HETATM   20  N   UNL     1     -38.461 -51.070  13.863  1.00  0.00    -0.281 N 
HETATM   21  N   UNL     1     -38.945 -52.180  13.210  1.00  0.00    -0.008 NA
ATOM     22  HN  UNL     1     -37.740 -51.048  14.584  1.00  0.00     0.184 HD
HETATM   23  N   UNL     1     -39.877 -51.842  12.330  1.00  0.00    -0.005 NA
ENDBRANCH  17  18
ENDBRANCH  14  17
ENDBRANCH   1  13
TORSDOF 6
ENDMDL
MODEL 6
REMARK VINA RESULT:      -5.6      1.250      3.112
REMARK  6 active torsions:
REMARK  status: ('A' for Active; 'I' for Inactive)
REMARK    1  A    between atoms: C_2  and  C_4 
REMARK    2  A    between atoms: C_4  and  C_5 
REMARK    3  A    between atoms: C_4  and  N_16 
REMARK    4  A    between atoms: C_5  and  N_6 
REMARK       I    between atoms: N_6  and  C_7 
REMARK    5  A    between atoms: C_7  and  C_9 
REMARK    6  A    between atoms: C_9  and  N_10 
ROOT
HETATM    1  C   UNL     1     -42.158 -49.902  13.205  1.00  0.00     0.159 C 
ENDROOT
BRANCH   1   2
HETATM    2  C   UNL     1     -42.029 -51.433  13.552  1.00  0.00     0.244 C 
BRANCH   2   3
HETATM    3  C   UNL     1     -40.506 -51.845  13.442  1.00  0.00     0.012 C 
HETATM    4  C   UNL     1     -39.649 -50.844  12.658  1.00  0.00     0.012 C 
HETATM    5  C   UNL     1     -39.845 -52.115  14.803  1.00  0.00     0.012 C 
ENDBRANCH   2   3
BRANCH   2   6
HETATM    6  N   UNL     1     -42.906 -52.337  12.721  1.00  0.00     0.095 N 
HETATM    7  C   UNL     1     -44.354 -52.244  12.963  1.00  0.00     0.273 C 
HETATM    8  C   UNL     1     -44.754 -52.731  14.362  1.00  0.00     0.034 C 
HETATM    9  C   UNL     1     -44.377 -54.207  14.562  1.00  0.00    -0.015 C 
HETATM   10  C   UNL     1     -45.360 -55.125  13.827  1.00  0.00     0.010 C 
HETATM   11  C   UNL     1     -42.921 -54.451  14.125  1.00  0.00     0.034 C 
HETATM   12  C   UNL     1     -42.564 -53.776  12.791  1.00  0.00     0.273 C 
ENDBRANCH   2   6
ENDBRANCH   1   2
BRANCH   1  13
HETATM   13  N   UNL     1     -42.414 -49.561  11.807  1.00  0.00    -0.358 N 
HETATM   14  C   UNL     1     -42.696 -48.258  11.446  1.00  0.00     0.237 C 
HETATM   15  O   UNL     1     -43.067 -47.411  12.254  1.00  0.00    -0.272 OA
HETATM   16  H   UNL     1     -41.995 -50.141  11.100  1.00  0.00     0.162 HD
BRANCH  14  17
HETATM   17  C   UNL     1     -42.539 -47.956   9.972  1.00  0.00     0.249 C 
BRANCH  17  18
HETATM   18  N   UNL     1     -43.417 -46.886   9.565  1.00  0.00    -0.264 N 
HETATM   19  C   UNL     1     -44.739 -46.935   9.249  1.00  0.00     0.213 A 
HETATM   20  N   UNL     1     -45.114 -45.738   8.865  1.00  0.00    -0.281 N 
HETATM   21  N   UNL     1     -43.993 -44.945   8.943  1.00  0.00    -0.008 NA
ATOM     22  HN  UNL     1     -46.048 -45.454   8.568  1.00  0.00     0.184 HD
HETATM   23  N   UNL     1     -42.948 -45.643   9.365  1.00  0.00    -0.005 NA
ENDBRANCH  17  18
ENDBRANCH  14  17
ENDBRANCH   1  13
TORSDOF 6
ENDMDL
MODEL 7
REMARK VINA RESULT:      -5.6      3.626      5.599
REMARK  6 active torsions:
REMARK  status: ('A' for Active; 'I' for Inactive)
REMARK    1  A    between atoms: C_2  and  C_4 
REMARK    2  A    between atoms: C_4  and  C_5 
REMARK    3  A    between atoms: C_4  and  N_16 
REMARK    4  A    between atoms: C_5  and  N_6 
REMARK       I    between atoms: N_6  and  C_7 
REMARK    5  A    between atoms: C_7  and  C_9 
REMARK    6  A    between atoms: C_9  and  N_10 
ROOT
HETATM    1  C   UNL     1     -40.480 -49.569  11.621  1.00  0.00     0.159 C 
ENDROOT
BRANCH   1   2
HETATM    2  C   UNL     1     -39.363 -48.813  12.434  1.00  0.00     0.244 C 
BRANCH   2   3
HETATM    3  C   UNL     1     -38.064 -49.716  12.460  1.00  0.00     0.012 C 
HETATM    4  C   UNL     1     -38.293 -51.112  13.053  1.00  0.00     0.012 C 
HETATM    5  C   UNL     1     -37.388 -49.857  11.087  1.00  0.00     0.012 C 
ENDBRANCH   2   3
BRANCH   2   6
HETATM    6  N   UNL     1     -39.776 -48.400  13.825  1.00  0.00     0.095 N 
HETATM    7  C   UNL     1     -40.822 -47.371  13.918  1.00  0.00     0.273 C 
HETATM    8  C   UNL     1     -40.362 -46.008  13.385  1.00  0.00     0.034 C 
HETATM    9  C   UNL     1     -39.163 -45.478  14.184  1.00  0.00    -0.015 C 
HETATM   10  C   UNL     1     -39.614 -44.931  15.544  1.00  0.00     0.010 C 
HETATM   11  C   UNL     1     -38.090 -46.572  14.329  1.00  0.00     0.034 C 
HETATM   12  C   UNL     1     -38.668 -47.948  14.698  1.00  0.00     0.273 C 
ENDBRANCH   2   6
ENDBRANCH   1   2
BRANCH   1  13
HETATM   13  N   UNL     1     -41.214 -48.789  10.626  1.00  0.00    -0.358 N 
HETATM   14  C   UNL     1     -42.462 -48.277  10.923  1.00  0.00     0.237 C 
HETATM   15  O   UNL     1     -43.148 -48.695  11.852  1.00  0.00    -0.272 OA
HETATM   16  H   UNL     1     -40.681 -48.295   9.932  1.00  0.00     0.162 HD
BRANCH  14  17
HETATM   17  C   UNL     1     -42.936 -47.175  10.001  1.00  0.00     0.249 C 
BRANCH  17  18
HETATM   18  N   UNL     1     -44.033 -47.623   9.177  1.00  0.00    -0.264 N 
HETATM   19  C   UNL     1     -44.027 -47.992   7.869  1.00  0.00     0.213 A 
HETATM   20  N   UNL     1     -45.260 -48.256   7.510  1.00  0.00    -0.281 N 
HETATM   21  N   UNL     1     -46.035 -48.036   8.625  1.00  0.00    -0.008 NA
ATOM     22  HN  UNL     1     -45.580 -48.562   6.591  1.00  0.00     0.184 HD
HETATM   23  N   UNL     1     -45.290 -47.641   9.648  1.00  0.00    -0.005 NA
ENDBRANCH  17  18
ENDBRANCH  14  17
ENDBRANCH   1  13
TORSDOF 6
ENDMDL
MODEL 8
REMARK VINA RESULT:      -5.6      4.283      6.169
REMARK  6 active torsions:
REMARK  status: ('A' for Active; 'I' for Inactive)
REMARK    1  A    between atoms: C_2  and  C_4 
REMARK    2  A    between atoms: C_4  and  C_5 
REMARK    3  A    between atoms: C_4  and  N_16 
REMARK    4  A    between atoms: C_5  and  N_6 
REMARK       I    between atoms: N_6  and  C_7 
REMARK    5  A    between atoms: C_7  and  C_9 
REMARK    6  A    between atoms: C_9  and  N_10 
ROOT
HETATM    1  C   UNL     1     -43.378 -54.131  15.888  1.00  0.00     0.159 C 
ENDROOT
BRANCH   1   2
HETATM    2  C   UNL     1     -44.742 -53.349  15.959  1.00  0.00     0.244 C 
BRANCH   2   3
HETATM    3  C   UNL     1     -45.347 -53.524  17.411  1.00  0.00     0.012 C 
HETATM    4  C   UNL     1     -44.535 -54.465  18.309  1.00  0.00     0.012 C 
HETATM    5  C   UNL     1     -45.568 -52.193  18.147  1.00  0.00     0.012 C 
ENDBRANCH   2   3
BRANCH   2   6
HETATM    6  N   UNL     1     -45.740 -53.737  14.896  1.00  0.00     0.095 N 
HETATM    7  C   UNL     1     -45.238 -53.780  13.514  1.00  0.00     0.273 C 
HETATM    8  C   UNL     1     -44.842 -52.397  12.984  1.00  0.00     0.034 C 
HETATM    9  C   UNL     1     -46.044 -51.441  12.977  1.00  0.00    -0.015 C 
HETATM   10  C   UNL     1     -46.983 -51.756  11.806  1.00  0.00     0.010 C 
HETATM   11  C   UNL     1     -46.774 -51.490  14.331  1.00  0.00     0.034 C 
HETATM   12  C   UNL     1     -46.973 -52.917  14.866  1.00  0.00     0.273 C 
ENDBRANCH   2   6
ENDBRANCH   1   2
BRANCH   1  13
HETATM   13  N   UNL     1     -42.207 -53.378  15.443  1.00  0.00    -0.358 N 
HETATM   14  C   UNL     1     -40.971 -53.990  15.367  1.00  0.00     0.237 C 
HETATM   15  O   UNL     1     -40.712 -55.039  15.951  1.00  0.00    -0.272 OA
HETATM   16  H   UNL     1     -42.359 -52.598  14.828  1.00  0.00     0.162 HD
BRANCH  14  17
HETATM   17  C   UNL     1     -39.947 -53.258  14.529  1.00  0.00     0.249 C 
BRANCH  17  18
HETATM   18  N   UNL     1     -40.553 -52.687  13.351  1.00  0.00    -0.264 N 
HETATM   19  C   UNL     1     -40.870 -53.288  12.173  1.00  0.00     0.213 A 
HETATM   20  N   UNL     1     -41.336 -52.373  11.356  1.00  0.00    -0.281 N 
HETATM   21  N   UNL     1     -41.296 -51.187  12.052  1.00  0.00    -0.008 NA
ATOM     22  HN  UNL     1     -41.661 -52.513  10.400  1.00  0.00     0.184 HD
HETATM   23  N   UNL     1     -40.811 -51.371  13.272  1.00  0.00    -0.005 NA
ENDBRANCH  17  18
ENDBRANCH  14  17
ENDBRANCH   1  13
TORSDOF 6
ENDMDL
MODEL 9
REMARK VINA RESULT:      -5.6      3.170      7.011
REMARK  6 active torsions:
REMARK  status: ('A' for Active; 'I' for Inactive)
REMARK    1  A    between atoms: C_2  and  C_4 
REMARK    2  A    between atoms: C_4  and  C_5 
REMARK    3  A    between atoms: C_4  and  N_16 
REMARK    4  A    between atoms: C_5  and  N_6 
REMARK       I    between atoms: N_6  and  C_7 
REMARK    5  A    between atoms: C_7  and  C_9 
REMARK    6  A    between atoms: C_9  and  N_10 
ROOT
HETATM    1  C   UNL     1     -40.765 -51.483  11.904  1.00  0.00     0.159 C 
ENDROOT
BRANCH   1   2
HETATM    2  C   UNL     1     -40.268 -49.996  11.760  1.00  0.00     0.244 C 
BRANCH   2   3
HETATM    3  C   UNL     1     -38.816 -49.889  12.381  1.00  0.00     0.012 C 
HETATM    4  C   UNL     1     -38.519 -50.954  13.444  1.00  0.00     0.012 C 
HETATM    5  C   UNL     1     -37.697 -49.903  11.328  1.00  0.00     0.012 C 
ENDBRANCH   2   3
BRANCH   2   6
HETATM    6  N   UNL     1     -41.198 -48.967  12.353  1.00  0.00     0.095 N 
HETATM    7  C   UNL     1     -42.329 -48.547  11.511  1.00  0.00     0.273 C 
HETATM    8  C   UNL     1     -41.885 -47.783  10.258  1.00  0.00     0.034 C 
HETATM    9  C   UNL     1     -41.127 -46.500  10.633  1.00  0.00    -0.015 C 
HETATM   10  C   UNL     1     -42.099 -45.411  11.102  1.00  0.00     0.010 C 
HETATM   11  C   UNL     1     -40.048 -46.805  11.687  1.00  0.00     0.034 C 
HETATM   12  C   UNL     1     -40.541 -47.723  12.817  1.00  0.00     0.273 C 
ENDBRANCH   2   6
ENDBRANCH   1   2
BRANCH   1  13
HETATM   13  N   UNL     1     -42.208 -51.690  12.007  1.00  0.00    -0.358 N 
HETATM   14  C   UNL     1     -42.807 -51.828  13.244  1.00  0.00     0.237 C 
HETATM   15  O   UNL     1     -42.177 -52.111  14.259  1.00  0.00    -0.272 OA
HETATM   16  H   UNL     1     -42.786 -51.330  11.267  1.00  0.00     0.162 HD
BRANCH  14  17
HETATM   17  C   UNL     1     -44.306 -51.629  13.252  1.00  0.00     0.249 C 
BRANCH  17  18
HETATM   18  N   UNL     1     -44.997 -52.888  13.394  1.00  0.00    -0.264 N 
HETATM   19  C   UNL     1     -46.048 -53.202  14.198  1.00  0.00     0.213 A 
HETATM   20  N   UNL     1     -46.306 -54.480  14.056  1.00  0.00    -0.281 N 
HETATM   21  N   UNL     1     -45.386 -54.955  13.150  1.00  0.00    -0.008 NA
ATOM     22  HN  UNL     1     -47.039 -55.013  14.523  1.00  0.00     0.184 HD
HETATM   23  N   UNL     1     -44.577 -53.986  12.746  1.00  0.00    -0.005 NA
ENDBRANCH  17  18
ENDBRANCH  14  17
ENDBRANCH   1  13
TORSDOF 6
ENDMDL
