MODEL 1
REMARK VINA RESULT:      -6.5      0.000      0.000
REMARK  5 active torsions:
REMARK  status: ('A' for Active; 'I' for Inactive)
REMARK    1  A    between atoms: C_5  and  C_6 
REMARK    2  A    between atoms: C_6  and  C_7 
REMARK    3  A    between atoms: C_7  and  N_8 
REMARK       I    between atoms: N_8  and  C_9 
REMARK       I    between atoms: C_9  and  N_11 
REMARK    4  A    between atoms: N_11  and  C_12 
REMARK    5  A    between atoms: N_14  and  C_15 
ROOT
HETATM    1  N   UNL     1     -39.478 -51.962  14.157  1.00  0.00    -0.343 N 
HETATM    2  C   UNL     1     -40.439 -52.555  13.371  1.00  0.00     0.316 C 
HETATM    3  O   UNL     1     -40.345 -52.679  12.158  1.00  0.00    -0.247 OA
HETATM    4  N   UNL     1     -41.505 -53.011  14.106  1.00  0.00    -0.336 N 
HETATM    5  H   UNL     1     -39.403 -52.351  15.086  1.00  0.00     0.164 HD
HETATM    6  H   UNL     1     -41.673 -52.512  14.970  1.00  0.00     0.164 HD
ENDROOT
BRANCH   1   7
HETATM    7  C   UNL     1     -38.245 -51.528  13.510  1.00  0.00     0.129 C 
BRANCH   7   8
HETATM    8  C   UNL     1     -37.798 -50.122  13.914  1.00  0.00     0.060 C 
BRANCH   8   9
HETATM    9  C   UNL     1     -38.563 -49.061  13.161  1.00  0.00    -0.041 A 
HETATM   10  C   UNL     1     -38.848 -47.821  13.734  1.00  0.00     0.010 A 
HETATM   11  C   UNL     1     -39.502 -46.841  12.981  1.00  0.00     0.025 A 
HETATM   12  C   UNL     1     -39.856 -47.125  11.667  1.00  0.00     0.005 A 
HETATM   13  C   UNL     1     -40.501 -46.086  10.798  1.00  0.00     0.068 C 
HETATM   14  N   UNL     1     -39.604 -48.326  11.096  1.00  0.00    -0.369 N 
HETATM   15  C   UNL     1     -38.969 -49.257  11.847  1.00  0.00     0.095 A 
ATOM     16  HN  UNL     1     -39.883 -48.523  10.135  1.00  0.00     0.165 HD
ENDBRANCH   8   9
ENDBRANCH   7   8
ENDBRANCH   1   7
BRANCH   4  17
HETATM   17  C   UNL     1     -42.660 -53.663  13.482  1.00  0.00     0.112 C 
HETATM   18  C   UNL     1     -43.791 -52.722  13.068  1.00  0.00     0.152 C 
HETATM   19  N   UNL     1     -44.991 -53.526  13.123  1.00  0.00    -0.345 N 
HETATM   20  C   UNL     1     -44.785 -54.689  13.869  1.00  0.00     0.222 C 
HETATM   21  O   UNL     1     -45.624 -55.526  14.168  1.00  0.00    -0.273 OA
HETATM   22  C   UNL     1     -43.352 -54.717  14.344  1.00  0.00     0.129 C 
BRANCH  19  23
HETATM   23  C   UNL     1     -46.259 -52.855  13.115  1.00  0.00     0.087 A 
HETATM   24  C   UNL     1     -46.492 -51.484  12.548  1.00  0.00     0.027 A 
HETATM   25  C   UNL     1     -46.501 -51.687  14.034  1.00  0.00     0.027 A 
ENDBRANCH  19  23
ENDBRANCH   4  17
TORSDOF 5
ENDMDL
MODEL 2
REMARK VINA RESULT:      -6.5      2.950      3.889
REMARK  5 active torsions:
REMARK  status: ('A' for Active; 'I' for Inactive)
REMARK    1  A    between atoms: C_5  and  C_6 
REMARK    2  A    between atoms: C_6  and  C_7 
REMARK    3  A    between atoms: C_7  and  N_8 
REMARK       I    between atoms: N_8  and  C_9 
REMARK       I    between atoms: C_9  and  N_11 
REMARK    4  A    between atoms: N_11  and  C_12 
REMARK    5  A    between atoms: N_14  and  C_15 
ROOT
HETATM    1  N   UNL     1     -41.480 -50.576  11.501  1.00  0.00    -0.343 N 
HETATM    2  C   UNL     1     -42.387 -51.230  12.303  1.00  0.00     0.316 C 
HETATM    3  O   UNL     1     -42.863 -50.750  13.322  1.00  0.00    -0.247 OA
HETATM    4  N   UNL     1     -42.711 -52.472  11.818  1.00  0.00    -0.336 N 
HETATM    5  H   UNL     1     -41.555 -50.802  10.519  1.00  0.00     0.164 HD
HETATM    6  H   UNL     1     -41.994 -52.912  11.256  1.00  0.00     0.164 HD
ENDROOT
BRANCH   1   7
HETATM    7  C   UNL     1     -41.130 -49.204  11.850  1.00  0.00     0.129 C 
BRANCH   7   8
HETATM    8  C   UNL     1     -41.071 -48.258  10.649  1.00  0.00     0.060 C 
BRANCH   8   9
HETATM    9  C   UNL     1     -42.452 -47.877  10.176  1.00  0.00    -0.041 A 
HETATM   10  C   UNL     1     -42.782 -47.864   8.820  1.00  0.00     0.010 A 
HETATM   11  C   UNL     1     -44.091 -47.567   8.426  1.00  0.00     0.025 A 
HETATM   12  C   UNL     1     -45.042 -47.291   9.401  1.00  0.00     0.005 A 
HETATM   13  C   UNL     1     -46.473 -47.031   9.033  1.00  0.00     0.068 C 
HETATM   14  N   UNL     1     -44.741 -47.282  10.720  1.00  0.00    -0.369 N 
HETATM   15  C   UNL     1     -43.467 -47.574  11.075  1.00  0.00     0.095 A 
ATOM     16  HN  UNL     1     -45.448 -47.064  11.422  1.00  0.00     0.165 HD
ENDBRANCH   8   9
ENDBRANCH   7   8
ENDBRANCH   1   7
BRANCH   4  17
HETATM   17  C   UNL     1     -43.646 -53.360  12.514  1.00  0.00     0.112 C 
HETATM   18  C   UNL     1     -44.969 -52.713  12.929  1.00  0.00     0.152 C 
HETATM   19  N   UNL     1     -45.405 -53.456  14.089  1.00  0.00    -0.345 N 
HETATM   20  C   UNL     1     -44.355 -54.192  14.641  1.00  0.00     0.222 C 
HETATM   21  O   UNL     1     -44.383 -54.852  15.670  1.00  0.00    -0.273 OA
HETATM   22  C   UNL     1     -43.115 -53.975  13.807  1.00  0.00     0.129 C 
BRANCH  19  23
HETATM   23  C   UNL     1     -46.436 -52.888  14.911  1.00  0.00     0.087 A 
HETATM   24  C   UNL     1     -46.961 -51.489  14.769  1.00  0.00     0.027 A 
HETATM   25  C   UNL     1     -46.092 -51.843  15.938  1.00  0.00     0.027 A 
ENDBRANCH  19  23
ENDBRANCH   4  17
TORSDOF 5
ENDMDL
MODEL 3
REMARK VINA RESULT:      -6.3      2.858      7.311
REMARK  5 active torsions:
REMARK  status: ('A' for Active; 'I' for Inactive)
REMARK    1  A    between atoms: C_5  and  C_6 
REMARK    2  A    between atoms: C_6  and  C_7 
REMARK    3  A    between atoms: C_7  and  N_8 
REMARK       I    between atoms: N_8  and  C_9 
REMARK       I    between atoms: C_9  and  N_11 
REMARK    4  A    between atoms: N_11  and  C_12 
REMARK    5  A    between atoms: N_14  and  C_15 
ROOT
HETATM    1  N   UNL     1     -40.071 -51.586  12.401  1.00  0.00    -0.343 N 
HETATM    2  C   UNL     1     -40.852 -50.461  12.526  1.00  0.00     0.316 C 
HETATM    3  O   UNL     1     -41.737 -50.335  13.361  1.00  0.00    -0.247 OA
HETATM    4  N   UNL     1     -40.511 -49.487  11.620  1.00  0.00    -0.336 N 
HETATM    5  H   UNL     1     -39.127 -51.405  12.089  1.00  0.00     0.164 HD
HETATM    6  H   UNL     1     -40.097 -49.828  10.762  1.00  0.00     0.164 HD
ENDROOT
BRANCH   1   7
HETATM    7  C   UNL     1     -40.263 -52.656  13.374  1.00  0.00     0.129 C 
BRANCH   7   8
HETATM    8  C   UNL     1     -40.966 -53.889  12.804  1.00  0.00     0.060 C 
BRANCH   8   9
HETATM    9  C   UNL     1     -42.392 -53.986  13.288  1.00  0.00    -0.041 A 
HETATM   10  C   UNL     1     -43.460 -53.531  12.514  1.00  0.00     0.010 A 
HETATM   11  C   UNL     1     -44.771 -53.697  12.970  1.00  0.00     0.025 A 
HETATM   12  C   UNL     1     -44.984 -54.320  14.195  1.00  0.00     0.005 A 
HETATM   13  C   UNL     1     -46.373 -54.581  14.698  1.00  0.00     0.068 C 
HETATM   14  N   UNL     1     -43.964 -54.756  14.970  1.00  0.00    -0.369 N 
HETATM   15  C   UNL     1     -42.703 -54.583  14.504  1.00  0.00     0.095 A 
ATOM     16  HN  UNL     1     -44.137 -55.198  15.872  1.00  0.00     0.165 HD
ENDBRANCH   8   9
ENDBRANCH   7   8
ENDBRANCH   1   7
BRANCH   4  17
HETATM   17  C   UNL     1     -41.217 -48.205  11.552  1.00  0.00     0.112 C 
HETATM   18  C   UNL     1     -42.474 -48.201  10.681  1.00  0.00     0.152 C 
HETATM   19  N   UNL     1     -42.611 -46.839  10.220  1.00  0.00    -0.345 N 
HETATM   20  C   UNL     1     -41.418 -46.130  10.380  1.00  0.00     0.222 C 
HETATM   21  O   UNL     1     -41.189 -44.987  10.011  1.00  0.00    -0.273 OA
HETATM   22  C   UNL     1     -40.391 -47.038  11.013  1.00  0.00     0.129 C 
BRANCH  19  23
HETATM   23  C   UNL     1     -43.495 -46.580   9.120  1.00  0.00     0.087 A 
HETATM   24  C   UNL     1     -44.678 -47.432   8.761  1.00  0.00     0.027 A 
HETATM   25  C   UNL     1     -43.454 -47.455   7.896  1.00  0.00     0.027 A 
ENDBRANCH  19  23
ENDBRANCH   4  17
TORSDOF 5
ENDMDL
MODEL 4
REMARK VINA RESULT:      -6.2      3.723      7.831
REMARK  5 active torsions:
REMARK  status: ('A' for Active; 'I' for Inactive)
REMARK    1  A    between atoms: C_5  and  C_6 
REMARK    2  A    between atoms: C_6  and  C_7 
REMARK    3  A    between atoms: C_7  and  N_8 
REMARK       I    between atoms: N_8  and  C_9 
REMARK       I    between atoms: C_9  and  N_11 
REMARK    4  A    between atoms: N_11  and  C_12 
REMARK    5  A    between atoms: N_14  and  C_15 
ROOT
HETATM    1  N   UNL     1     -41.886 -51.068  12.005  1.00  0.00    -0.343 N 
HETATM    2  C   UNL     1     -41.409 -49.918  11.421  1.00  0.00     0.316 C 
HETATM    3  O   UNL     1     -40.225 -49.709  11.194  1.00  0.00    -0.247 OA
HETATM    4  N   UNL     1     -42.414 -49.039  11.101  1.00  0.00    -0.336 N 
HETATM    5  H   UNL     1     -42.804 -51.346  11.688  1.00  0.00     0.164 HD
HETATM    6  H   UNL     1     -43.242 -49.110  11.678  1.00  0.00     0.164 HD
ENDROOT
BRANCH   1   7
HETATM    7  C   UNL     1     -40.928 -52.128  12.298  1.00  0.00     0.129 C 
BRANCH   7   8
HETATM    8  C   UNL     1     -41.576 -53.436  12.754  1.00  0.00     0.060 C 
BRANCH   8   9
HETATM    9  C   UNL     1     -40.795 -54.080  13.874  1.00  0.00    -0.041 A 
HETATM   10  C   UNL     1     -41.415 -54.491  15.055  1.00  0.00     0.010 A 
HETATM   11  C   UNL     1     -40.668 -55.141  16.042  1.00  0.00     0.025 A 
HETATM   12  C   UNL     1     -39.314 -55.367  15.823  1.00  0.00     0.005 A 
HETATM   13  C   UNL     1     -38.485 -56.118  16.823  1.00  0.00     0.068 C 
HETATM   14  N   UNL     1     -38.689 -54.964  14.693  1.00  0.00    -0.369 N 
HETATM   15  C   UNL     1     -39.435 -54.337  13.752  1.00  0.00     0.095 A 
ATOM     16  HN  UNL     1     -37.691 -55.126  14.554  1.00  0.00     0.165 HD
ENDBRANCH   8   9
ENDBRANCH   7   8
ENDBRANCH   1   7
BRANCH   4  17
HETATM   17  C   UNL     1     -42.145 -47.738  10.484  1.00  0.00     0.112 C 
HETATM   18  C   UNL     1     -41.858 -46.601  11.467  1.00  0.00     0.152 C 
HETATM   19  N   UNL     1     -42.275 -45.398  10.784  1.00  0.00    -0.345 N 
HETATM   20  C   UNL     1     -43.111 -45.693   9.705  1.00  0.00     0.222 C 
HETATM   21  O   UNL     1     -43.693 -44.893   8.987  1.00  0.00    -0.273 OA
HETATM   22  C   UNL     1     -43.270 -47.192   9.607  1.00  0.00     0.129 C 
BRANCH  19  23
HETATM   23  C   UNL     1     -42.447 -44.202  11.560  1.00  0.00     0.087 A 
HETATM   24  C   UNL     1     -42.931 -42.893  11.008  1.00  0.00     0.027 A 
HETATM   25  C   UNL     1     -41.491 -43.051  11.394  1.00  0.00     0.027 A 
ENDBRANCH  19  23
ENDBRANCH   4  17
TORSDOF 5
ENDMDL
MODEL 5
REMARK VINA RESULT:      -6.2      2.707      7.581
REMARK  5 active torsions:
REMARK  status: ('A' for Active; 'I' for Inactive)
REMARK    1  A    between atoms: C_5  and  C_6 
REMARK    2  A    between atoms: C_6  and  C_7 
REMARK    3  A    between atoms: C_7  and  N_8 
REMARK       I    between atoms: N_8  and  C_9 
REMARK       I    between atoms: C_9  and  N_11 
REMARK    4  A    between atoms: N_11  and  C_12 
REMARK    5  A    between atoms: N_14  and  C_15 
ROOT
HETATM    1  N   UNL     1     -42.950 -52.735  12.077  1.00  0.00    -0.343 N 
HETATM    2  C   UNL     1     -42.382 -51.639  12.683  1.00  0.00     0.316 C 
HETATM    3  O   UNL     1     -42.207 -51.543  13.890  1.00  0.00    -0.247 OA
HETATM    4  N   UNL     1     -42.013 -50.674  11.778  1.00  0.00    -0.336 N 
HETATM    5  H   UNL     1     -42.594 -52.930  11.152  1.00  0.00     0.164 HD
HETATM    6  H   UNL     1     -42.554 -50.663  10.923  1.00  0.00     0.164 HD
ENDROOT
BRANCH   1   7
HETATM    7  C   UNL     1     -43.291 -53.876  12.919  1.00  0.00     0.129 C 
BRANCH   7   8
HETATM    8  C   UNL     1     -44.786 -54.199  12.945  1.00  0.00     0.060 C 
BRANCH   8   9
HETATM    9  C   UNL     1     -45.523 -53.329  13.933  1.00  0.00    -0.041 A 
HETATM   10  C   UNL     1     -46.125 -52.131  13.547  1.00  0.00     0.010 A 
HETATM   11  C   UNL     1     -46.853 -51.386  14.479  1.00  0.00     0.025 A 
HETATM   12  C   UNL     1     -46.965 -51.860  15.781  1.00  0.00     0.005 A 
HETATM   13  C   UNL     1     -47.790 -51.131  16.801  1.00  0.00     0.068 C 
HETATM   14  N   UNL     1     -46.378 -53.011  16.183  1.00  0.00    -0.369 N 
HETATM   15  C   UNL     1     -45.679 -53.714  15.259  1.00  0.00     0.095 A 
ATOM     16  HN  UNL     1     -46.459 -53.338  17.146  1.00  0.00     0.165 HD
ENDBRANCH   8   9
ENDBRANCH   7   8
ENDBRANCH   1   7
BRANCH   4  17
HETATM   17  C   UNL     1     -41.402 -49.409  12.193  1.00  0.00     0.112 C 
HETATM   18  C   UNL     1     -42.381 -48.355  12.711  1.00  0.00     0.152 C 
HETATM   19  N   UNL     1     -41.752 -47.084  12.429  1.00  0.00    -0.345 N 
HETATM   20  C   UNL     1     -40.731 -47.225  11.488  1.00  0.00     0.222 C 
HETATM   21  O   UNL     1     -40.071 -46.329  10.982  1.00  0.00    -0.273 OA
HETATM   22  C   UNL     1     -40.617 -48.681  11.103  1.00  0.00     0.129 C 
BRANCH  19  23
HETATM   23  C   UNL     1     -42.559 -45.899  12.489  1.00  0.00     0.087 A 
HETATM   24  C   UNL     1     -42.071 -44.561  12.963  1.00  0.00     0.027 A 
HETATM   25  C   UNL     1     -43.009 -45.358  13.820  1.00  0.00     0.027 A 
ENDBRANCH  19  23
ENDBRANCH   4  17
TORSDOF 5
ENDMDL
MODEL 6
REMARK VINA RESULT:      -6.1      2.750      7.677
REMARK  5 active torsions:
REMARK  status: ('A' for Active; 'I' for Inactive)
REMARK    1  A    between atoms: C_5  and  C_6 
REMARK    2  A    between atoms: C_6  and  C_7 
REMARK    3  A    between atoms: C_7  and  N_8 
REMARK       I    between atoms: N_8  and  C_9 
REMARK       I    between atoms: C_9  and  N_11 
REMARK    4  A    between atoms: N_11  and  C_12 
REMARK    5  A    between atoms: N_14  and  C_15 
ROOT
HETATM    1  N   UNL     1     -41.619 -51.612  12.458  1.00  0.00    -0.343 N 
HETATM    2  C   UNL     1     -41.022 -50.560  11.804  1.00  0.00     0.316 C 
HETATM    3  O   UNL     1     -39.818 -50.476  11.607  1.00  0.00    -0.247 OA
HETATM    4  N   UNL     1     -41.932 -49.624  11.380  1.00  0.00    -0.336 N 
HETATM    5  H   UNL     1     -42.549 -51.832  12.129  1.00  0.00     0.164 HD
HETATM    6  H   UNL     1     -42.780 -49.574  11.930  1.00  0.00     0.164 HD
ENDROOT
BRANCH   1   7
HETATM    7  C   UNL     1     -40.771 -52.726  12.867  1.00  0.00     0.129 C 
BRANCH   7   8
HETATM    8  C   UNL     1     -41.507 -54.064  12.947  1.00  0.00     0.060 C 
BRANCH   8   9
HETATM    9  C   UNL     1     -42.904 -53.896  13.494  1.00  0.00    -0.041 A 
HETATM   10  C   UNL     1     -43.136 -53.676  14.852  1.00  0.00     0.010 A 
HETATM   11  C   UNL     1     -44.439 -53.461  15.310  1.00  0.00     0.025 A 
HETATM   12  C   UNL     1     -45.485 -53.471  14.394  1.00  0.00     0.005 A 
HETATM   13  C   UNL     1     -46.893 -53.181  14.825  1.00  0.00     0.068 C 
HETATM   14  N   UNL     1     -45.286 -53.698  13.074  1.00  0.00    -0.369 N 
HETATM   15  C   UNL     1     -44.014 -53.902  12.658  1.00  0.00     0.095 A 
ATOM     16  HN  UNL     1     -46.067 -53.715  12.418  1.00  0.00     0.165 HD
ENDBRANCH   8   9
ENDBRANCH   7   8
ENDBRANCH   1   7
BRANCH   4  17
HETATM   17  C   UNL     1     -41.527 -48.405  10.675  1.00  0.00     0.112 C 
HETATM   18  C   UNL     1     -40.882 -47.332  11.553  1.00  0.00     0.152 C 
HETATM   19  N   UNL     1     -41.171 -46.080  10.892  1.00  0.00    -0.345 N 
HETATM   20  C   UNL     1     -42.207 -46.225   9.966  1.00  0.00     0.222 C 
HETATM   21  O   UNL     1     -42.736 -45.338   9.312  1.00  0.00    -0.273 OA
HETATM   22  C   UNL     1     -42.655 -47.667   9.957  1.00  0.00     0.129 C 
BRANCH  19  23
HETATM   23  C   UNL     1     -40.993 -44.864  11.633  1.00  0.00     0.087 A 
HETATM   24  C   UNL     1     -40.416 -43.599  11.065  1.00  0.00     0.027 A 
HETATM   25  C   UNL     1     -39.611 -44.417  12.029  1.00  0.00     0.027 A 
ENDBRANCH  19  23
ENDBRANCH   4  17
TORSDOF 5
ENDMDL
MODEL 7
REMARK VINA RESULT:      -6.0      4.910      6.528
REMARK  5 active torsions:
REMARK  status: ('A' for Active; 'I' for Inactive)
REMARK    1  A    between atoms: C_5  and  C_6 
REMARK    2  A    between atoms: C_6  and  C_7 
REMARK    3  A    between atoms: C_7  and  N_8 
REMARK       I    between atoms: N_8  and  C_9 
REMARK       I    between atoms: C_9  and  N_11 
REMARK    4  A    between atoms: N_11  and  C_12 
REMARK    5  A    between atoms: N_14  and  C_15 
ROOT
HETATM    1  N   UNL     1     -38.932 -49.067  11.365  1.00  0.00    -0.343 N 
HETATM    2  C   UNL     1     -39.959 -48.188  11.621  1.00  0.00     0.316 C 
HETATM    3  O   UNL     1     -40.003 -47.461  12.603  1.00  0.00    -0.247 OA
HETATM    4  N   UNL     1     -40.918 -48.206  10.639  1.00  0.00    -0.336 N 
HETATM    5  H   UNL     1     -38.738 -49.204  10.383  1.00  0.00     0.164 HD
HETATM    6  H   UNL     1     -40.999 -49.081  10.138  1.00  0.00     0.164 HD
ENDROOT
BRANCH   1   7
HETATM    7  C   UNL     1     -37.797 -49.069  12.281  1.00  0.00     0.129 C 
BRANCH   7   8
HETATM    8  C   UNL     1     -37.994 -49.964  13.505  1.00  0.00     0.060 C 
BRANCH   8   9
HETATM    9  C   UNL     1     -37.309 -49.394  14.723  1.00  0.00    -0.041 A 
HETATM   10  C   UNL     1     -36.498 -50.181  15.542  1.00  0.00     0.010 A 
HETATM   11  C   UNL     1     -35.830 -49.601  16.624  1.00  0.00     0.025 A 
HETATM   12  C   UNL     1     -35.988 -48.240  16.862  1.00  0.00     0.005 A 
HETATM   13  C   UNL     1     -35.241 -47.558  17.971  1.00  0.00     0.068 C 
HETATM   14  N   UNL     1     -36.780 -47.460  16.092  1.00  0.00    -0.369 N 
HETATM   15  C   UNL     1     -37.416 -48.048  15.049  1.00  0.00     0.095 A 
ATOM     16  HN  UNL     1     -36.896 -46.466  16.289  1.00  0.00     0.165 HD
ENDBRANCH   8   9
ENDBRANCH   7   8
ENDBRANCH   1   7
BRANCH   4  17
HETATM   17  C   UNL     1     -42.116 -47.365  10.705  1.00  0.00     0.112 C 
HETATM   18  C   UNL     1     -43.383 -47.995  10.123  1.00  0.00     0.152 C 
HETATM   19  N   UNL     1     -44.190 -46.880   9.682  1.00  0.00    -0.345 N 
HETATM   20  C   UNL     1     -43.426 -45.716   9.572  1.00  0.00     0.222 C 
HETATM   21  O   UNL     1     -43.798 -44.633   9.145  1.00  0.00    -0.273 OA
HETATM   22  C   UNL     1     -42.006 -46.023   9.984  1.00  0.00     0.129 C 
BRANCH  19  23
HETATM   23  C   UNL     1     -45.285 -47.145   8.792  1.00  0.00     0.087 A 
HETATM   24  C   UNL     1     -46.714 -46.777   9.071  1.00  0.00     0.027 A 
HETATM   25  C   UNL     1     -46.290 -48.214   9.130  1.00  0.00     0.027 A 
ENDBRANCH  19  23
ENDBRANCH   4  17
TORSDOF 5
ENDMDL
MODEL 8
REMARK VINA RESULT:      -6.0      2.201      2.859
REMARK  5 active torsions:
REMARK  status: ('A' for Active; 'I' for Inactive)
REMARK    1  A    between atoms: C_5  and  C_6 
REMARK    2  A    between atoms: C_6  and  C_7 
REMARK    3  A    between atoms: C_7  and  N_8 
REMARK       I    between atoms: N_8  and  C_9 
REMARK       I    between atoms: C_9  and  N_11 
REMARK    4  A    between atoms: N_11  and  C_12 
REMARK    5  A    between atoms: N_14  and  C_15 
ROOT
HETATM    1  N   UNL     1     -40.978 -50.869  11.296  1.00  0.00    -0.343 N 
HETATM    2  C   UNL     1     -41.976 -51.420  12.065  1.00  0.00     0.316 C 
HETATM    3  O   UNL     1     -42.586 -50.807  12.930  1.00  0.00    -0.247 OA
HETATM    4  N   UNL     1     -42.225 -52.730  11.737  1.00  0.00    -0.336 N 
HETATM    5  H   UNL     1     -40.922 -51.241  10.359  1.00  0.00     0.164 HD
HETATM    6  H   UNL     1     -41.436 -53.229  11.345  1.00  0.00     0.164 HD
ENDROOT
BRANCH   1   7
HETATM    7  C   UNL     1     -40.688 -49.451  11.474  1.00  0.00     0.129 C 
BRANCH   7   8
HETATM    8  C   UNL     1     -41.504 -48.535  10.561  1.00  0.00     0.060 C 
BRANCH   8   9
HETATM    9  C   UNL     1     -41.252 -47.080  10.869  1.00  0.00    -0.041 A 
HETATM   10  C   UNL     1     -39.996 -46.624  11.271  1.00  0.00     0.010 A 
HETATM   11  C   UNL     1     -39.787 -45.258  11.485  1.00  0.00     0.025 A 
HETATM   12  C   UNL     1     -40.844 -44.376  11.288  1.00  0.00     0.005 A 
HETATM   13  C   UNL     1     -40.653 -42.895  11.441  1.00  0.00     0.068 C 
HETATM   14  N   UNL     1     -42.075 -44.796  10.913  1.00  0.00    -0.369 N 
HETATM   15  C   UNL     1     -42.249 -46.124  10.713  1.00  0.00     0.095 A 
ATOM     16  HN  UNL     1     -42.842 -44.137  10.787  1.00  0.00     0.165 HD
ENDBRANCH   8   9
ENDBRANCH   7   8
ENDBRANCH   1   7
BRANCH   4  17
HETATM   17  C   UNL     1     -43.235 -53.530  12.435  1.00  0.00     0.112 C 
HETATM   18  C   UNL     1     -44.590 -52.844  12.620  1.00  0.00     0.152 C 
HETATM   19  N   UNL     1     -45.154 -53.438  13.811  1.00  0.00    -0.345 N 
HETATM   20  C   UNL     1     -44.174 -54.092  14.561  1.00  0.00     0.222 C 
HETATM   21  O   UNL     1     -44.318 -54.617  15.655  1.00  0.00    -0.273 OA
HETATM   22  C   UNL     1     -42.850 -53.974  13.844  1.00  0.00     0.129 C 
BRANCH  19  23
HETATM   23  C   UNL     1     -46.263 -52.778  14.438  1.00  0.00     0.087 A 
HETATM   24  C   UNL     1     -46.792 -51.433  14.033  1.00  0.00     0.027 A 
HETATM   25  C   UNL     1     -46.029 -51.577  15.315  1.00  0.00     0.027 A 
ENDBRANCH  19  23
ENDBRANCH   4  17
TORSDOF 5
ENDMDL
MODEL 9
REMARK VINA RESULT:      -5.7      2.522      4.179
REMARK  5 active torsions:
REMARK  status: ('A' for Active; 'I' for Inactive)
REMARK    1  A    between atoms: C_5  and  C_6 
REMARK    2  A    between atoms: C_6  and  C_7 
REMARK    3  A    between atoms: C_7  and  N_8 
REMARK       I    between atoms: N_8  and  C_9 
REMARK       I    between atoms: C_9  and  N_11 
REMARK    4  A    between atoms: N_11  and  C_12 
REMARK    5  A    between atoms: N_14  and  C_15 
ROOT
HETATM    1  N   UNL     1     -40.296 -48.888  11.224  1.00  0.00    -0.343 N 
HETATM    2  C   UNL     1     -40.800 -49.970  11.906  1.00  0.00     0.316 C 
HETATM    3  O   UNL     1     -41.399 -49.886  12.969  1.00  0.00    -0.247 OA
HETATM    4  N   UNL     1     -40.573 -51.154  11.248  1.00  0.00    -0.336 N 
HETATM    5  H   UNL     1     -40.303 -48.990  10.219  1.00  0.00     0.164 HD
HETATM    6  H   UNL     1     -39.758 -51.159  10.649  1.00  0.00     0.164 HD
ENDROOT
BRANCH   1   7
HETATM    7  C   UNL     1     -40.562 -47.560  11.765  1.00  0.00     0.129 C 
BRANCH   7   8
HETATM    8  C   UNL     1     -40.058 -46.420  10.879  1.00  0.00     0.060 C 
BRANCH   8   9
HETATM    9  C   UNL     1     -40.895 -45.175  11.049  1.00  0.00    -0.041 A 
HETATM   10  C   UNL     1     -40.311 -43.925  11.255  1.00  0.00     0.010 A 
HETATM   11  C   UNL     1     -41.118 -42.786  11.344  1.00  0.00     0.025 A 
HETATM   12  C   UNL     1     -42.496 -42.927  11.224  1.00  0.00     0.005 A 
HETATM   13  C   UNL     1     -43.400 -41.729  11.248  1.00  0.00     0.068 C 
HETATM   14  N   UNL     1     -43.086 -44.131  11.040  1.00  0.00    -0.369 N 
HETATM   15  C   UNL     1     -42.281 -45.217  10.956  1.00  0.00     0.095 A 
ATOM     16  HN  UNL     1     -44.099 -44.217  10.968  1.00  0.00     0.165 HD
ENDBRANCH   8   9
ENDBRANCH   7   8
ENDBRANCH   1   7
BRANCH   4  17
HETATM   17  C   UNL     1     -41.005 -52.444  11.793  1.00  0.00     0.112 C 
HETATM   18  C   UNL     1     -42.488 -52.531  12.155  1.00  0.00     0.152 C 
HETATM   19  N   UNL     1     -42.562 -53.513  13.213  1.00  0.00    -0.345 N 
HETATM   20  C   UNL     1     -41.306 -53.736  13.782  1.00  0.00     0.222 C 
HETATM   21  O   UNL     1     -41.054 -54.443  14.747  1.00  0.00    -0.273 OA
HETATM   22  C   UNL     1     -40.287 -52.881  13.068  1.00  0.00     0.129 C 
BRANCH  19  23
HETATM   23  C   UNL     1     -43.762 -53.580  13.996  1.00  0.00     0.087 A 
HETATM   24  C   UNL     1     -44.328 -54.842  14.579  1.00  0.00     0.027 A 
HETATM   25  C   UNL     1     -45.010 -54.189  13.414  1.00  0.00     0.027 A 
ENDBRANCH  19  23
ENDBRANCH   4  17
TORSDOF 5
ENDMDL
