MODEL 1
REMARK VINA RESULT:      -5.4      0.000      0.000
REMARK  3 active torsions:
REMARK  status: ('A' for Active; 'I' for Inactive)
REMARK    1  A    between atoms: S_2  and  C_3 
REMARK    2  A    between atoms: C_7  and  N_8 
REMARK       I    between atoms: N_8  and  C_9 
REMARK       I    between atoms: C_9  and  N_11 
REMARK    3  A    between atoms: N_11  and  C_12 
ROOT
HETATM    1  N   UNL     1     -41.076 -49.446  10.977  1.00  0.00    -0.288 N 
HETATM    2  C   UNL     1     -41.535 -50.134  12.069  1.00  0.00     0.322 C 
HETATM    3  O   UNL     1     -42.514 -49.839  12.742  1.00  0.00    -0.247 OA
HETATM    4  N   UNL     1     -40.747 -51.227  12.377  1.00  0.00    -0.335 N 
HETATM    5  H   UNL     1     -40.453 -49.895  10.325  1.00  0.00     0.172 HD
HETATM    6  H   UNL     1     -40.208 -51.635  11.627  1.00  0.00     0.164 HD
ENDROOT
BRANCH   1   7
HETATM    7  C   UNL     1     -41.590 -48.246  10.548  1.00  0.00     0.171 A 
HETATM    8  S   UNL     1     -40.811 -46.740  10.785  1.00  0.00     0.025 SA
HETATM    9  N   UNL     1     -42.006 -45.883  10.000  1.00  0.00    -0.304 N 
HETATM   10  C   UNL     1     -42.917 -46.779   9.621  1.00  0.00     0.152 A 
ATOM     11  HN  UNL     1     -42.033 -44.876   9.842  1.00  0.00     0.176 HD
HETATM   12  N   UNL     1     -42.702 -48.132   9.859  1.00  0.00    -0.315 N 
ATOM     13  HN  UNL     1     -43.301 -48.899   9.552  1.00  0.00     0.170 HD
BRANCH  10  14
HETATM   14  S   UNL     1     -44.411 -46.260   8.857  1.00  0.00    -0.098 SA
HETATM   15  C   UNL     1     -45.513 -47.608   9.350  1.00  0.00     0.099 C 
ENDBRANCH  10  14
ENDBRANCH   1   7
BRANCH   4  16
HETATM   16  C   UNL     1     -41.124 -52.096  13.483  1.00  0.00     0.109 C 
HETATM   17  C   UNL     1     -40.110 -52.052  14.642  1.00  0.00     0.029 C 
HETATM   18  C   UNL     1     -39.218 -53.268  14.897  1.00  0.00     0.006 C 
HETATM   19  C   UNL     1     -39.442 -54.529  14.069  1.00  0.00     0.027 C 
HETATM   20  C   UNL     1     -40.633 -54.536  13.176  1.00  0.00    -0.029 C 
HETATM   21  C   UNL     1     -41.376 -53.455  12.912  1.00  0.00    -0.006 C 
ENDBRANCH   4  16
TORSDOF 3
ENDMDL
MODEL 2
REMARK VINA RESULT:      -5.4      1.890      2.378
REMARK  3 active torsions:
REMARK  status: ('A' for Active; 'I' for Inactive)
REMARK    1  A    between atoms: S_2  and  C_3 
REMARK    2  A    between atoms: C_7  and  N_8 
REMARK       I    between atoms: N_8  and  C_9 
REMARK       I    between atoms: C_9  and  N_11 
REMARK    3  A    between atoms: N_11  and  C_12 
ROOT
HETATM    1  N   UNL     1     -41.350 -50.121  12.893  1.00  0.00    -0.288 N 
HETATM    2  C   UNL     1     -41.371 -51.464  12.625  1.00  0.00     0.322 C 
HETATM    3  O   UNL     1     -41.318 -51.973  11.512  1.00  0.00    -0.247 OA
HETATM    4  N   UNL     1     -41.491 -52.232  13.768  1.00  0.00    -0.335 N 
HETATM    5  H   UNL     1     -41.116 -49.797  13.818  1.00  0.00     0.172 HD
HETATM    6  H   UNL     1     -41.168 -51.825  14.634  1.00  0.00     0.164 HD
ENDROOT
BRANCH   1   7
HETATM    7  C   UNL     1     -41.381 -49.140  11.932  1.00  0.00     0.171 A 
HETATM    8  S   UNL     1     -40.164 -47.950  11.750  1.00  0.00     0.025 SA
HETATM    9  N   UNL     1     -40.912 -47.238  10.442  1.00  0.00    -0.304 N 
HETATM   10  C   UNL     1     -42.032 -47.931  10.233  1.00  0.00     0.152 A 
ATOM     11  HN  UNL     1     -40.581 -46.434   9.909  1.00  0.00     0.176 HD
HETATM   12  N   UNL     1     -42.314 -49.048  11.013  1.00  0.00    -0.315 N 
ATOM     13  HN  UNL     1     -43.104 -49.681  10.892  1.00  0.00     0.170 HD
BRANCH  10  14
HETATM   14  S   UNL     1     -43.178 -47.421   9.003  1.00  0.00    -0.098 SA
HETATM   15  C   UNL     1     -44.726 -47.537   9.933  1.00  0.00     0.099 C 
ENDBRANCH  10  14
ENDBRANCH   1   7
BRANCH   4  16
HETATM   16  C   UNL     1     -41.480 -53.685  13.662  1.00  0.00     0.109 C 
HETATM   17  C   UNL     1     -42.898 -54.288  13.676  1.00  0.00     0.029 C 
HETATM   18  C   UNL     1     -43.361 -55.071  14.906  1.00  0.00     0.006 C 
HETATM   19  C   UNL     1     -42.364 -55.328  16.031  1.00  0.00     0.027 C 
HETATM   20  C   UNL     1     -40.952 -54.932  15.772  1.00  0.00    -0.029 C 
HETATM   21  C   UNL     1     -40.562 -54.199  14.725  1.00  0.00    -0.006 C 
ENDBRANCH   4  16
TORSDOF 3
ENDMDL
MODEL 3
REMARK VINA RESULT:      -5.3      2.515      2.980
REMARK  3 active torsions:
REMARK  status: ('A' for Active; 'I' for Inactive)
REMARK    1  A    between atoms: S_2  and  C_3 
REMARK    2  A    between atoms: C_7  and  N_8 
REMARK       I    between atoms: N_8  and  C_9 
REMARK       I    between atoms: C_9  and  N_11 
REMARK    3  A    between atoms: N_11  and  C_12 
ROOT
HETATM    1  N   UNL     1     -41.942 -50.503  11.783  1.00  0.00    -0.288 N 
HETATM    2  C   UNL     1     -42.768 -50.766  12.844  1.00  0.00     0.322 C 
HETATM    3  O   UNL     1     -43.429 -49.939  13.460  1.00  0.00    -0.247 OA
HETATM    4  N   UNL     1     -42.772 -52.103  13.195  1.00  0.00    -0.335 N 
HETATM    5  H   UNL     1     -41.662 -51.249  11.168  1.00  0.00     0.172 HD
HETATM    6  H   UNL     1     -42.531 -52.770  12.477  1.00  0.00     0.164 HD
ENDROOT
BRANCH   1   7
HETATM    7  C   UNL     1     -41.647 -49.241  11.328  1.00  0.00     0.171 A 
HETATM    8  S   UNL     1     -40.106 -48.511  11.484  1.00  0.00     0.025 SA
HETATM    9  N   UNL     1     -40.576 -47.113  10.708  1.00  0.00    -0.304 N 
HETATM   10  C   UNL     1     -41.862 -47.278  10.394  1.00  0.00     0.152 A 
ATOM     11  HN  UNL     1     -39.998 -46.296  10.514  1.00  0.00     0.176 HD
HETATM   12  N   UNL     1     -42.496 -48.484  10.673  1.00  0.00    -0.315 N 
ATOM     13  HN  UNL     1     -43.451 -48.734  10.415  1.00  0.00     0.170 HD
BRANCH  10  14
HETATM   14  S   UNL     1     -42.774 -45.968   9.661  1.00  0.00    -0.098 SA
HETATM   15  C   UNL     1     -43.766 -46.893   8.464  1.00  0.00     0.099 C 
ENDBRANCH  10  14
ENDBRANCH   1   7
BRANCH   4  16
HETATM   16  C   UNL     1     -43.637 -52.560  14.275  1.00  0.00     0.109 C 
HETATM   17  C   UNL     1     -43.112 -53.842  14.949  1.00  0.00     0.029 C 
HETATM   18  C   UNL     1     -43.858 -55.158  14.724  1.00  0.00     0.006 C 
HETATM   19  C   UNL     1     -45.161 -55.139  13.933  1.00  0.00     0.027 C 
HETATM   20  C   UNL     1     -45.701 -53.798  13.575  1.00  0.00    -0.029 C 
HETATM   21  C   UNL     1     -45.023 -52.655  13.721  1.00  0.00    -0.006 C 
ENDBRANCH   4  16
TORSDOF 3
ENDMDL
MODEL 4
REMARK VINA RESULT:      -5.1      4.062      4.632
REMARK  3 active torsions:
REMARK  status: ('A' for Active; 'I' for Inactive)
REMARK    1  A    between atoms: S_2  and  C_3 
REMARK    2  A    between atoms: C_7  and  N_8 
REMARK       I    between atoms: N_8  and  C_9 
REMARK       I    between atoms: C_9  and  N_11 
REMARK    3  A    between atoms: N_11  and  C_12 
ROOT
HETATM    1  N   UNL     1     -43.103 -49.563  13.347  1.00  0.00    -0.288 N 
HETATM    2  C   UNL     1     -44.018 -50.574  13.484  1.00  0.00     0.322 C 
HETATM    3  O   UNL     1     -44.522 -51.213  12.568  1.00  0.00    -0.247 OA
HETATM    4  N   UNL     1     -44.361 -50.805  14.803  1.00  0.00    -0.335 N 
HETATM    5  H   UNL     1     -42.538 -49.287  14.134  1.00  0.00     0.172 HD
HETATM    6  H   UNL     1     -43.689 -50.541  15.508  1.00  0.00     0.164 HD
ENDROOT
BRANCH   1   7
HETATM    7  C   UNL     1     -42.703 -49.041  12.141  1.00  0.00     0.171 A 
HETATM    8  S   UNL     1     -41.146 -49.282  11.471  1.00  0.00     0.025 SA
HETATM    9  N   UNL     1     -41.488 -48.401  10.098  1.00  0.00    -0.304 N 
HETATM   10  C   UNL     1     -42.743 -47.972  10.236  1.00  0.00     0.152 A 
ATOM     11  HN  UNL     1     -40.863 -48.225   9.312  1.00  0.00     0.176 HD
HETATM   12  N   UNL     1     -43.490 -48.353  11.346  1.00  0.00    -0.315 N 
ATOM     13  HN  UNL     1     -44.472 -48.136  11.512  1.00  0.00     0.170 HD
BRANCH  10  14
HETATM   14  S   UNL     1     -43.451 -46.896   9.043  1.00  0.00    -0.098 SA
HETATM   15  C   UNL     1     -43.449 -47.975   7.590  1.00  0.00     0.099 C 
ENDBRANCH  10  14
ENDBRANCH   1   7
BRANCH   4  16
HETATM   16  C   UNL     1     -45.288 -51.881  15.126  1.00  0.00     0.109 C 
HETATM   17  C   UNL     1     -46.760 -51.428  15.075  1.00  0.00     0.029 C 
HETATM   18  C   UNL     1     -47.542 -51.293  16.381  1.00  0.00     0.006 C 
HETATM   19  C   UNL     1     -46.876 -51.721  17.685  1.00  0.00     0.027 C 
HETATM   20  C   UNL     1     -45.556 -52.399  17.564  1.00  0.00    -0.029 C 
HETATM   21  C   UNL     1     -44.849 -52.465  16.431  1.00  0.00    -0.006 C 
ENDBRANCH   4  16
TORSDOF 3
ENDMDL
MODEL 5
REMARK VINA RESULT:      -5.0      3.394      7.267
REMARK  3 active torsions:
REMARK  status: ('A' for Active; 'I' for Inactive)
REMARK    1  A    between atoms: S_2  and  C_3 
REMARK    2  A    between atoms: C_7  and  N_8 
REMARK       I    between atoms: N_8  and  C_9 
REMARK       I    between atoms: C_9  and  N_11 
REMARK    3  A    between atoms: N_11  and  C_12 
ROOT
HETATM    1  N   UNL     1     -42.000 -51.017  11.929  1.00  0.00    -0.288 N 
HETATM    2  C   UNL     1     -42.752 -49.891  12.144  1.00  0.00     0.322 C 
HETATM    3  O   UNL     1     -43.472 -49.685  13.114  1.00  0.00    -0.247 OA
HETATM    4  N   UNL     1     -42.643 -48.975  11.115  1.00  0.00    -0.335 N 
HETATM    5  H   UNL     1     -41.237 -50.993  11.271  1.00  0.00     0.172 HD
HETATM    6  H   UNL     1     -41.804 -49.006  10.555  1.00  0.00     0.164 HD
ENDROOT
BRANCH   1   7
HETATM    7  C   UNL     1     -42.040 -52.136  12.724  1.00  0.00     0.171 A 
HETATM    8  S   UNL     1     -40.701 -53.175  12.966  1.00  0.00     0.025 SA
HETATM    9  N   UNL     1     -41.538 -54.179  14.001  1.00  0.00    -0.304 N 
HETATM   10  C   UNL     1     -42.770 -53.677  14.089  1.00  0.00     0.152 A 
ATOM     11  HN  UNL     1     -41.179 -55.010  14.472  1.00  0.00     0.176 HD
HETATM   12  N   UNL     1     -43.087 -52.494  13.430  1.00  0.00    -0.315 N 
ATOM     13  HN  UNL     1     -43.974 -51.994  13.486  1.00  0.00     0.170 HD
BRANCH  10  14
HETATM   14  S   UNL     1     -44.012 -54.520  15.001  1.00  0.00    -0.098 SA
HETATM   15  C   UNL     1     -45.204 -54.866  13.685  1.00  0.00     0.099 C 
ENDBRANCH  10  14
ENDBRANCH   1   7
BRANCH   4  16
HETATM   16  C   UNL     1     -43.343 -47.700  11.210  1.00  0.00     0.109 C 
HETATM   17  C   UNL     1     -44.598 -47.647  10.319  1.00  0.00     0.029 C 
HETATM   18  C   UNL     1     -44.587 -46.761   9.072  1.00  0.00     0.006 C 
HETATM   19  C   UNL     1     -43.376 -45.870   8.814  1.00  0.00     0.027 C 
HETATM   20  C   UNL     1     -42.354 -45.809   9.895  1.00  0.00    -0.029 C 
HETATM   21  C   UNL     1     -42.336 -46.624  10.955  1.00  0.00    -0.006 C 
ENDBRANCH   4  16
TORSDOF 3
ENDMDL
MODEL 6
REMARK VINA RESULT:      -5.0      6.325      9.366
REMARK  3 active torsions:
REMARK  status: ('A' for Active; 'I' for Inactive)
REMARK    1  A    between atoms: S_2  and  C_3 
REMARK    2  A    between atoms: C_7  and  N_8 
REMARK       I    between atoms: N_8  and  C_9 
REMARK       I    between atoms: C_9  and  N_11 
REMARK    3  A    between atoms: N_11  and  C_12 
ROOT
HETATM    1  N   UNL     1     -41.654 -54.158  15.775  1.00  0.00    -0.288 N 
HETATM    2  C   UNL     1     -42.875 -54.580  15.319  1.00  0.00     0.322 C 
HETATM    3  O   UNL     1     -43.253 -55.744  15.256  1.00  0.00    -0.247 OA
HETATM    4  N   UNL     1     -43.672 -53.535  14.890  1.00  0.00    -0.335 N 
HETATM    5  H   UNL     1     -41.527 -53.199  16.054  1.00  0.00     0.172 HD
HETATM    6  H   UNL     1     -43.492 -52.624  15.285  1.00  0.00     0.164 HD
ENDROOT
BRANCH   1   7
HETATM    7  C   UNL     1     -40.626 -55.000  16.123  1.00  0.00     0.171 A 
HETATM    8  S   UNL     1     -39.013 -54.802  15.584  1.00  0.00     0.025 SA
HETATM    9  N   UNL     1     -38.460 -56.130  16.427  1.00  0.00    -0.304 N 
HETATM   10  C   UNL     1     -39.523 -56.642  17.048  1.00  0.00     0.152 A 
ATOM     11  HN  UNL     1     -37.503 -56.479  16.460  1.00  0.00     0.176 HD
HETATM   12  N   UNL     1     -40.757 -56.009  16.953  1.00  0.00    -0.315 N 
ATOM     13  HN  UNL     1     -41.611 -56.280  17.440  1.00  0.00     0.170 HD
BRANCH  10  14
HETATM   14  S   UNL     1     -39.385 -58.138  17.959  1.00  0.00    -0.098 SA
HETATM   15  C   UNL     1     -37.751 -57.915  18.705  1.00  0.00     0.099 C 
ENDBRANCH  10  14
ENDBRANCH   1   7
BRANCH   4  16
HETATM   16  C   UNL     1     -45.024 -53.809  14.419  1.00  0.00     0.109 C 
HETATM   17  C   UNL     1     -45.208 -53.474  12.927  1.00  0.00     0.029 C 
HETATM   18  C   UNL     1     -46.058 -52.265  12.536  1.00  0.00     0.006 C 
HETATM   19  C   UNL     1     -46.791 -51.496  13.631  1.00  0.00     0.027 C 
HETATM   20  C   UNL     1     -46.753 -52.088  14.997  1.00  0.00    -0.029 C 
HETATM   21  C   UNL     1     -45.965 -53.109  15.348  1.00  0.00    -0.006 C 
ENDBRANCH   4  16
TORSDOF 3
ENDMDL
MODEL 7
REMARK VINA RESULT:      -4.9      1.710      2.374
REMARK  3 active torsions:
REMARK  status: ('A' for Active; 'I' for Inactive)
REMARK    1  A    between atoms: S_2  and  C_3 
REMARK    2  A    between atoms: C_7  and  N_8 
REMARK       I    between atoms: N_8  and  C_9 
REMARK       I    between atoms: C_9  and  N_11 
REMARK    3  A    between atoms: N_11  and  C_12 
ROOT
HETATM    1  N   UNL     1     -42.316 -48.899  10.808  1.00  0.00    -0.288 N 
HETATM    2  C   UNL     1     -42.357 -49.486  12.046  1.00  0.00     0.322 C 
HETATM    3  O   UNL     1     -42.753 -48.957  13.077  1.00  0.00    -0.247 OA
HETATM    4  N   UNL     1     -41.867 -50.779  12.036  1.00  0.00    -0.335 N 
HETATM    5  H   UNL     1     -42.248 -49.472   9.982  1.00  0.00     0.172 HD
HETATM    6  H   UNL     1     -41.904 -51.281  11.162  1.00  0.00     0.164 HD
ENDROOT
BRANCH   1   7
HETATM    7  C   UNL     1     -42.609 -47.578  10.570  1.00  0.00     0.171 A 
HETATM    8  S   UNL     1     -43.746 -47.055   9.402  1.00  0.00     0.025 SA
HETATM    9  N   UNL     1     -43.523 -45.442   9.758  1.00  0.00    -0.304 N 
HETATM   10  C   UNL     1     -42.601 -45.399  10.721  1.00  0.00     0.152 A 
ATOM     11  HN  UNL     1     -43.995 -44.648   9.326  1.00  0.00     0.176 HD
HETATM   12  N   UNL     1     -42.095 -46.581  11.251  1.00  0.00    -0.315 N 
ATOM     13  HN  UNL     1     -41.442 -46.659  12.030  1.00  0.00     0.170 HD
BRANCH  10  14
HETATM   14  S   UNL     1     -41.991 -43.858  11.301  1.00  0.00    -0.098 SA
HETATM   15  C   UNL     1     -40.781 -44.425  12.520  1.00  0.00     0.099 C 
ENDBRANCH  10  14
ENDBRANCH   1   7
BRANCH   4  16
HETATM   16  C   UNL     1     -41.885 -51.563  13.264  1.00  0.00     0.109 C 
HETATM   17  C   UNL     1     -40.513 -51.599  13.962  1.00  0.00     0.029 C 
HETATM   18  C   UNL     1     -39.711 -52.902  13.959  1.00  0.00     0.006 C 
HETATM   19  C   UNL     1     -40.347 -54.154  13.365  1.00  0.00     0.027 C 
HETATM   20  C   UNL     1     -41.781 -54.051  12.975  1.00  0.00    -0.029 C 
HETATM   21  C   UNL     1     -42.461 -52.901  12.925  1.00  0.00    -0.006 C 
ENDBRANCH   4  16
TORSDOF 3
ENDMDL
MODEL 8
REMARK VINA RESULT:      -4.7      3.617      6.737
REMARK  3 active torsions:
REMARK  status: ('A' for Active; 'I' for Inactive)
REMARK    1  A    between atoms: S_2  and  C_3 
REMARK    2  A    between atoms: C_7  and  N_8 
REMARK       I    between atoms: N_8  and  C_9 
REMARK       I    between atoms: C_9  and  N_11 
REMARK    3  A    between atoms: N_11  and  C_12 
ROOT
HETATM    1  N   UNL     1     -41.586 -50.465  11.729  1.00  0.00    -0.288 N 
HETATM    2  C   UNL     1     -41.741 -49.321  12.467  1.00  0.00     0.322 C 
HETATM    3  O   UNL     1     -42.160 -49.261  13.616  1.00  0.00    -0.247 OA
HETATM    4  N   UNL     1     -41.394 -48.184  11.762  1.00  0.00    -0.335 N 
HETATM    5  H   UNL     1     -40.987 -50.463  10.919  1.00  0.00     0.172 HD
HETATM    6  H   UNL     1     -40.736 -48.292  11.004  1.00  0.00     0.164 HD
ENDROOT
BRANCH   1   7
HETATM    7  C   UNL     1     -41.992 -51.711  12.141  1.00  0.00     0.171 A 
HETATM    8  S   UNL     1     -40.926 -53.031  12.364  1.00  0.00     0.025 SA
HETATM    9  N   UNL     1     -42.140 -54.062  12.856  1.00  0.00    -0.304 N 
HETATM   10  C   UNL     1     -43.269 -53.353  12.809  1.00  0.00     0.152 A 
ATOM     11  HN  UNL     1     -42.040 -55.037  13.136  1.00  0.00     0.176 HD
HETATM   12  N   UNL     1     -43.230 -52.006  12.465  1.00  0.00    -0.315 N 
ATOM     13  HN  UNL     1     -44.021 -51.363  12.464  1.00  0.00     0.170 HD
BRANCH  10  14
HETATM   14  S   UNL     1     -44.814 -54.118  13.143  1.00  0.00    -0.098 SA
HETATM   15  C   UNL     1     -45.935 -52.731  12.838  1.00  0.00     0.099 C 
ENDBRANCH  10  14
ENDBRANCH   1   7
BRANCH   4  16
HETATM   16  C   UNL     1     -41.455 -46.885  12.419  1.00  0.00     0.109 C 
HETATM   17  C   UNL     1     -42.535 -45.968  11.814  1.00  0.00     0.029 C 
HETATM   18  C   UNL     1     -42.103 -44.757  10.986  1.00  0.00     0.006 C 
HETATM   19  C   UNL     1     -40.617 -44.430  10.881  1.00  0.00     0.027 C 
HETATM   20  C   UNL     1     -39.699 -45.230  11.738  1.00  0.00    -0.029 C 
HETATM   21  C   UNL     1     -40.069 -46.322  12.415  1.00  0.00    -0.006 C 
ENDBRANCH   4  16
TORSDOF 3
ENDMDL
MODEL 9
REMARK VINA RESULT:      -4.7      3.766      5.320
REMARK  3 active torsions:
REMARK  status: ('A' for Active; 'I' for Inactive)
REMARK    1  A    between atoms: S_2  and  C_3 
REMARK    2  A    between atoms: C_7  and  N_8 
REMARK       I    between atoms: N_8  and  C_9 
REMARK       I    between atoms: C_9  and  N_11 
REMARK    3  A    between atoms: N_11  and  C_12 
ROOT
HETATM    1  N   UNL     1     -42.212 -49.388  13.411  1.00  0.00    -0.288 N 
HETATM    2  C   UNL     1     -42.920 -50.556  13.308  1.00  0.00     0.322 C 
HETATM    3  O   UNL     1     -42.617 -51.518  12.613  1.00  0.00    -0.247 OA
HETATM    4  N   UNL     1     -44.074 -50.547  14.069  1.00  0.00    -0.335 N 
HETATM    5  H   UNL     1     -42.366 -48.774  14.195  1.00  0.00     0.172 HD
HETATM    6  H   UNL     1     -44.094 -49.933  14.870  1.00  0.00     0.164 HD
ENDROOT
BRANCH   1   7
HETATM    7  C   UNL     1     -41.108 -49.084  12.652  1.00  0.00     0.171 A 
HETATM    8  S   UNL     1     -41.016 -47.726  11.613  1.00  0.00     0.025 SA
HETATM    9  N   UNL     1     -39.456 -48.067  11.136  1.00  0.00    -0.304 N 
HETATM   10  C   UNL     1     -39.109 -49.184  11.778  1.00  0.00     0.152 A 
ATOM     11  HN  UNL     1     -38.883 -47.531  10.486  1.00  0.00     0.176 HD
HETATM   12  N   UNL     1     -39.987 -49.765  12.687  1.00  0.00    -0.315 N 
ATOM     13  HN  UNL     1     -39.794 -50.576  13.274  1.00  0.00     0.170 HD
BRANCH  10  14
HETATM   14  S   UNL     1     -37.562 -49.951  11.455  1.00  0.00    -0.098 SA
HETATM   15  C   UNL     1     -37.405 -50.996  12.924  1.00  0.00     0.099 C 
ENDBRANCH  10  14
ENDBRANCH   1   7
BRANCH   4  16
HETATM   16  C   UNL     1     -44.918 -51.733  14.109  1.00  0.00     0.109 C 
HETATM   17  C   UNL     1     -46.420 -51.389  14.129  1.00  0.00     0.029 C 
HETATM   18  C   UNL     1     -47.219 -51.623  15.411  1.00  0.00     0.006 C 
HETATM   19  C   UNL     1     -46.530 -52.295  16.594  1.00  0.00     0.027 C 
HETATM   20  C   UNL     1     -45.161 -52.829  16.351  1.00  0.00    -0.029 C 
HETATM   21  C   UNL     1     -44.445 -52.574  15.251  1.00  0.00    -0.006 C 
ENDBRANCH   4  16
TORSDOF 3
ENDMDL
