MODEL 1
REMARK VINA RESULT:      -5.8      0.000      0.000
REMARK  6 active torsions:
REMARK  status: ('A' for Active; 'I' for Inactive)
REMARK    1  A    between atoms: O_2  and  C_3 
REMARK    2  A    between atoms: C_3  and  C_4 
REMARK    3  A    between atoms: C_4  and  O_5 
REMARK    4  A    between atoms: O_5  and  C_6 
REMARK    5  A    between atoms: C_9  and  N_10 
REMARK       I    between atoms: N_10  and  C_11 
REMARK    6  A    between atoms: C_11  and  C_13 
ROOT
HETATM    1  C   UNL     1     -41.680 -49.276  11.646  1.00  0.00     0.141 A 
HETATM    2  C   UNL     1     -42.734 -49.194  12.534  1.00  0.00     0.058 A 
HETATM    3  C   UNL     1     -43.200 -50.367  13.121  1.00  0.00     0.035 A 
HETATM    4  C   UNL     1     -42.580 -51.586  12.844  1.00  0.00     0.050 A 
HETATM    5  C   UNL     1     -41.544 -51.561  11.912  1.00  0.00     0.119 A 
HETATM    6  N   UNL     1     -41.079 -50.437  11.308  1.00  0.00    -0.345 N 
ATOM      7  HN  UNL     1     -40.314 -50.469  10.634  1.00  0.00     0.167 HD
ENDROOT
BRANCH   4   8
HETATM    8  N   UNL     1     -42.947 -52.806  13.464  1.00  0.00    -0.326 N 
HETATM    9  C   UNL     1     -43.994 -53.610  13.044  1.00  0.00     0.226 C 
HETATM   10  O   UNL     1     -44.765 -53.316  12.134  1.00  0.00    -0.273 OA
HETATM   11  H   UNL     1     -42.533 -53.006  14.368  1.00  0.00     0.169 HD
BRANCH   9  12
HETATM   12  C   UNL     1     -44.190 -54.896  13.847  1.00  0.00     0.082 C 
HETATM   13  C   UNL     1     -45.646 -55.365  13.896  1.00  0.00     0.040 C 
HETATM   14  C   UNL     1     -46.489 -54.462  14.791  1.00  0.00     0.168 C 
HETATM   15  O   UNL     1     -45.930 -54.386  16.100  1.00  0.00    -0.391 OA
HETATM   16  C   UNL     1     -44.621 -53.817  16.095  1.00  0.00     0.168 C 
HETATM   17  C   UNL     1     -43.670 -54.694  15.284  1.00  0.00     0.040 C 
ENDBRANCH   9  12
ENDBRANCH   4   8
BRANCH   1  18
HETATM   18  O   UNL     1     -41.210 -48.079  11.150  1.00  0.00    -0.334 OA
BRANCH  18  19
HETATM   19  C   UNL     1     -42.058 -47.531  10.141  1.00  0.00     0.203 C 
BRANCH  19  20
HETATM   20  C   UNL     1     -42.215 -46.036  10.394  1.00  0.00     0.193 C 
BRANCH  20  21
HETATM   21  O   UNL     1     -42.808 -45.431   9.244  1.00  0.00    -0.394 OA
HETATM   22  C   UNL     1     -43.797 -46.263   8.659  1.00  0.00     0.201 C 
ENDBRANCH  20  21
ENDBRANCH  19  20
ENDBRANCH  18  19
ENDBRANCH   1  18
TORSDOF 6
ENDMDL
MODEL 2
REMARK VINA RESULT:      -5.6      3.283      7.592
REMARK  6 active torsions:
REMARK  status: ('A' for Active; 'I' for Inactive)
REMARK    1  A    between atoms: O_2  and  C_3 
REMARK    2  A    between atoms: C_3  and  C_4 
REMARK    3  A    between atoms: C_4  and  O_5 
REMARK    4  A    between atoms: O_5  and  C_6 
REMARK    5  A    between atoms: C_9  and  N_10 
REMARK       I    between atoms: N_10  and  C_11 
REMARK    6  A    between atoms: C_11  and  C_13 
ROOT
HETATM    1  C   UNL     1     -43.739 -53.847  12.761  1.00  0.00     0.141 A 
HETATM    2  C   UNL     1     -42.872 -54.498  13.616  1.00  0.00     0.058 A 
HETATM    3  C   UNL     1     -41.558 -54.046  13.698  1.00  0.00     0.035 A 
HETATM    4  C   UNL     1     -41.151 -52.933  12.962  1.00  0.00     0.050 A 
HETATM    5  C   UNL     1     -42.097 -52.368  12.110  1.00  0.00     0.119 A 
HETATM    6  N   UNL     1     -43.380 -52.797  11.992  1.00  0.00    -0.345 N 
ATOM      7  HN  UNL     1     -44.038 -52.348  11.356  1.00  0.00     0.167 HD
ENDROOT
BRANCH   4   8
HETATM    8  N   UNL     1     -39.854 -52.368  13.056  1.00  0.00    -0.326 N 
HETATM    9  C   UNL     1     -39.403 -51.631  14.139  1.00  0.00     0.226 C 
HETATM   10  O   UNL     1     -40.100 -51.324  15.102  1.00  0.00    -0.273 OA
HETATM   11  H   UNL     1     -39.295 -52.354  12.212  1.00  0.00     0.169 HD
BRANCH   9  12
HETATM   12  C   UNL     1     -37.956 -51.143  14.037  1.00  0.00     0.082 C 
HETATM   13  C   UNL     1     -37.603 -50.071  15.070  1.00  0.00     0.040 C 
HETATM   14  C   UNL     1     -38.268 -48.740  14.738  1.00  0.00     0.168 C 
HETATM   15  O   UNL     1     -37.920 -48.318  13.421  1.00  0.00    -0.391 OA
HETATM   16  C   UNL     1     -38.367 -49.237  12.424  1.00  0.00     0.168 C 
HETATM   17  C   UNL     1     -37.695 -50.593  12.621  1.00  0.00     0.040 C 
ENDBRANCH   9  12
ENDBRANCH   4   8
BRANCH   1  18
HETATM   18  O   UNL     1     -45.046 -54.287  12.772  1.00  0.00    -0.334 OA
BRANCH  18  19
HETATM   19  C   UNL     1     -45.335 -55.124  13.892  1.00  0.00     0.203 C 
BRANCH  19  20
HETATM   20  C   UNL     1     -46.385 -54.437  14.758  1.00  0.00     0.193 C 
BRANCH  20  21
HETATM   21  O   UNL     1     -46.017 -54.575  16.131  1.00  0.00    -0.394 OA
HETATM   22  C   UNL     1     -44.931 -53.729  16.475  1.00  0.00     0.201 C 
ENDBRANCH  20  21
ENDBRANCH  19  20
ENDBRANCH  18  19
ENDBRANCH   1  18
TORSDOF 6
ENDMDL
MODEL 3
REMARK VINA RESULT:      -5.3      2.732      7.279
REMARK  6 active torsions:
REMARK  status: ('A' for Active; 'I' for Inactive)
REMARK    1  A    between atoms: O_2  and  C_3 
REMARK    2  A    between atoms: C_3  and  C_4 
REMARK    3  A    between atoms: C_4  and  O_5 
REMARK    4  A    between atoms: O_5  and  C_6 
REMARK    5  A    between atoms: C_9  and  N_10 
REMARK       I    between atoms: N_10  and  C_11 
REMARK    6  A    between atoms: C_11  and  C_13 
ROOT
HETATM    1  C   UNL     1     -43.350 -54.436  13.786  1.00  0.00     0.141 A 
HETATM    2  C   UNL     1     -42.126 -54.366  14.420  1.00  0.00     0.058 A 
HETATM    3  C   UNL     1     -41.132 -53.571  13.856  1.00  0.00     0.035 A 
HETATM    4  C   UNL     1     -41.394 -52.833  12.701  1.00  0.00     0.050 A 
HETATM    5  C   UNL     1     -42.652 -52.999  12.127  1.00  0.00     0.119 A 
HETATM    6  N   UNL     1     -43.636 -53.780  12.640  1.00  0.00    -0.345 N 
ATOM      7  HN  UNL     1     -44.544 -53.867  12.185  1.00  0.00     0.167 HD
ENDROOT
BRANCH   4   8
HETATM    8  N   UNL     1     -40.459 -51.941  12.117  1.00  0.00    -0.326 N 
HETATM    9  C   UNL     1     -40.557 -50.560  12.177  1.00  0.00     0.226 C 
HETATM   10  O   UNL     1     -41.503 -49.959  12.679  1.00  0.00    -0.273 OA
HETATM   11  H   UNL     1     -39.785 -52.337  11.473  1.00  0.00     0.169 HD
BRANCH   9  12
HETATM   12  C   UNL     1     -39.418 -49.797  11.500  1.00  0.00     0.082 C 
HETATM   13  C   UNL     1     -38.033 -50.362  11.826  1.00  0.00     0.040 C 
HETATM   14  C   UNL     1     -37.631 -50.050  13.263  1.00  0.00     0.168 C 
HETATM   15  O   UNL     1     -37.684 -48.647  13.508  1.00  0.00    -0.391 OA
HETATM   16  C   UNL     1     -39.002 -48.121  13.349  1.00  0.00     0.168 C 
HETATM   17  C   UNL     1     -39.473 -48.312  11.910  1.00  0.00     0.040 C 
ENDBRANCH   9  12
ENDBRANCH   4   8
BRANCH   1  18
HETATM   18  O   UNL     1     -44.321 -55.178  14.424  1.00  0.00    -0.334 OA
BRANCH  18  19
HETATM   19  C   UNL     1     -45.628 -54.937  13.901  1.00  0.00     0.203 C 
BRANCH  19  20
HETATM   20  C   UNL     1     -46.301 -53.859  14.744  1.00  0.00     0.193 C 
BRANCH  20  21
HETATM   21  O   UNL     1     -46.261 -52.622  14.031  1.00  0.00    -0.394 OA
HETATM   22  C   UNL     1     -46.829 -51.560  14.782  1.00  0.00     0.201 C 
ENDBRANCH  20  21
ENDBRANCH  19  20
ENDBRANCH  18  19
ENDBRANCH   1  18
TORSDOF 6
ENDMDL
MODEL 4
REMARK VINA RESULT:      -5.1      2.839      3.698
REMARK  6 active torsions:
REMARK  status: ('A' for Active; 'I' for Inactive)
REMARK    1  A    between atoms: O_2  and  C_3 
REMARK    2  A    between atoms: C_3  and  C_4 
REMARK    3  A    between atoms: C_4  and  O_5 
REMARK    4  A    between atoms: O_5  and  C_6 
REMARK    5  A    between atoms: C_9  and  N_10 
REMARK       I    between atoms: N_10  and  C_11 
REMARK    6  A    between atoms: C_11  and  C_13 
ROOT
HETATM    1  C   UNL     1     -39.245 -51.736  12.905  1.00  0.00     0.141 A 
HETATM    2  C   UNL     1     -39.727 -52.324  14.058  1.00  0.00     0.058 A 
HETATM    3  C   UNL     1     -41.086 -52.614  14.136  1.00  0.00     0.035 A 
HETATM    4  C   UNL     1     -41.924 -52.352  13.051  1.00  0.00     0.050 A 
HETATM    5  C   UNL     1     -41.341 -51.733  11.948  1.00  0.00     0.119 A 
HETATM    6  N   UNL     1     -40.024 -51.419  11.848  1.00  0.00    -0.345 N 
ATOM      7  HN  UNL     1     -39.642 -50.968  11.017  1.00  0.00     0.167 HD
ENDROOT
BRANCH   4   8
HETATM    8  N   UNL     1     -43.299 -52.694  13.028  1.00  0.00    -0.326 N 
HETATM    9  C   UNL     1     -44.330 -51.792  13.237  1.00  0.00     0.226 C 
HETATM   10  O   UNL     1     -44.163 -50.613  13.537  1.00  0.00    -0.273 OA
HETATM   11  H   UNL     1     -43.529 -53.681  13.037  1.00  0.00     0.169 HD
BRANCH   9  12
HETATM   12  C   UNL     1     -45.739 -52.380  13.138  1.00  0.00     0.082 C 
HETATM   13  C   UNL     1     -46.816 -51.479  13.747  1.00  0.00     0.040 C 
HETATM   14  C   UNL     1     -46.731 -51.466  15.269  1.00  0.00     0.168 C 
HETATM   15  O   UNL     1     -46.815 -52.790  15.790  1.00  0.00    -0.391 OA
HETATM   16  C   UNL     1     -45.736 -53.613  15.347  1.00  0.00     0.168 C 
HETATM   17  C   UNL     1     -45.775 -53.757  13.828  1.00  0.00     0.040 C 
ENDBRANCH   9  12
ENDBRANCH   4   8
BRANCH   1  18
HETATM   18  O   UNL     1     -37.882 -51.538  12.850  1.00  0.00    -0.334 OA
BRANCH  18  19
HETATM   19  C   UNL     1     -37.523 -50.416  12.043  1.00  0.00     0.203 C 
BRANCH  19  20
HETATM   20  C   UNL     1     -37.858 -49.138  12.804  1.00  0.00     0.193 C 
BRANCH  20  21
HETATM   21  O   UNL     1     -38.908 -48.453  12.121  1.00  0.00    -0.394 OA
HETATM   22  C   UNL     1     -39.519 -47.470  12.942  1.00  0.00     0.201 C 
ENDBRANCH  20  21
ENDBRANCH  19  20
ENDBRANCH  18  19
ENDBRANCH   1  18
TORSDOF 6
ENDMDL
MODEL 5
REMARK VINA RESULT:      -5.0      1.844      7.713
REMARK  6 active torsions:
REMARK  status: ('A' for Active; 'I' for Inactive)
REMARK    1  A    between atoms: O_2  and  C_3 
REMARK    2  A    between atoms: C_3  and  C_4 
REMARK    3  A    between atoms: C_4  and  O_5 
REMARK    4  A    between atoms: O_5  and  C_6 
REMARK    5  A    between atoms: C_9  and  N_10 
REMARK       I    between atoms: N_10  and  C_11 
REMARK    6  A    between atoms: C_11  and  C_13 
ROOT
HETATM    1  C   UNL     1     -43.057 -52.612  12.426  1.00  0.00     0.141 A 
HETATM    2  C   UNL     1     -43.533 -51.521  13.125  1.00  0.00     0.058 A 
HETATM    3  C   UNL     1     -42.782 -50.348  13.116  1.00  0.00     0.035 A 
HETATM    4  C   UNL     1     -41.600 -50.277  12.377  1.00  0.00     0.050 A 
HETATM    5  C   UNL     1     -41.197 -51.443  11.731  1.00  0.00     0.119 A 
HETATM    6  N   UNL     1     -41.895 -52.607  11.737  1.00  0.00    -0.345 N 
ATOM      7  HN  UNL     1     -41.560 -53.436  11.245  1.00  0.00     0.167 HD
ENDROOT
BRANCH   4   8
HETATM    8  N   UNL     1     -40.828 -49.095  12.255  1.00  0.00    -0.326 N 
HETATM    9  C   UNL     1     -40.993 -48.156  11.249  1.00  0.00     0.226 C 
HETATM   10  O   UNL     1     -41.775 -48.283  10.311  1.00  0.00    -0.273 OA
HETATM   11  H   UNL     1     -39.997 -49.025  12.831  1.00  0.00     0.169 HD
BRANCH   9  12
HETATM   12  C   UNL     1     -40.066 -46.943  11.333  1.00  0.00     0.082 C 
HETATM   13  C   UNL     1     -39.742 -46.525  12.769  1.00  0.00     0.040 C 
HETATM   14  C   UNL     1     -40.948 -45.879  13.443  1.00  0.00     0.168 C 
HETATM   15  O   UNL     1     -41.418 -44.771  12.680  1.00  0.00    -0.391 OA
HETATM   16  C   UNL     1     -41.861 -45.161  11.379  1.00  0.00     0.168 C 
HETATM   17  C   UNL     1     -40.700 -45.753  10.586  1.00  0.00     0.040 C 
ENDBRANCH   9  12
ENDBRANCH   4   8
BRANCH   1  18
HETATM   18  O   UNL     1     -43.873 -53.723  12.407  1.00  0.00    -0.334 OA
BRANCH  18  19
HETATM   19  C   UNL     1     -43.970 -54.355  13.683  1.00  0.00     0.203 C 
BRANCH  19  20
HETATM   20  C   UNL     1     -45.370 -54.940  13.834  1.00  0.00     0.193 C 
BRANCH  20  21
HETATM   21  O   UNL     1     -46.277 -53.891  14.174  1.00  0.00    -0.394 OA
HETATM   22  C   UNL     1     -46.044 -53.392  15.482  1.00  0.00     0.201 C 
ENDBRANCH  20  21
ENDBRANCH  19  20
ENDBRANCH  18  19
ENDBRANCH   1  18
TORSDOF 6
ENDMDL
MODEL 6
REMARK VINA RESULT:      -4.9      2.716      8.101
REMARK  6 active torsions:
REMARK  status: ('A' for Active; 'I' for Inactive)
REMARK    1  A    between atoms: O_2  and  C_3 
REMARK    2  A    between atoms: C_3  and  C_4 
REMARK    3  A    between atoms: C_4  and  O_5 
REMARK    4  A    between atoms: O_5  and  C_6 
REMARK    5  A    between atoms: C_9  and  N_10 
REMARK       I    between atoms: N_10  and  C_11 
REMARK    6  A    between atoms: C_11  and  C_13 
ROOT
HETATM    1  C   UNL     1     -39.979 -51.613  12.245  1.00  0.00     0.141 A 
HETATM    2  C   UNL     1     -38.942 -50.939  12.858  1.00  0.00     0.058 A 
HETATM    3  C   UNL     1     -38.756 -49.593  12.556  1.00  0.00     0.035 A 
HETATM    4  C   UNL     1     -39.632 -48.940  11.687  1.00  0.00     0.050 A 
HETATM    5  C   UNL     1     -40.627 -49.720  11.103  1.00  0.00     0.119 A 
HETATM    6  N   UNL     1     -40.823 -51.038  11.360  1.00  0.00    -0.345 N 
ATOM      7  HN  UNL     1     -41.569 -51.568  10.910  1.00  0.00     0.167 HD
ENDROOT
BRANCH   4   8
HETATM    8  N   UNL     1     -39.553 -47.555  11.397  1.00  0.00    -0.326 N 
HETATM    9  C   UNL     1     -39.902 -46.552  12.287  1.00  0.00     0.226 C 
HETATM   10  O   UNL     1     -40.386 -46.754  13.397  1.00  0.00    -0.273 OA
HETATM   11  H   UNL     1     -39.405 -47.294  10.429  1.00  0.00     0.169 HD
BRANCH   9  12
HETATM   12  C   UNL     1     -39.709 -45.126  11.768  1.00  0.00     0.082 C 
HETATM   13  C   UNL     1     -40.070 -44.052  12.797  1.00  0.00     0.040 C 
HETATM   14  C   UNL     1     -41.579 -43.968  13.003  1.00  0.00     0.168 C 
HETATM   15  O   UNL     1     -42.244 -43.736  11.764  1.00  0.00    -0.391 OA
HETATM   16  C   UNL     1     -42.037 -44.799  10.834  1.00  0.00     0.168 C 
HETATM   17  C   UNL     1     -40.554 -44.919  10.496  1.00  0.00     0.040 C 
ENDBRANCH   9  12
ENDBRANCH   4   8
BRANCH   1  18
HETATM   18  O   UNL     1     -40.165 -52.923  12.634  1.00  0.00    -0.334 OA
BRANCH  18  19
HETATM   19  C   UNL     1     -41.067 -53.047  13.733  1.00  0.00     0.203 C 
BRANCH  19  20
HETATM   20  C   UNL     1     -42.293 -53.827  13.274  1.00  0.00     0.193 C 
BRANCH  20  21
HETATM   21  O   UNL     1     -43.071 -53.001  12.408  1.00  0.00    -0.394 OA
HETATM   22  C   UNL     1     -43.897 -52.103  13.133  1.00  0.00     0.201 C 
ENDBRANCH  20  21
ENDBRANCH  19  20
ENDBRANCH  18  19
ENDBRANCH   1  18
TORSDOF 6
ENDMDL
MODEL 7
REMARK VINA RESULT:      -4.8      2.647      3.622
REMARK  6 active torsions:
REMARK  status: ('A' for Active; 'I' for Inactive)
REMARK    1  A    between atoms: O_2  and  C_3 
REMARK    2  A    between atoms: C_3  and  C_4 
REMARK    3  A    between atoms: C_4  and  O_5 
REMARK    4  A    between atoms: O_5  and  C_6 
REMARK    5  A    between atoms: C_9  and  N_10 
REMARK       I    between atoms: N_10  and  C_11 
REMARK    6  A    between atoms: C_11  and  C_13 
ROOT
HETATM    1  C   UNL     1     -40.352 -46.748  11.717  1.00  0.00     0.141 A 
HETATM    2  C   UNL     1     -40.538 -47.303  12.967  1.00  0.00     0.058 A 
HETATM    3  C   UNL     1     -41.111 -48.568  13.053  1.00  0.00     0.035 A 
HETATM    4  C   UNL     1     -41.445 -49.268  11.893  1.00  0.00     0.050 A 
HETATM    5  C   UNL     1     -41.242 -48.605  10.684  1.00  0.00     0.119 A 
HETATM    6  N   UNL     1     -40.703 -47.365  10.568  1.00  0.00    -0.345 N 
ATOM      7  HN  UNL     1     -40.571 -46.922   9.659  1.00  0.00     0.167 HD
ENDROOT
BRANCH   4   8
HETATM    8  N   UNL     1     -41.956 -50.590  11.900  1.00  0.00    -0.326 N 
HETATM    9  C   UNL     1     -41.187 -51.721  12.121  1.00  0.00     0.226 C 
HETATM   10  O   UNL     1     -39.968 -51.708  12.260  1.00  0.00    -0.273 OA
HETATM   11  H   UNL     1     -42.898 -50.722  11.549  1.00  0.00     0.169 HD
BRANCH   9  12
HETATM   12  C   UNL     1     -41.957 -53.043  12.112  1.00  0.00     0.082 C 
HETATM   13  C   UNL     1     -43.409 -52.902  12.577  1.00  0.00     0.040 C 
HETATM   14  C   UNL     1     -43.488 -52.656  14.080  1.00  0.00     0.168 C 
HETATM   15  O   UNL     1     -42.817 -53.690  14.796  1.00  0.00    -0.391 OA
HETATM   16  C   UNL     1     -41.425 -53.748  14.483  1.00  0.00     0.168 C 
HETATM   17  C   UNL     1     -41.233 -54.070  13.004  1.00  0.00     0.040 C 
ENDBRANCH   9  12
ENDBRANCH   4   8
BRANCH   1  18
HETATM   18  O   UNL     1     -39.714 -45.527  11.684  1.00  0.00    -0.334 OA
BRANCH  18  19
HETATM   19  C   UNL     1     -40.226 -44.667  10.665  1.00  0.00     0.203 C 
BRANCH  19  20
HETATM   20  C   UNL     1     -41.331 -43.804  11.264  1.00  0.00     0.193 C 
BRANCH  20  21
HETATM   21  O   UNL     1     -40.852 -43.205  12.468  1.00  0.00    -0.394 OA
HETATM   22  C   UNL     1     -40.293 -41.922  12.235  1.00  0.00     0.201 C 
ENDBRANCH  20  21
ENDBRANCH  19  20
ENDBRANCH  18  19
ENDBRANCH   1  18
TORSDOF 6
ENDMDL
MODEL 8
REMARK VINA RESULT:      -4.7      4.052      7.430
REMARK  6 active torsions:
REMARK  status: ('A' for Active; 'I' for Inactive)
REMARK    1  A    between atoms: O_2  and  C_3 
REMARK    2  A    between atoms: C_3  and  C_4 
REMARK    3  A    between atoms: C_4  and  O_5 
REMARK    4  A    between atoms: O_5  and  C_6 
REMARK    5  A    between atoms: C_9  and  N_10 
REMARK       I    between atoms: N_10  and  C_11 
REMARK    6  A    between atoms: C_11  and  C_13 
ROOT
HETATM    1  C   UNL     1     -46.874 -52.180  15.744  1.00  0.00     0.141 A 
HETATM    2  C   UNL     1     -46.317 -51.248  14.892  1.00  0.00     0.058 A 
HETATM    3  C   UNL     1     -45.148 -51.585  14.214  1.00  0.00     0.035 A 
HETATM    4  C   UNL     1     -44.588 -52.854  14.369  1.00  0.00     0.050 A 
HETATM    5  C   UNL     1     -45.214 -53.706  15.275  1.00  0.00     0.119 A 
HETATM    6  N   UNL     1     -46.343 -53.402  15.965  1.00  0.00    -0.345 N 
ATOM      7  HN  UNL     1     -46.768 -54.062  16.616  1.00  0.00     0.167 HD
ENDROOT
BRANCH   4   8
HETATM    8  N   UNL     1     -43.448 -53.294  13.651  1.00  0.00    -0.326 N 
HETATM    9  C   UNL     1     -42.222 -53.577  14.233  1.00  0.00     0.226 C 
HETATM   10  O   UNL     1     -41.970 -53.407  15.423  1.00  0.00    -0.273 OA
HETATM   11  H   UNL     1     -43.484 -53.225  12.641  1.00  0.00     0.169 HD
BRANCH   9  12
HETATM   12  C   UNL     1     -41.141 -54.066  13.268  1.00  0.00     0.082 C 
HETATM   13  C   UNL     1     -39.775 -54.254  13.932  1.00  0.00     0.040 C 
HETATM   14  C   UNL     1     -39.131 -52.912  14.263  1.00  0.00     0.168 C 
HETATM   15  O   UNL     1     -39.026 -52.102  13.095  1.00  0.00    -0.391 OA
HETATM   16  C   UNL     1     -40.304 -51.793  12.537  1.00  0.00     0.168 C 
HETATM   17  C   UNL     1     -41.007 -53.074  12.096  1.00  0.00     0.040 C 
ENDBRANCH   9  12
ENDBRANCH   4   8
BRANCH   1  18
HETATM   18  O   UNL     1     -48.069 -51.824  16.333  1.00  0.00    -0.334 OA
BRANCH  18  19
HETATM   19  C   UNL     1     -47.899 -50.897  17.405  1.00  0.00     0.203 C 
BRANCH  19  20
HETATM   20  C   UNL     1     -48.303 -51.577  18.709  1.00  0.00     0.193 C 
BRANCH  20  21
HETATM   21  O   UNL     1     -47.424 -52.677  18.950  1.00  0.00    -0.394 OA
HETATM   22  C   UNL     1     -47.239 -52.913  20.337  1.00  0.00     0.201 C 
ENDBRANCH  20  21
ENDBRANCH  19  20
ENDBRANCH  18  19
ENDBRANCH   1  18
TORSDOF 6
ENDMDL
MODEL 9
REMARK VINA RESULT:      -4.7      3.573      7.240
REMARK  6 active torsions:
REMARK  status: ('A' for Active; 'I' for Inactive)
REMARK    1  A    between atoms: O_2  and  C_3 
REMARK    2  A    between atoms: C_3  and  C_4 
REMARK    3  A    between atoms: C_4  and  O_5 
REMARK    4  A    between atoms: O_5  and  C_6 
REMARK    5  A    between atoms: C_9  and  N_10 
REMARK       I    between atoms: N_10  and  C_11 
REMARK    6  A    between atoms: C_11  and  C_13 
ROOT
HETATM    1  C   UNL     1     -46.822 -51.905  15.691  1.00  0.00     0.141 A 
HETATM    2  C   UNL     1     -46.861 -51.349  14.428  1.00  0.00     0.058 A 
HETATM    3  C   UNL     1     -45.757 -51.514  13.597  1.00  0.00     0.035 A 
HETATM    4  C   UNL     1     -44.661 -52.264  14.026  1.00  0.00     0.050 A 
HETATM    5  C   UNL     1     -44.713 -52.757  15.327  1.00  0.00     0.119 A 
HETATM    6  N   UNL     1     -45.765 -52.597  16.170  1.00  0.00    -0.345 N 
ATOM      7  HN  UNL     1     -45.759 -52.980  17.115  1.00  0.00     0.167 HD
ENDROOT
BRANCH   4   8
HETATM    8  N   UNL     1     -43.539 -52.542  13.206  1.00  0.00    -0.326 N 
HETATM    9  C   UNL     1     -42.474 -51.674  13.022  1.00  0.00     0.226 C 
HETATM   10  O   UNL     1     -42.422 -50.541  13.490  1.00  0.00    -0.273 OA
HETATM   11  H   UNL     1     -43.608 -53.340  12.585  1.00  0.00     0.169 HD
BRANCH   9  12
HETATM   12  C   UNL     1     -41.358 -52.196  12.115  1.00  0.00     0.082 C 
HETATM   13  C   UNL     1     -40.954 -53.640  12.421  1.00  0.00     0.040 C 
HETATM   14  C   UNL     1     -40.180 -53.732  13.732  1.00  0.00     0.168 C 
HETATM   15  O   UNL     1     -39.042 -52.874  13.707  1.00  0.00    -0.391 OA
HETATM   16  C   UNL     1     -39.405 -51.501  13.564  1.00  0.00     0.168 C 
HETATM   17  C   UNL     1     -40.123 -51.283  12.235  1.00  0.00     0.040 C 
ENDBRANCH   9  12
ENDBRANCH   4   8
BRANCH   1  18
HETATM   18  O   UNL     1     -47.968 -51.776  16.447  1.00  0.00    -0.334 OA
BRANCH  18  19
HETATM   19  C   UNL     1     -47.693 -51.538  17.827  1.00  0.00     0.203 C 
BRANCH  19  20
HETATM   20  C   UNL     1     -48.141 -50.123  18.179  1.00  0.00     0.193 C 
BRANCH  20  21
HETATM   21  O   UNL     1     -48.625 -50.111  19.522  1.00  0.00    -0.394 OA
HETATM   22  C   UNL     1     -49.132 -51.377  19.914  1.00  0.00     0.201 C 
ENDBRANCH  20  21
ENDBRANCH  19  20
ENDBRANCH  18  19
ENDBRANCH   1  18
TORSDOF 6
ENDMDL
