MODEL 1
REMARK VINA RESULT:      -6.7      0.000      0.000
REMARK  5 active torsions:
REMARK  status: ('A' for Active; 'I' for Inactive)
REMARK    1  A    between atoms: N_2  and  C_4 
REMARK    2  A    between atoms: N_7  and  C_8 
REMARK    3  A    between atoms: C_8  and  C_9 
REMARK    4  A    between atoms: C_9  and  N_10 
REMARK       I    between atoms: N_10  and  C_11 
REMARK       I    between atoms: C_11  and  N_13 
REMARK    5  A    between atoms: N_13  and  C_14 
ROOT
HETATM    1  N   UNL     1     -40.463 -51.156  11.386  1.00  0.00    -0.341 N 
HETATM    2  C   UNL     1     -40.850 -49.843  11.520  1.00  0.00     0.321 C 
HETATM    3  O   UNL     1     -41.006 -49.297  12.603  1.00  0.00    -0.247 OA
HETATM    4  N   UNL     1     -41.104 -49.285  10.289  1.00  0.00    -0.295 N 
HETATM    5  H   UNL     1     -39.824 -51.319  10.618  1.00  0.00     0.164 HD
HETATM    6  H   UNL     1     -41.525 -49.925   9.633  1.00  0.00     0.172 HD
ENDROOT
BRANCH   1   7
HETATM    7  C   UNL     1     -40.307 -51.997  12.565  1.00  0.00     0.154 C 
BRANCH   7   8
HETATM    8  C   UNL     1     -41.361 -53.127  12.611  1.00  0.00     0.292 C 
BRANCH   8   9
HETATM    9  N   UNL     1     -42.169 -53.169  13.844  1.00  0.00     0.090 N 
HETATM   10  C   UNL     1     -43.205 -54.210  13.861  1.00  0.00     0.274 C 
HETATM   11  C   UNL     1     -44.374 -53.918  12.916  1.00  0.00     0.066 C 
HETATM   12  C   UNL     1     -45.077 -52.589  13.278  1.00  0.00     0.225 C 
HETATM   13  C   UNL     1     -43.972 -51.503  13.244  1.00  0.00     0.066 C 
HETATM   14  C   UNL     1     -42.775 -51.856  14.139  1.00  0.00     0.274 C 
BRANCH  12  15
HETATM   15  N   UNL     1     -45.812 -52.638  14.575  1.00  0.00     0.084 N 
HETATM   16  C   UNL     1     -46.627 -51.435  14.795  1.00  0.00     0.309 C 
HETATM   17  C   UNL     1     -46.699 -53.805  14.676  1.00  0.00     0.309 C 
ENDBRANCH  12  15
ENDBRANCH   8   9
ENDBRANCH   7   8
ENDBRANCH   1   7
BRANCH   4  18
HETATM   18  C   UNL     1     -41.654 -48.005  10.182  1.00  0.00     0.109 A 
HETATM   19  C   UNL     1     -42.922 -47.797   9.657  1.00  0.00     0.055 A 
HETATM   20  C   UNL     1     -43.394 -46.492   9.545  1.00  0.00    -0.057 A 
HETATM   21  C   UNL     1     -44.765 -46.204   9.013  1.00  0.00     0.048 C 
HETATM   22  C   UNL     1     -42.546 -45.446   9.915  1.00  0.00     0.031 A 
HETATM   23  C   UNL     1     -41.289 -45.745  10.437  1.00  0.00     0.007 A 
HETATM   24  C   UNL     1     -40.305 -44.659  10.748  1.00  0.00     0.068 C 
HETATM   25  N   UNL     1     -40.857 -47.013  10.623  1.00  0.00    -0.346 N 
ATOM     26  HN  UNL     1     -39.966 -47.209  11.077  1.00  0.00     0.167 HD
ENDBRANCH   4  18
TORSDOF 5
ENDMDL
MODEL 2
REMARK VINA RESULT:      -6.4      0.650      1.807
REMARK  5 active torsions:
REMARK  status: ('A' for Active; 'I' for Inactive)
REMARK    1  A    between atoms: N_2  and  C_4 
REMARK    2  A    between atoms: N_7  and  C_8 
REMARK    3  A    between atoms: C_8  and  C_9 
REMARK    4  A    between atoms: C_9  and  N_10 
REMARK       I    between atoms: N_10  and  C_11 
REMARK       I    between atoms: C_11  and  N_13 
REMARK    5  A    between atoms: N_13  and  C_14 
ROOT
HETATM    1  N   UNL     1     -40.286 -51.269  11.674  1.00  0.00    -0.341 N 
HETATM    2  C   UNL     1     -40.779 -49.989  11.781  1.00  0.00     0.321 C 
HETATM    3  O   UNL     1     -41.117 -49.488  12.844  1.00  0.00    -0.247 OA
HETATM    4  N   UNL     1     -40.901 -49.411  10.539  1.00  0.00    -0.295 N 
HETATM    5  H   UNL     1     -39.540 -51.367  10.997  1.00  0.00     0.164 HD
HETATM    6  H   UNL     1     -41.185 -50.057   9.819  1.00  0.00     0.172 HD
ENDROOT
BRANCH   1   7
HETATM    7  C   UNL     1     -40.234 -52.133  12.845  1.00  0.00     0.154 C 
BRANCH   7   8
HETATM    8  C   UNL     1     -41.339 -53.214  12.814  1.00  0.00     0.292 C 
BRANCH   8   9
HETATM    9  N   UNL     1     -42.203 -53.249  14.009  1.00  0.00     0.090 N 
HETATM   10  C   UNL     1     -43.238 -54.291  13.985  1.00  0.00     0.274 C 
HETATM   11  C   UNL     1     -44.362 -54.006  12.985  1.00  0.00     0.066 C 
HETATM   12  C   UNL     1     -45.082 -52.676  13.304  1.00  0.00     0.225 C 
HETATM   13  C   UNL     1     -43.978 -51.590  13.314  1.00  0.00     0.066 C 
HETATM   14  C   UNL     1     -42.824 -51.934  14.266  1.00  0.00     0.274 C 
BRANCH  12  15
HETATM   15  N   UNL     1     -45.877 -52.717  14.566  1.00  0.00     0.084 N 
HETATM   16  C   UNL     1     -46.691 -51.507  14.746  1.00  0.00     0.309 C 
HETATM   17  C   UNL     1     -46.777 -53.877  14.628  1.00  0.00     0.309 C 
ENDBRANCH  12  15
ENDBRANCH   8   9
ENDBRANCH   7   8
ENDBRANCH   1   7
BRANCH   4  18
HETATM   18  C   UNL     1     -41.519 -48.168  10.385  1.00  0.00     0.109 A 
HETATM   19  C   UNL     1     -40.900 -46.991  10.782  1.00  0.00     0.055 A 
HETATM   20  C   UNL     1     -41.589 -45.789  10.635  1.00  0.00    -0.057 A 
HETATM   21  C   UNL     1     -40.963 -44.483  11.018  1.00  0.00     0.048 C 
HETATM   22  C   UNL     1     -42.896 -45.831  10.144  1.00  0.00     0.031 A 
HETATM   23  C   UNL     1     -43.440 -47.056   9.766  1.00  0.00     0.007 A 
HETATM   24  C   UNL     1     -44.870 -47.165   9.336  1.00  0.00     0.068 C 
HETATM   25  N   UNL     1     -42.746 -48.216   9.832  1.00  0.00    -0.346 N 
ATOM     26  HN  UNL     1     -43.136 -49.089   9.478  1.00  0.00     0.167 HD
ENDBRANCH   4  18
TORSDOF 5
ENDMDL
MODEL 3
REMARK VINA RESULT:      -6.2      1.937      7.988
REMARK  5 active torsions:
REMARK  status: ('A' for Active; 'I' for Inactive)
REMARK    1  A    between atoms: N_2  and  C_4 
REMARK    2  A    between atoms: N_7  and  C_8 
REMARK    3  A    between atoms: C_8  and  C_9 
REMARK    4  A    between atoms: C_9  and  N_10 
REMARK       I    between atoms: N_10  and  C_11 
REMARK       I    between atoms: C_11  and  N_13 
REMARK    5  A    between atoms: N_13  and  C_14 
ROOT
HETATM    1  N   UNL     1     -40.836 -50.922  11.067  1.00  0.00    -0.341 N 
HETATM    2  C   UNL     1     -41.516 -51.463  12.134  1.00  0.00     0.321 C 
HETATM    3  O   UNL     1     -41.721 -50.855  13.175  1.00  0.00    -0.247 OA
HETATM    4  N   UNL     1     -41.845 -52.774  11.884  1.00  0.00    -0.295 N 
HETATM    5  H   UNL     1     -41.214 -51.184  10.164  1.00  0.00     0.164 HD
HETATM    6  H   UNL     1     -41.144 -53.275  11.360  1.00  0.00     0.172 HD
ENDROOT
BRANCH   1   7
HETATM    7  C   UNL     1     -40.239 -49.599  11.175  1.00  0.00     0.154 C 
BRANCH   7   8
HETATM    8  C   UNL     1     -41.237 -48.482  10.793  1.00  0.00     0.292 C 
BRANCH   8   9
HETATM    9  N   UNL     1     -41.489 -47.489  11.854  1.00  0.00     0.090 N 
HETATM   10  C   UNL     1     -42.659 -46.632  11.624  1.00  0.00     0.274 C 
HETATM   11  C   UNL     1     -42.453 -45.612  10.500  1.00  0.00     0.066 C 
HETATM   12  C   UNL     1     -41.266 -44.669  10.801  1.00  0.00     0.225 C 
HETATM   13  C   UNL     1     -40.041 -45.589  11.030  1.00  0.00     0.066 C 
HETATM   14  C   UNL     1     -40.299 -46.653  12.106  1.00  0.00     0.274 C 
BRANCH  12  15
HETATM   15  N   UNL     1     -41.520 -43.737  11.937  1.00  0.00     0.084 N 
HETATM   16  C   UNL     1     -40.351 -42.899  12.238  1.00  0.00     0.309 C 
HETATM   17  C   UNL     1     -42.660 -42.843  11.690  1.00  0.00     0.309 C 
ENDBRANCH  12  15
ENDBRANCH   8   9
ENDBRANCH   7   8
ENDBRANCH   1   7
BRANCH   4  18
HETATM   18  C   UNL     1     -42.408 -53.574  12.882  1.00  0.00     0.109 A 
HETATM   19  C   UNL     1     -43.763 -53.878  12.897  1.00  0.00     0.055 A 
HETATM   20  C   UNL     1     -44.264 -54.649  13.942  1.00  0.00    -0.057 A 
HETATM   21  C   UNL     1     -45.711 -55.034  13.998  1.00  0.00     0.048 C 
HETATM   22  C   UNL     1     -43.389 -55.036  14.959  1.00  0.00     0.031 A 
HETATM   23  C   UNL     1     -42.043 -54.691  14.863  1.00  0.00     0.007 A 
HETATM   24  C   UNL     1     -41.089 -54.991  15.978  1.00  0.00     0.068 C 
HETATM   25  N   UNL     1     -41.535 -54.011  13.810  1.00  0.00    -0.346 N 
ATOM     26  HN  UNL     1     -40.535 -53.836  13.722  1.00  0.00     0.167 HD
ENDBRANCH   4  18
TORSDOF 5
ENDMDL
MODEL 4
REMARK VINA RESULT:      -6.1      2.034      7.926
REMARK  5 active torsions:
REMARK  status: ('A' for Active; 'I' for Inactive)
REMARK    1  A    between atoms: N_2  and  C_4 
REMARK    2  A    between atoms: N_7  and  C_8 
REMARK    3  A    between atoms: C_8  and  C_9 
REMARK    4  A    between atoms: C_9  and  N_10 
REMARK       I    between atoms: N_10  and  C_11 
REMARK       I    between atoms: C_11  and  N_13 
REMARK    5  A    between atoms: N_13  and  C_14 
ROOT
HETATM    1  N   UNL     1     -42.231 -50.202  11.884  1.00  0.00    -0.341 N 
HETATM    2  C   UNL     1     -42.861 -50.944  12.857  1.00  0.00     0.321 C 
HETATM    3  O   UNL     1     -42.259 -51.614  13.684  1.00  0.00    -0.247 OA
HETATM    4  N   UNL     1     -44.227 -50.879  12.707  1.00  0.00    -0.295 N 
HETATM    5  H   UNL     1     -42.676 -49.312  11.694  1.00  0.00     0.164 HD
HETATM    6  H   UNL     1     -44.527 -50.854  11.745  1.00  0.00     0.172 HD
ENDROOT
BRANCH   1   7
HETATM    7  C   UNL     1     -40.783 -50.261  11.742  1.00  0.00     0.154 C 
BRANCH   7   8
HETATM    8  C   UNL     1     -40.152 -48.853  11.673  1.00  0.00     0.292 C 
BRANCH   8   9
HETATM    9  N   UNL     1     -41.084 -47.743  11.950  1.00  0.00     0.090 N 
HETATM   10  C   UNL     1     -41.191 -46.750  10.873  1.00  0.00     0.274 C 
HETATM   11  C   UNL     1     -39.943 -45.875  10.729  1.00  0.00     0.066 C 
HETATM   12  C   UNL     1     -39.648 -45.089  12.028  1.00  0.00     0.225 C 
HETATM   13  C   UNL     1     -39.528 -46.153  13.148  1.00  0.00     0.066 C 
HETATM   14  C   UNL     1     -40.758 -47.068  13.222  1.00  0.00     0.274 C 
BRANCH  12  15
HETATM   15  N   UNL     1     -40.658 -44.033  12.326  1.00  0.00     0.084 N 
HETATM   16  C   UNL     1     -40.389 -43.357  13.604  1.00  0.00     0.309 C 
HETATM   17  C   UNL     1     -40.724 -43.004  11.280  1.00  0.00     0.309 C 
ENDBRANCH  12  15
ENDBRANCH   8   9
ENDBRANCH   7   8
ENDBRANCH   1   7
BRANCH   4  18
HETATM   18  C   UNL     1     -45.072 -51.672  13.488  1.00  0.00     0.109 A 
HETATM   19  C   UNL     1     -45.881 -51.125  14.474  1.00  0.00     0.055 A 
HETATM   20  C   UNL     1     -46.670 -51.977  15.241  1.00  0.00    -0.057 A 
HETATM   21  C   UNL     1     -47.586 -51.445  16.300  1.00  0.00     0.048 C 
HETATM   22  C   UNL     1     -46.569 -53.352  15.020  1.00  0.00     0.031 A 
HETATM   23  C   UNL     1     -45.734 -53.817  14.007  1.00  0.00     0.007 A 
HETATM   24  C   UNL     1     -45.511 -55.283  13.802  1.00  0.00     0.068 C 
HETATM   25  N   UNL     1     -45.026 -52.988  13.205  1.00  0.00    -0.346 N 
ATOM     26  HN  UNL     1     -44.481 -53.344  12.421  1.00  0.00     0.167 HD
ENDBRANCH   4  18
TORSDOF 5
ENDMDL
MODEL 5
REMARK VINA RESULT:      -6.0      1.860      8.219
REMARK  5 active torsions:
REMARK  status: ('A' for Active; 'I' for Inactive)
REMARK    1  A    between atoms: N_2  and  C_4 
REMARK    2  A    between atoms: N_7  and  C_8 
REMARK    3  A    between atoms: C_8  and  C_9 
REMARK    4  A    between atoms: C_9  and  N_10 
REMARK       I    between atoms: N_10  and  C_11 
REMARK       I    between atoms: C_11  and  N_13 
REMARK    5  A    between atoms: N_13  and  C_14 
ROOT
HETATM    1  N   UNL     1     -40.780 -51.076  11.179  1.00  0.00    -0.341 N 
HETATM    2  C   UNL     1     -41.466 -51.574  12.263  1.00  0.00     0.321 C 
HETATM    3  O   UNL     1     -41.788 -50.889  13.224  1.00  0.00    -0.247 OA
HETATM    4  N   UNL     1     -41.654 -52.930  12.137  1.00  0.00    -0.295 N 
HETATM    5  H   UNL     1     -41.078 -51.463  10.292  1.00  0.00     0.164 HD
HETATM    6  H   UNL     1     -40.879 -53.407  11.702  1.00  0.00     0.172 HD
ENDROOT
BRANCH   1   7
HETATM    7  C   UNL     1     -40.319 -49.695  11.176  1.00  0.00     0.154 C 
BRANCH   7   8
HETATM    8  C   UNL     1     -41.437 -48.714  10.756  1.00  0.00     0.292 C 
BRANCH   8   9
HETATM    9  N   UNL     1     -41.724 -47.648  11.734  1.00  0.00     0.090 N 
HETATM   10  C   UNL     1     -42.816 -46.744  11.349  1.00  0.00     0.274 C 
HETATM   11  C   UNL     1     -42.449 -45.805  10.196  1.00  0.00     0.066 C 
HETATM   12  C   UNL     1     -41.240 -44.911  10.555  1.00  0.00     0.225 C 
HETATM   13  C   UNL     1     -40.098 -45.882  10.946  1.00  0.00     0.066 C 
HETATM   14  C   UNL     1     -40.514 -46.864  12.050  1.00  0.00     0.274 C 
BRANCH  12  15
HETATM   15  N   UNL     1     -41.540 -43.901  11.610  1.00  0.00     0.084 N 
HETATM   16  C   UNL     1     -40.381 -43.045  11.901  1.00  0.00     0.309 C 
HETATM   17  C   UNL     1     -42.665 -43.026  11.251  1.00  0.00     0.309 C 
ENDBRANCH  12  15
ENDBRANCH   8   9
ENDBRANCH   7   8
ENDBRANCH   1   7
BRANCH   4  18
HETATM   18  C   UNL     1     -42.195 -53.679  13.185  1.00  0.00     0.109 A 
HETATM   19  C   UNL     1     -41.401 -54.198  14.198  1.00  0.00     0.055 A 
HETATM   20  C   UNL     1     -42.001 -54.968  15.191  1.00  0.00    -0.057 A 
HETATM   21  C   UNL     1     -41.202 -55.530  16.326  1.00  0.00     0.048 C 
HETATM   22  C   UNL     1     -43.369 -55.229  15.092  1.00  0.00     0.031 A 
HETATM   23  C   UNL     1     -44.092 -54.665  14.043  1.00  0.00     0.007 A 
HETATM   24  C   UNL     1     -45.536 -55.002  13.834  1.00  0.00     0.068 C 
HETATM   25  N   UNL     1     -43.529 -53.851  13.120  1.00  0.00    -0.346 N 
ATOM     26  HN  UNL     1     -44.091 -53.388  12.407  1.00  0.00     0.167 HD
ENDBRANCH   4  18
TORSDOF 5
ENDMDL
MODEL 6
REMARK VINA RESULT:      -5.9      1.665      2.217
REMARK  5 active torsions:
REMARK  status: ('A' for Active; 'I' for Inactive)
REMARK    1  A    between atoms: N_2  and  C_4 
REMARK    2  A    between atoms: N_7  and  C_8 
REMARK    3  A    between atoms: C_8  and  C_9 
REMARK    4  A    between atoms: C_9  and  N_10 
REMARK       I    between atoms: N_10  and  C_11 
REMARK       I    between atoms: C_11  and  N_13 
REMARK    5  A    between atoms: N_13  and  C_14 
ROOT
HETATM    1  N   UNL     1     -40.853 -50.518  11.293  1.00  0.00    -0.341 N 
HETATM    2  C   UNL     1     -40.403 -49.229  11.460  1.00  0.00     0.321 C 
HETATM    3  O   UNL     1     -39.433 -48.942  12.149  1.00  0.00    -0.247 OA
HETATM    4  N   UNL     1     -41.232 -48.339  10.819  1.00  0.00    -0.295 N 
HETATM    5  H   UNL     1     -41.182 -50.720  10.357  1.00  0.00     0.164 HD
HETATM    6  H   UNL     1     -42.206 -48.596  10.855  1.00  0.00     0.172 HD
ENDROOT
BRANCH   1   7
HETATM    7  C   UNL     1     -40.230 -51.612  12.025  1.00  0.00     0.154 C 
BRANCH   7   8
HETATM    8  C   UNL     1     -41.260 -52.686  12.444  1.00  0.00     0.292 C 
BRANCH   8   9
HETATM    9  N   UNL     1     -42.386 -52.181  13.252  1.00  0.00     0.090 N 
HETATM   10  C   UNL     1     -42.303 -52.499  14.683  1.00  0.00     0.274 C 
HETATM   11  C   UNL     1     -42.540 -53.980  14.991  1.00  0.00     0.066 C 
HETATM   12  C   UNL     1     -43.937 -54.441  14.516  1.00  0.00     0.225 C 
HETATM   13  C   UNL     1     -44.001 -54.109  13.004  1.00  0.00     0.066 C 
HETATM   14  C   UNL     1     -43.684 -52.636  12.714  1.00  0.00     0.274 C 
BRANCH  12  15
HETATM   15  N   UNL     1     -45.059 -53.844  15.297  1.00  0.00     0.084 N 
HETATM   16  C   UNL     1     -46.367 -54.353  14.863  1.00  0.00     0.309 C 
HETATM   17  C   UNL     1     -44.937 -54.092  16.740  1.00  0.00     0.309 C 
ENDBRANCH  12  15
ENDBRANCH   8   9
ENDBRANCH   7   8
ENDBRANCH   1   7
BRANCH   4  18
HETATM   18  C   UNL     1     -41.058 -46.961  10.973  1.00  0.00     0.109 A 
HETATM   19  C   UNL     1     -41.900 -46.204  11.777  1.00  0.00     0.055 A 
HETATM   20  C   UNL     1     -41.693 -44.829  11.854  1.00  0.00    -0.057 A 
HETATM   21  C   UNL     1     -42.549 -43.963  12.726  1.00  0.00     0.048 C 
HETATM   22  C   UNL     1     -40.681 -44.266  11.074  1.00  0.00     0.031 A 
HETATM   23  C   UNL     1     -39.880 -45.100  10.298  1.00  0.00     0.007 A 
HETATM   24  C   UNL     1     -38.853 -44.535   9.366  1.00  0.00     0.068 C 
HETATM   25  N   UNL     1     -40.024 -46.445  10.281  1.00  0.00    -0.346 N 
ATOM     26  HN  UNL     1     -39.379 -47.043   9.766  1.00  0.00     0.167 HD
ENDBRANCH   4  18
TORSDOF 5
ENDMDL
MODEL 7
REMARK VINA RESULT:      -5.9      3.691      7.651
REMARK  5 active torsions:
REMARK  status: ('A' for Active; 'I' for Inactive)
REMARK    1  A    between atoms: N_2  and  C_4 
REMARK    2  A    between atoms: N_7  and  C_8 
REMARK    3  A    between atoms: C_8  and  C_9 
REMARK    4  A    between atoms: C_9  and  N_10 
REMARK       I    between atoms: N_10  and  C_11 
REMARK       I    between atoms: C_11  and  N_13 
REMARK    5  A    between atoms: N_13  and  C_14 
ROOT
HETATM    1  N   UNL     1     -40.280 -50.609  11.167  1.00  0.00    -0.341 N 
HETATM    2  C   UNL     1     -41.403 -50.913  11.902  1.00  0.00     0.321 C 
HETATM    3  O   UNL     1     -41.943 -50.120  12.660  1.00  0.00    -0.247 OA
HETATM    4  N   UNL     1     -41.763 -52.227  11.716  1.00  0.00    -0.295 N 
HETATM    5  H   UNL     1     -40.280 -51.005  10.235  1.00  0.00     0.164 HD
HETATM    6  H   UNL     1     -40.977 -52.852  11.617  1.00  0.00     0.172 HD
ENDROOT
BRANCH   1   7
HETATM    7  C   UNL     1     -39.618 -49.324  11.340  1.00  0.00     0.154 C 
BRANCH   7   8
HETATM    8  C   UNL     1     -38.514 -49.384  12.420  1.00  0.00     0.292 C 
BRANCH   8   9
HETATM    9  N   UNL     1     -38.976 -49.104  13.793  1.00  0.00     0.090 N 
HETATM   10  C   UNL     1     -38.587 -47.787  14.312  1.00  0.00     0.274 C 
HETATM   11  C   UNL     1     -37.092 -47.673  14.623  1.00  0.00     0.066 C 
HETATM   12  C   UNL     1     -36.652 -48.712  15.679  1.00  0.00     0.225 C 
HETATM   13  C   UNL     1     -37.059 -50.094  15.109  1.00  0.00     0.066 C 
HETATM   14  C   UNL     1     -38.546 -50.159  14.733  1.00  0.00     0.274 C 
BRANCH  12  15
HETATM   15  N   UNL     1     -37.207 -48.451  17.038  1.00  0.00     0.084 N 
HETATM   16  C   UNL     1     -36.860 -49.514  17.992  1.00  0.00     0.309 C 
HETATM   17  C   UNL     1     -36.744 -47.175  17.602  1.00  0.00     0.309 C 
ENDBRANCH  12  15
ENDBRANCH   8   9
ENDBRANCH   7   8
ENDBRANCH   1   7
BRANCH   4  18
HETATM   18  C   UNL     1     -42.785 -52.804  12.473  1.00  0.00     0.109 A 
HETATM   19  C   UNL     1     -42.538 -53.838  13.366  1.00  0.00     0.055 A 
HETATM   20  C   UNL     1     -43.610 -54.393  14.061  1.00  0.00    -0.057 A 
HETATM   21  C   UNL     1     -43.403 -55.490  15.059  1.00  0.00     0.048 C 
HETATM   22  C   UNL     1     -44.894 -53.919  13.786  1.00  0.00     0.031 A 
HETATM   23  C   UNL     1     -45.052 -52.875  12.877  1.00  0.00     0.007 A 
HETATM   24  C   UNL     1     -46.415 -52.406  12.471  1.00  0.00     0.068 C 
HETATM   25  N   UNL     1     -44.007 -52.279  12.259  1.00  0.00    -0.346 N 
ATOM     26  HN  UNL     1     -44.138 -51.467  11.658  1.00  0.00     0.167 HD
ENDBRANCH   4  18
TORSDOF 5
ENDMDL
MODEL 8
REMARK VINA RESULT:      -5.8      2.372      3.624
REMARK  5 active torsions:
REMARK  status: ('A' for Active; 'I' for Inactive)
REMARK    1  A    between atoms: N_2  and  C_4 
REMARK    2  A    between atoms: N_7  and  C_8 
REMARK    3  A    between atoms: C_8  and  C_9 
REMARK    4  A    between atoms: C_9  and  N_10 
REMARK       I    between atoms: N_10  and  C_11 
REMARK       I    between atoms: C_11  and  N_13 
REMARK    5  A    between atoms: N_13  and  C_14 
ROOT
HETATM    1  N   UNL     1     -40.708 -51.615  11.396  1.00  0.00    -0.341 N 
HETATM    2  C   UNL     1     -41.318 -50.392  11.553  1.00  0.00     0.321 C 
HETATM    3  O   UNL     1     -42.216 -50.189  12.360  1.00  0.00    -0.247 OA
HETATM    4  N   UNL     1     -40.833 -49.487  10.638  1.00  0.00    -0.295 N 
HETATM    5  H   UNL     1     -39.712 -51.557  11.223  1.00  0.00     0.164 HD
HETATM    6  H   UNL     1     -40.626 -49.893   9.739  1.00  0.00     0.172 HD
ENDROOT
BRANCH   1   7
HETATM    7  C   UNL     1     -41.184 -52.771  12.142  1.00  0.00     0.154 C 
BRANCH   7   8
HETATM    8  C   UNL     1     -40.181 -53.207  13.233  1.00  0.00     0.292 C 
BRANCH   8   9
HETATM    9  N   UNL     1     -40.561 -52.833  14.608  1.00  0.00     0.090 N 
HETATM   10  C   UNL     1     -39.679 -53.369  15.654  1.00  0.00     0.274 C 
HETATM   11  C   UNL     1     -39.826 -54.880  15.856  1.00  0.00     0.066 C 
HETATM   12  C   UNL     1     -41.269 -55.261  16.256  1.00  0.00     0.225 C 
HETATM   13  C   UNL     1     -42.181 -54.698  15.138  1.00  0.00     0.066 C 
HETATM   14  C   UNL     1     -41.961 -53.198  14.900  1.00  0.00     0.274 C 
BRANCH  12  15
HETATM   15  N   UNL     1     -41.652 -54.791  17.619  1.00  0.00     0.084 N 
HETATM   16  C   UNL     1     -43.060 -55.078  17.927  1.00  0.00     0.309 C 
HETATM   17  C   UNL     1     -40.830 -55.395  18.676  1.00  0.00     0.309 C 
ENDBRANCH  12  15
ENDBRANCH   8   9
ENDBRANCH   7   8
ENDBRANCH   1   7
BRANCH   4  18
HETATM   18  C   UNL     1     -41.409 -48.221  10.509  1.00  0.00     0.109 A 
HETATM   19  C   UNL     1     -40.788 -47.082  11.003  1.00  0.00     0.055 A 
HETATM   20  C   UNL     1     -41.436 -45.856  10.874  1.00  0.00    -0.057 A 
HETATM   21  C   UNL     1     -40.804 -44.589  11.361  1.00  0.00     0.048 C 
HETATM   22  C   UNL     1     -42.708 -45.837  10.299  1.00  0.00     0.031 A 
HETATM   23  C   UNL     1     -43.257 -47.026   9.826  1.00  0.00     0.007 A 
HETATM   24  C   UNL     1     -44.658 -47.074   9.300  1.00  0.00     0.068 C 
HETATM   25  N   UNL     1     -42.598 -48.207   9.877  1.00  0.00    -0.346 N 
ATOM     26  HN  UNL     1     -42.986 -49.050   9.455  1.00  0.00     0.167 HD
ENDBRANCH   4  18
TORSDOF 5
ENDMDL
MODEL 9
REMARK VINA RESULT:      -5.8      2.368      3.744
REMARK  5 active torsions:
REMARK  status: ('A' for Active; 'I' for Inactive)
REMARK    1  A    between atoms: N_2  and  C_4 
REMARK    2  A    between atoms: N_7  and  C_8 
REMARK    3  A    between atoms: C_8  and  C_9 
REMARK    4  A    between atoms: C_9  and  N_10 
REMARK       I    between atoms: N_10  and  C_11 
REMARK       I    between atoms: C_11  and  N_13 
REMARK    5  A    between atoms: N_13  and  C_14 
ROOT
HETATM    1  N   UNL     1     -42.575 -53.717  12.614  1.00  0.00    -0.341 N 
HETATM    2  C   UNL     1     -41.713 -52.674  12.861  1.00  0.00     0.321 C 
HETATM    3  O   UNL     1     -41.237 -52.444  13.964  1.00  0.00    -0.247 OA
HETATM    4  N   UNL     1     -41.539 -51.911  11.730  1.00  0.00    -0.295 N 
HETATM    5  H   UNL     1     -42.429 -54.168  11.720  1.00  0.00     0.164 HD
HETATM    6  H   UNL     1     -42.373 -51.822  11.170  1.00  0.00     0.172 HD
ENDROOT
BRANCH   1   7
HETATM    7  C   UNL     1     -43.040 -54.556  13.710  1.00  0.00     0.154 C 
BRANCH   7   8
HETATM    8  C   UNL     1     -44.565 -54.427  13.928  1.00  0.00     0.292 C 
BRANCH   8   9
HETATM    9  N   UNL     1     -44.968 -54.132  15.316  1.00  0.00     0.090 N 
HETATM   10  C   UNL     1     -46.410 -53.927  15.503  1.00  0.00     0.274 C 
HETATM   11  C   UNL     1     -46.918 -52.610  14.908  1.00  0.00     0.066 C 
HETATM   12  C   UNL     1     -46.212 -51.391  15.544  1.00  0.00     0.225 C 
HETATM   13  C   UNL     1     -44.695 -51.620  15.326  1.00  0.00     0.066 C 
HETATM   14  C   UNL     1     -44.225 -52.979  15.862  1.00  0.00     0.274 C 
BRANCH  12  15
HETATM   15  N   UNL     1     -46.574 -51.172  16.974  1.00  0.00     0.084 N 
HETATM   16  C   UNL     1     -45.902 -49.995  17.541  1.00  0.00     0.309 C 
HETATM   17  C   UNL     1     -48.020 -51.001  17.170  1.00  0.00     0.309 C 
ENDBRANCH  12  15
ENDBRANCH   8   9
ENDBRANCH   7   8
ENDBRANCH   1   7
BRANCH   4  18
HETATM   18  C   UNL     1     -40.823 -50.712  11.778  1.00  0.00     0.109 A 
HETATM   19  C   UNL     1     -41.460 -49.486  11.906  1.00  0.00     0.055 A 
HETATM   20  C   UNL     1     -40.688 -48.327  11.909  1.00  0.00    -0.057 A 
HETATM   21  C   UNL     1     -41.314 -46.977  12.073  1.00  0.00     0.048 C 
HETATM   22  C   UNL     1     -39.308 -48.450  11.726  1.00  0.00     0.031 A 
HETATM   23  C   UNL     1     -38.750 -49.721  11.608  1.00  0.00     0.007 A 
HETATM   24  C   UNL     1     -37.295 -49.899  11.305  1.00  0.00     0.068 C 
HETATM   25  N   UNL     1     -39.487 -50.853  11.685  1.00  0.00    -0.346 N 
ATOM     26  HN  UNL     1     -39.049 -51.773  11.674  1.00  0.00     0.167 HD
ENDBRANCH   4  18
TORSDOF 5
ENDMDL
