MODEL 1
REMARK VINA RESULT:      -6.0      0.000      0.000
REMARK  6 active torsions:
REMARK  status: ('A' for Active; 'I' for Inactive)
REMARK    1  A    between atoms: C_2  and  C_3 
REMARK    2  A    between atoms: C_2  and  N_10 
REMARK    3  A    between atoms: C_3  and  N_4 
REMARK       I    between atoms: N_10  and  C_11 
REMARK    4  A    between atoms: C_11  and  C_13 
REMARK    5  A    between atoms: N_15  and  C_16 
REMARK    6  A    between atoms: C_16  and  C_17 
ROOT
HETATM    1  N   UNL     1     -39.699 -51.676  12.443  1.00  0.00    -0.355 N 
HETATM    2  C   UNL     1     -40.220 -52.329  13.539  1.00  0.00     0.224 C 
HETATM    3  O   UNL     1     -39.914 -52.012  14.685  1.00  0.00    -0.273 OA
HETATM    4  H   UNL     1     -40.123 -51.807  11.531  1.00  0.00     0.162 HD
ENDROOT
BRANCH   2   5
HETATM    5  C   UNL     1     -41.254 -53.398  13.231  1.00  0.00     0.104 C 
HETATM    6  C   UNL     1     -42.575 -52.762  12.802  1.00  0.00     0.140 C 
HETATM    7  N   UNL     1     -43.592 -53.647  13.316  1.00  0.00    -0.351 N 
HETATM    8  C   UNL     1     -43.102 -54.540  14.245  1.00  0.00     0.220 C 
HETATM    9  O   UNL     1     -43.731 -55.393  14.849  1.00  0.00    -0.273 OA
HETATM   10  C   UNL     1     -41.629 -54.273  14.427  1.00  0.00     0.118 C 
BRANCH   7  11
HETATM   11  C   UNL     1     -44.994 -53.508  12.979  1.00  0.00     0.130 C 
BRANCH  11  12
HETATM   12  C   UNL     1     -45.443 -52.073  12.931  1.00  0.00     0.004 A 
HETATM   13  C   UNL     1     -46.588 -51.516  13.748  1.00  0.00     0.007 A 
HETATM   14  C   UNL     1     -46.775 -51.770  12.282  1.00  0.00     0.007 A 
ENDBRANCH  11  12
ENDBRANCH   7  11
ENDBRANCH   2   5
BRANCH   1  15
HETATM   15  C   UNL     1     -38.710 -50.596  12.604  1.00  0.00     0.100 C 
HETATM   16  C   UNL     1     -37.305 -51.193  12.653  1.00  0.00     0.034 C 
BRANCH  15  17
HETATM   17  C   UNL     1     -38.869 -49.520  11.514  1.00  0.00     0.172 C 
BRANCH  17  18
HETATM   18  N   UNL     1     -40.177 -48.889  11.508  1.00  0.00    -0.302 N 
HETATM   19  C   UNL     1     -40.712 -48.099  12.483  1.00  0.00     0.111 A 
HETATM   20  C   UNL     1     -41.971 -47.753  12.045  1.00  0.00     0.037 A 
HETATM   21  C   UNL     1     -42.104 -48.394  10.800  1.00  0.00     0.108 A 
HETATM   22  N   UNL     1     -41.016 -49.097  10.472  1.00  0.00    -0.310 N 
ATOM     23  HN  UNL     1     -40.857 -49.659   9.635  1.00  0.00     0.186 HD
ENDBRANCH  17  18
ENDBRANCH  15  17
ENDBRANCH   1  15
TORSDOF 6
ENDMDL
MODEL 2
REMARK VINA RESULT:      -6.0      3.447      5.386
REMARK  6 active torsions:
REMARK  status: ('A' for Active; 'I' for Inactive)
REMARK    1  A    between atoms: C_2  and  C_3 
REMARK    2  A    between atoms: C_2  and  N_10 
REMARK    3  A    between atoms: C_3  and  N_4 
REMARK       I    between atoms: N_10  and  C_11 
REMARK    4  A    between atoms: C_11  and  C_13 
REMARK    5  A    between atoms: N_15  and  C_16 
REMARK    6  A    between atoms: C_16  and  C_17 
ROOT
HETATM    1  N   UNL     1     -39.825 -46.877  10.877  1.00  0.00    -0.355 N 
HETATM    2  C   UNL     1     -39.419 -47.567  11.999  1.00  0.00     0.224 C 
HETATM    3  O   UNL     1     -39.241 -47.001  13.074  1.00  0.00    -0.273 OA
HETATM    4  H   UNL     1     -40.169 -47.387  10.071  1.00  0.00     0.162 HD
ENDROOT
BRANCH   2   5
HETATM    5  C   UNL     1     -39.294 -49.071  11.832  1.00  0.00     0.104 C 
HETATM    6  C   UNL     1     -39.758 -49.793  13.095  1.00  0.00     0.140 C 
HETATM    7  N   UNL     1     -38.909 -50.955  13.186  1.00  0.00    -0.351 N 
HETATM    8  C   UNL     1     -37.811 -50.881  12.355  1.00  0.00     0.220 C 
HETATM    9  O   UNL     1     -36.924 -51.708  12.231  1.00  0.00    -0.273 OA
HETATM   10  C   UNL     1     -37.862 -49.564  11.622  1.00  0.00     0.118 C 
BRANCH   7  11
HETATM   11  C   UNL     1     -39.131 -52.015  14.149  1.00  0.00     0.130 C 
BRANCH  11  12
HETATM   12  C   UNL     1     -40.441 -52.725  13.942  1.00  0.00     0.004 A 
HETATM   13  C   UNL     1     -40.564 -54.200  13.631  1.00  0.00     0.007 A 
HETATM   14  C   UNL     1     -40.781 -53.190  12.544  1.00  0.00     0.007 A 
ENDBRANCH  11  12
ENDBRANCH   7  11
ENDBRANCH   2   5
BRANCH   1  15
HETATM   15  C   UNL     1     -40.016 -45.417  10.913  1.00  0.00     0.100 C 
HETATM   16  C   UNL     1     -39.282 -44.776   9.736  1.00  0.00     0.034 C 
BRANCH  15  17
HETATM   17  C   UNL     1     -41.509 -45.046  10.963  1.00  0.00     0.172 C 
BRANCH  17  18
HETATM   18  N   UNL     1     -42.386 -46.106  10.496  1.00  0.00    -0.302 N 
HETATM   19  C   UNL     1     -43.103 -46.975  11.264  1.00  0.00     0.111 A 
HETATM   20  C   UNL     1     -43.763 -47.806  10.385  1.00  0.00     0.037 A 
HETATM   21  C   UNL     1     -43.367 -47.362   9.111  1.00  0.00     0.108 A 
HETATM   22  N   UNL     1     -42.519 -46.331   9.173  1.00  0.00    -0.310 N 
ATOM     23  HN  UNL     1     -42.076 -45.831   8.401  1.00  0.00     0.186 HD
ENDBRANCH  17  18
ENDBRANCH  15  17
ENDBRANCH   1  15
TORSDOF 6
ENDMDL
MODEL 3
REMARK VINA RESULT:      -5.9      1.738      3.172
REMARK  6 active torsions:
REMARK  status: ('A' for Active; 'I' for Inactive)
REMARK    1  A    between atoms: C_2  and  C_3 
REMARK    2  A    between atoms: C_2  and  N_10 
REMARK    3  A    between atoms: C_3  and  N_4 
REMARK       I    between atoms: N_10  and  C_11 
REMARK    4  A    between atoms: C_11  and  C_13 
REMARK    5  A    between atoms: N_15  and  C_16 
REMARK    6  A    between atoms: C_16  and  C_17 
ROOT
HETATM    1  N   UNL     1     -42.605 -50.979  12.308  1.00  0.00    -0.355 N 
HETATM    2  C   UNL     1     -42.304 -52.318  12.175  1.00  0.00     0.224 C 
HETATM    3  O   UNL     1     -41.193 -52.697  11.815  1.00  0.00    -0.273 OA
HETATM    4  H   UNL     1     -43.442 -50.699  12.805  1.00  0.00     0.162 HD
ENDROOT
BRANCH   2   5
HETATM    5  C   UNL     1     -43.407 -53.278  12.584  1.00  0.00     0.104 C 
HETATM    6  C   UNL     1     -44.703 -52.521  12.866  1.00  0.00     0.140 C 
HETATM    7  N   UNL     1     -45.334 -53.256  13.934  1.00  0.00    -0.351 N 
HETATM    8  C   UNL     1     -44.478 -54.149  14.544  1.00  0.00     0.220 C 
HETATM    9  O   UNL     1     -44.732 -54.892  15.478  1.00  0.00    -0.273 OA
HETATM   10  C   UNL     1     -43.129 -54.041  13.879  1.00  0.00     0.118 C 
BRANCH   7  11
HETATM   11  C   UNL     1     -46.680 -52.978  14.390  1.00  0.00     0.130 C 
BRANCH  11  12
HETATM   12  C   UNL     1     -46.837 -51.583  14.928  1.00  0.00     0.004 A 
HETATM   13  C   UNL     1     -46.119 -51.063  16.154  1.00  0.00     0.007 A 
HETATM   14  C   UNL     1     -47.575 -51.408  16.237  1.00  0.00     0.007 A 
ENDBRANCH  11  12
ENDBRANCH   7  11
ENDBRANCH   2   5
BRANCH   1  15
HETATM   15  C   UNL     1     -41.610 -49.944  11.975  1.00  0.00     0.100 C 
HETATM   16  C   UNL     1     -42.323 -48.716  11.409  1.00  0.00     0.034 C 
BRANCH  15  17
HETATM   17  C   UNL     1     -40.715 -49.615  13.183  1.00  0.00     0.172 C 
BRANCH  17  18
HETATM   18  N   UNL     1     -39.344 -50.072  13.030  1.00  0.00    -0.302 N 
HETATM   19  C   UNL     1     -38.377 -50.103  13.991  1.00  0.00     0.111 A 
HETATM   20  C   UNL     1     -37.244 -50.590  13.378  1.00  0.00     0.037 A 
HETATM   21  C   UNL     1     -37.630 -50.812  12.044  1.00  0.00     0.108 A 
HETATM   22  N   UNL     1     -38.908 -50.488  11.824  1.00  0.00    -0.310 N 
ATOM     23  HN  UNL     1     -39.430 -50.543  10.949  1.00  0.00     0.186 HD
ENDBRANCH  17  18
ENDBRANCH  15  17
ENDBRANCH   1  15
TORSDOF 6
ENDMDL
MODEL 4
REMARK VINA RESULT:      -5.8      2.951      5.399
REMARK  6 active torsions:
REMARK  status: ('A' for Active; 'I' for Inactive)
REMARK    1  A    between atoms: C_2  and  C_3 
REMARK    2  A    between atoms: C_2  and  N_10 
REMARK    3  A    between atoms: C_3  and  N_4 
REMARK       I    between atoms: N_10  and  C_11 
REMARK    4  A    between atoms: C_11  and  C_13 
REMARK    5  A    between atoms: N_15  and  C_16 
REMARK    6  A    between atoms: C_16  and  C_17 
ROOT
HETATM    1  N   UNL     1     -41.568 -47.702  10.194  1.00  0.00    -0.355 N 
HETATM    2  C   UNL     1     -41.741 -48.626  11.202  1.00  0.00     0.224 C 
HETATM    3  O   UNL     1     -42.613 -48.493  12.056  1.00  0.00    -0.273 OA
HETATM    4  H   UNL     1     -40.997 -47.937   9.390  1.00  0.00     0.162 HD
ENDROOT
BRANCH   2   5
HETATM    5  C   UNL     1     -40.841 -49.848  11.129  1.00  0.00     0.104 C 
HETATM    6  C   UNL     1     -41.415 -50.989  11.966  1.00  0.00     0.140 C 
HETATM    7  N   UNL     1     -40.261 -51.676  12.491  1.00  0.00    -0.351 N 
HETATM    8  C   UNL     1     -39.098 -50.946  12.355  1.00  0.00     0.220 C 
HETATM    9  O   UNL     1     -37.979 -51.270  12.715  1.00  0.00    -0.273 OA
HETATM   10  C   UNL     1     -39.439 -49.632  11.699  1.00  0.00     0.118 C 
BRANCH   7  11
HETATM   11  C   UNL     1     -40.353 -52.935  13.200  1.00  0.00     0.130 C 
BRANCH  11  12
HETATM   12  C   UNL     1     -41.616 -53.060  14.006  1.00  0.00     0.004 A 
HETATM   13  C   UNL     1     -41.707 -53.779  15.333  1.00  0.00     0.007 A 
HETATM   14  C   UNL     1     -42.265 -54.423  14.099  1.00  0.00     0.007 A 
ENDBRANCH  11  12
ENDBRANCH   7  11
ENDBRANCH   2   5
BRANCH   1  15
HETATM   15  C   UNL     1     -42.399 -46.487  10.130  1.00  0.00     0.100 C 
HETATM   16  C   UNL     1     -41.544 -45.266  10.464  1.00  0.00     0.034 C 
BRANCH  15  17
HETATM   17  C   UNL     1     -43.114 -46.365   8.772  1.00  0.00     0.172 C 
BRANCH  17  18
HETATM   18  N   UNL     1     -44.458 -46.916   8.772  1.00  0.00    -0.302 N 
HETATM   19  C   UNL     1     -44.858 -48.105   8.237  1.00  0.00     0.111 A 
HETATM   20  C   UNL     1     -46.215 -48.187   8.460  1.00  0.00     0.037 A 
HETATM   21  C   UNL     1     -46.539 -46.991   9.127  1.00  0.00     0.108 A 
HETATM   22  N   UNL     1     -45.472 -46.207   9.311  1.00  0.00    -0.310 N 
ATOM     23  HN  UNL     1     -45.433 -45.289   9.755  1.00  0.00     0.186 HD
ENDBRANCH  17  18
ENDBRANCH  15  17
ENDBRANCH   1  15
TORSDOF 6
ENDMDL
MODEL 5
REMARK VINA RESULT:      -5.8      2.302      6.365
REMARK  6 active torsions:
REMARK  status: ('A' for Active; 'I' for Inactive)
REMARK    1  A    between atoms: C_2  and  C_3 
REMARK    2  A    between atoms: C_2  and  N_10 
REMARK    3  A    between atoms: C_3  and  N_4 
REMARK       I    between atoms: N_10  and  C_11 
REMARK    4  A    between atoms: C_11  and  C_13 
REMARK    5  A    between atoms: N_15  and  C_16 
REMARK    6  A    between atoms: C_16  and  C_17 
ROOT
HETATM    1  N   UNL     1     -44.474 -51.243  12.803  1.00  0.00    -0.355 N 
HETATM    2  C   UNL     1     -43.848 -50.487  13.769  1.00  0.00     0.224 C 
HETATM    3  O   UNL     1     -44.154 -50.575  14.956  1.00  0.00    -0.273 OA
HETATM    4  H   UNL     1     -44.066 -51.314  11.877  1.00  0.00     0.162 HD
ENDROOT
BRANCH   2   5
HETATM    5  C   UNL     1     -42.708 -49.613  13.278  1.00  0.00     0.104 C 
HETATM    6  C   UNL     1     -43.169 -48.725  12.124  1.00  0.00     0.140 C 
HETATM    7  N   UNL     1     -42.015 -48.609  11.266  1.00  0.00    -0.351 N 
HETATM    8  C   UNL     1     -41.036 -49.534  11.562  1.00  0.00     0.220 C 
HETATM    9  O   UNL     1     -39.963 -49.676  10.998  1.00  0.00    -0.273 OA
HETATM   10  C   UNL     1     -41.522 -50.389  12.704  1.00  0.00     0.118 C 
BRANCH   7  11
HETATM   11  C   UNL     1     -41.965 -47.702  10.138  1.00  0.00     0.130 C 
BRANCH  11  12
HETATM   12  C   UNL     1     -43.296 -47.547   9.456  1.00  0.00     0.004 A 
HETATM   13  C   UNL     1     -43.508 -47.705   7.966  1.00  0.00     0.007 A 
HETATM   14  C   UNL     1     -43.503 -46.335   8.574  1.00  0.00     0.007 A 
ENDBRANCH  11  12
ENDBRANCH   7  11
ENDBRANCH   2   5
BRANCH   1  15
HETATM   15  C   UNL     1     -45.576 -52.158  13.152  1.00  0.00     0.100 C 
HETATM   16  C   UNL     1     -46.821 -51.788  12.348  1.00  0.00     0.034 C 
BRANCH  15  17
HETATM   17  C   UNL     1     -45.162 -53.630  12.974  1.00  0.00     0.172 C 
BRANCH  17  18
HETATM   18  N   UNL     1     -43.802 -53.906  13.402  1.00  0.00    -0.302 N 
HETATM   19  C   UNL     1     -43.370 -54.123  14.677  1.00  0.00     0.111 A 
HETATM   20  C   UNL     1     -42.009 -54.318  14.592  1.00  0.00     0.037 A 
HETATM   21  C   UNL     1     -41.716 -54.188  13.223  1.00  0.00     0.108 A 
HETATM   22  N   UNL     1     -42.805 -53.927  12.493  1.00  0.00    -0.310 N 
ATOM     23  HN  UNL     1     -42.868 -53.778  11.485  1.00  0.00     0.186 HD
ENDBRANCH  17  18
ENDBRANCH  15  17
ENDBRANCH   1  15
TORSDOF 6
ENDMDL
MODEL 6
REMARK VINA RESULT:      -5.7      1.850      2.939
REMARK  6 active torsions:
REMARK  status: ('A' for Active; 'I' for Inactive)
REMARK    1  A    between atoms: C_2  and  C_3 
REMARK    2  A    between atoms: C_2  and  N_10 
REMARK    3  A    between atoms: C_3  and  N_4 
REMARK       I    between atoms: N_10  and  C_11 
REMARK    4  A    between atoms: C_11  and  C_13 
REMARK    5  A    between atoms: N_15  and  C_16 
REMARK    6  A    between atoms: C_16  and  C_17 
ROOT
HETATM    1  N   UNL     1     -40.545 -51.500  12.625  1.00  0.00    -0.355 N 
HETATM    2  C   UNL     1     -40.258 -52.765  13.091  1.00  0.00     0.224 C 
HETATM    3  O   UNL     1     -39.164 -53.040  13.578  1.00  0.00    -0.273 OA
HETATM    4  H   UNL     1     -41.506 -51.242  12.432  1.00  0.00     0.162 HD
ENDROOT
BRANCH   2   5
HETATM    5  C   UNL     1     -41.407 -53.756  13.040  1.00  0.00     0.104 C 
HETATM    6  C   UNL     1     -42.712 -53.049  12.683  1.00  0.00     0.140 C 
HETATM    7  N   UNL     1     -43.729 -53.764  13.415  1.00  0.00    -0.351 N 
HETATM    8  C   UNL     1     -43.205 -54.586  14.391  1.00  0.00     0.220 C 
HETATM    9  O   UNL     1     -43.824 -55.297  15.165  1.00  0.00    -0.273 OA
HETATM   10  C   UNL     1     -41.704 -54.444  14.372  1.00  0.00     0.118 C 
BRANCH   7  11
HETATM   11  C   UNL     1     -45.145 -53.529  13.222  1.00  0.00     0.130 C 
BRANCH  11  12
HETATM   12  C   UNL     1     -45.493 -52.067  13.177  1.00  0.00     0.004 A 
HETATM   13  C   UNL     1     -46.679 -51.456  13.891  1.00  0.00     0.007 A 
HETATM   14  C   UNL     1     -46.728 -51.656  12.406  1.00  0.00     0.007 A 
ENDBRANCH  11  12
ENDBRANCH   7  11
ENDBRANCH   2   5
BRANCH   1  15
HETATM   15  C   UNL     1     -39.527 -50.435  12.649  1.00  0.00     0.100 C 
HETATM   16  C   UNL     1     -39.608 -49.623  11.357  1.00  0.00     0.034 C 
BRANCH  15  17
HETATM   17  C   UNL     1     -39.652 -49.566  13.914  1.00  0.00     0.172 C 
BRANCH  17  18
HETATM   18  N   UNL     1     -38.408 -49.433  14.652  1.00  0.00    -0.302 N 
HETATM   19  C   UNL     1     -37.804 -48.274  15.042  1.00  0.00     0.111 A 
HETATM   20  C   UNL     1     -36.646 -48.645  15.689  1.00  0.00     0.037 A 
HETATM   21  C   UNL     1     -36.638 -50.051  15.625  1.00  0.00     0.108 A 
HETATM   22  N   UNL     1     -37.706 -50.536  14.984  1.00  0.00    -0.310 N 
ATOM     23  HN  UNL     1     -37.936 -51.512  14.792  1.00  0.00     0.186 HD
ENDBRANCH  17  18
ENDBRANCH  15  17
ENDBRANCH   1  15
TORSDOF 6
ENDMDL
MODEL 7
REMARK VINA RESULT:      -5.7      2.350      5.871
REMARK  6 active torsions:
REMARK  status: ('A' for Active; 'I' for Inactive)
REMARK    1  A    between atoms: C_2  and  C_3 
REMARK    2  A    between atoms: C_2  and  N_10 
REMARK    3  A    between atoms: C_3  and  N_4 
REMARK       I    between atoms: N_10  and  C_11 
REMARK    4  A    between atoms: C_11  and  C_13 
REMARK    5  A    between atoms: N_15  and  C_16 
REMARK    6  A    between atoms: C_16  and  C_17 
ROOT
HETATM    1  N   UNL     1     -42.516 -52.205  13.096  1.00  0.00    -0.355 N 
HETATM    2  C   UNL     1     -41.359 -51.599  12.657  1.00  0.00     0.224 C 
HETATM    3  O   UNL     1     -40.430 -52.249  12.184  1.00  0.00    -0.273 OA
HETATM    4  H   UNL     1     -43.340 -51.643  13.277  1.00  0.00     0.162 HD
ENDROOT
BRANCH   2   5
HETATM    5  C   UNL     1     -41.352 -50.082  12.720  1.00  0.00     0.104 C 
HETATM    6  C   UNL     1     -42.708 -49.520  12.299  1.00  0.00     0.140 C 
HETATM    7  N   UNL     1     -42.400 -48.281  11.627  1.00  0.00    -0.351 N 
HETATM    8  C   UNL     1     -41.063 -48.166  11.308  1.00  0.00     0.220 C 
HETATM    9  O   UNL     1     -40.521 -47.238  10.731  1.00  0.00    -0.273 OA
HETATM   10  C   UNL     1     -40.358 -49.417  11.767  1.00  0.00     0.118 C 
BRANCH   7  11
HETATM   11  C   UNL     1     -43.419 -47.334  11.223  1.00  0.00     0.130 C 
BRANCH  11  12
HETATM   12  C   UNL     1     -43.860 -47.526   9.798  1.00  0.00     0.004 A 
HETATM   13  C   UNL     1     -44.405 -46.418   8.924  1.00  0.00     0.007 A 
HETATM   14  C   UNL     1     -45.340 -47.441   9.498  1.00  0.00     0.007 A 
ENDBRANCH  11  12
ENDBRANCH   7  11
ENDBRANCH   2   5
BRANCH   1  15
HETATM   15  C   UNL     1     -42.665 -53.671  13.058  1.00  0.00     0.100 C 
HETATM   16  C   UNL     1     -42.207 -54.265  14.389  1.00  0.00     0.034 C 
BRANCH  15  17
HETATM   17  C   UNL     1     -44.099 -54.081  12.679  1.00  0.00     0.172 C 
BRANCH  17  18
HETATM   18  N   UNL     1     -45.095 -53.074  13.001  1.00  0.00    -0.302 N 
HETATM   19  C   UNL     1     -45.567 -52.752  14.240  1.00  0.00     0.111 A 
HETATM   20  C   UNL     1     -46.505 -51.762  14.046  1.00  0.00     0.037 A 
HETATM   21  C   UNL     1     -46.534 -51.568  12.653  1.00  0.00     0.108 A 
HETATM   22  N   UNL     1     -45.682 -52.372  12.010  1.00  0.00    -0.310 N 
ATOM     23  HN  UNL     1     -45.516 -52.440  11.005  1.00  0.00     0.186 HD
ENDBRANCH  17  18
ENDBRANCH  15  17
ENDBRANCH   1  15
TORSDOF 6
ENDMDL
MODEL 8
REMARK VINA RESULT:      -5.4      1.726      5.766
REMARK  6 active torsions:
REMARK  status: ('A' for Active; 'I' for Inactive)
REMARK    1  A    between atoms: C_2  and  C_3 
REMARK    2  A    between atoms: C_2  and  N_10 
REMARK    3  A    between atoms: C_3  and  N_4 
REMARK       I    between atoms: N_10  and  C_11 
REMARK    4  A    between atoms: C_11  and  C_13 
REMARK    5  A    between atoms: N_15  and  C_16 
REMARK    6  A    between atoms: C_16  and  C_17 
ROOT
HETATM    1  N   UNL     1     -42.703 -53.048  13.728  1.00  0.00    -0.355 N 
HETATM    2  C   UNL     1     -41.421 -52.821  13.275  1.00  0.00     0.224 C 
HETATM    3  O   UNL     1     -40.706 -53.737  12.879  1.00  0.00    -0.273 OA
HETATM    4  H   UNL     1     -43.340 -52.268  13.843  1.00  0.00     0.162 HD
ENDROOT
BRANCH   2   5
HETATM    5  C   UNL     1     -40.996 -51.364  13.219  1.00  0.00     0.104 C 
HETATM    6  C   UNL     1     -41.831 -50.599  12.195  1.00  0.00     0.140 C 
HETATM    7  N   UNL     1     -40.927 -49.621  11.641  1.00  0.00    -0.351 N 
HETATM    8  C   UNL     1     -39.607 -49.883  11.946  1.00  0.00     0.220 C 
HETATM    9  O   UNL     1     -38.631 -49.236  11.605  1.00  0.00    -0.273 OA
HETATM   10  C   UNL     1     -39.553 -51.147  12.765  1.00  0.00     0.118 C 
BRANCH   7  11
HETATM   11  C   UNL     1     -41.363 -48.564  10.753  1.00  0.00     0.130 C 
BRANCH  11  12
HETATM   12  C   UNL     1     -42.528 -47.785  11.302  1.00  0.00     0.004 A 
HETATM   13  C   UNL     1     -43.868 -47.667  10.611  1.00  0.00     0.007 A 
HETATM   14  C   UNL     1     -42.919 -46.506  10.597  1.00  0.00     0.007 A 
ENDBRANCH  11  12
ENDBRANCH   7  11
ENDBRANCH   2   5
BRANCH   1  15
HETATM   15  C   UNL     1     -43.250 -54.414  13.801  1.00  0.00     0.100 C 
HETATM   16  C   UNL     1     -43.154 -54.927  15.237  1.00  0.00     0.034 C 
BRANCH  15  17
HETATM   17  C   UNL     1     -44.681 -54.478  13.236  1.00  0.00     0.172 C 
BRANCH  17  18
HETATM   18  N   UNL     1     -45.407 -53.226  13.354  1.00  0.00    -0.302 N 
HETATM   19  C   UNL     1     -45.950 -52.695  14.487  1.00  0.00     0.111 A 
HETATM   20  C   UNL     1     -46.553 -51.516  14.106  1.00  0.00     0.037 A 
HETATM   21  C   UNL     1     -46.327 -51.433  12.721  1.00  0.00     0.108 A 
HETATM   22  N   UNL     1     -45.637 -52.478  12.254  1.00  0.00    -0.310 N 
ATOM     23  HN  UNL     1     -45.352 -52.667  11.293  1.00  0.00     0.186 HD
ENDBRANCH  17  18
ENDBRANCH  15  17
ENDBRANCH   1  15
TORSDOF 6
ENDMDL
MODEL 9
REMARK VINA RESULT:      -5.4      3.070      7.574
REMARK  6 active torsions:
REMARK  status: ('A' for Active; 'I' for Inactive)
REMARK    1  A    between atoms: C_2  and  C_3 
REMARK    2  A    between atoms: C_2  and  N_10 
REMARK    3  A    between atoms: C_3  and  N_4 
REMARK       I    between atoms: N_10  and  C_11 
REMARK    4  A    between atoms: C_11  and  C_13 
REMARK    5  A    between atoms: N_15  and  C_16 
REMARK    6  A    between atoms: C_16  and  C_17 
ROOT
HETATM    1  N   UNL     1     -43.315 -49.787  12.476  1.00  0.00    -0.355 N 
HETATM    2  C   UNL     1     -42.000 -49.617  12.099  1.00  0.00     0.224 C 
HETATM    3  O   UNL     1     -41.094 -50.276  12.603  1.00  0.00    -0.273 OA
HETATM    4  H   UNL     1     -44.055 -49.397  11.904  1.00  0.00     0.162 HD
ENDROOT
BRANCH   2   5
HETATM    5  C   UNL     1     -41.767 -48.632  10.967  1.00  0.00     0.104 C 
HETATM    6  C   UNL     1     -40.552 -47.754  11.259  1.00  0.00     0.140 C 
HETATM    7  N   UNL     1     -40.878 -46.473  10.683  1.00  0.00    -0.351 N 
HETATM    8  C   UNL     1     -42.215 -46.354  10.367  1.00  0.00     0.220 C 
HETATM    9  O   UNL     1     -42.774 -45.386   9.880  1.00  0.00    -0.273 OA
HETATM   10  C   UNL     1     -42.908 -47.636  10.756  1.00  0.00     0.118 C 
BRANCH   7  11
HETATM   11  C   UNL     1     -39.918 -45.393  10.580  1.00  0.00     0.130 C 
BRANCH  11  12
HETATM   12  C   UNL     1     -40.034 -44.400  11.704  1.00  0.00     0.004 A 
HETATM   13  C   UNL     1     -38.962 -44.172  12.746  1.00  0.00     0.007 A 
HETATM   14  C   UNL     1     -40.200 -44.938  13.108  1.00  0.00     0.007 A 
ENDBRANCH  11  12
ENDBRANCH   7  11
ENDBRANCH   2   5
BRANCH   1  15
HETATM   15  C   UNL     1     -43.680 -50.738  13.540  1.00  0.00     0.100 C 
HETATM   16  C   UNL     1     -43.774 -49.999  14.875  1.00  0.00     0.034 C 
BRANCH  15  17
HETATM   17  C   UNL     1     -44.967 -51.508  13.189  1.00  0.00     0.172 C 
BRANCH  17  18
HETATM   18  N   UNL     1     -44.929 -52.907  13.577  1.00  0.00    -0.302 N 
HETATM   19  C   UNL     1     -43.873 -53.583  14.113  1.00  0.00     0.111 A 
HETATM   20  C   UNL     1     -44.300 -54.880  14.294  1.00  0.00     0.037 A 
HETATM   21  C   UNL     1     -45.626 -54.885  13.825  1.00  0.00     0.108 A 
HETATM   22  N   UNL     1     -46.012 -53.687  13.377  1.00  0.00    -0.310 N 
ATOM     23  HN  UNL     1     -46.914 -53.423  12.978  1.00  0.00     0.186 HD
ENDBRANCH  17  18
ENDBRANCH  15  17
ENDBRANCH   1  15
TORSDOF 6
ENDMDL
