MODEL 1
REMARK VINA RESULT:      -6.5      0.000      0.000
REMARK  3 active torsions:
REMARK  status: ('A' for Active; 'I' for Inactive)
REMARK    1  A    between atoms: O_2  and  C_3 
REMARK    2  A    between atoms: C_9  and  N_10 
REMARK       I    between atoms: N_10  and  C_11 
REMARK       I    between atoms: C_11  and  N_13 
REMARK    3  A    between atoms: N_13  and  C_14 
ROOT
HETATM    1  N   UNL     1     -42.054 -48.256   9.487  1.00  0.00    -0.305 N 
HETATM    2  C   UNL     1     -41.616 -48.731  10.706  1.00  0.00     0.321 C 
HETATM    3  O   UNL     1     -42.198 -48.599  11.777  1.00  0.00    -0.247 OA
HETATM    4  N   UNL     1     -40.389 -49.354  10.643  1.00  0.00    -0.337 N 
HETATM    5  H   UNL     1     -41.683 -48.667   8.640  1.00  0.00     0.171 HD
HETATM    6  H   UNL     1     -39.938 -49.446   9.744  1.00  0.00     0.164 HD
ENDROOT
BRANCH   1   7
HETATM    7  C   UNL     1     -43.119 -47.322   9.298  1.00  0.00     0.087 A 
HETATM    8  C   UNL     1     -42.930 -45.947   9.526  1.00  0.00     0.169 A 
HETATM    9  N   UNL     1     -43.926 -45.025   9.438  1.00  0.00    -0.345 N 
HETATM   10  C   UNL     1     -45.149 -45.465   9.085  1.00  0.00     0.090 A 
ATOM     11  HN  UNL     1     -43.753 -44.039   9.631  1.00  0.00     0.167 HD
HETATM   12  C   UNL     1     -45.432 -46.788   8.821  1.00  0.00     0.019 A 
HETATM   13  C   UNL     1     -44.408 -47.723   8.945  1.00  0.00     0.035 A 
BRANCH   8  14
HETATM   14  O   UNL     1     -41.655 -45.496   9.822  1.00  0.00    -0.339 OA
HETATM   15  C   UNL     1     -41.570 -44.917  11.131  1.00  0.00     0.211 C 
ENDBRANCH   8  14
ENDBRANCH   1   7
BRANCH   4  16
HETATM   16  C   UNL     1     -39.655 -49.781  11.840  1.00  0.00     0.101 C 
HETATM   17  C   UNL     1     -38.124 -49.809  11.652  1.00  0.00     0.041 C 
HETATM   18  C   UNL     1     -37.491 -50.809  12.621  1.00  0.00     0.142 C 
HETATM   19  S   UNL     1     -38.810 -51.560  13.540  1.00  0.00     0.146 S 
HETATM   20  O   UNL     1     -38.629 -52.997  13.567  1.00  0.00    -0.228 OA
HETATM   21  O   UNL     1     -39.014 -50.788  14.752  1.00  0.00    -0.228 OA
HETATM   22  C   UNL     1     -40.095 -51.139  12.395  1.00  0.00     0.165 C 
ENDBRANCH   4  16
TORSDOF 3
ENDMDL
MODEL 2
REMARK VINA RESULT:      -6.0      4.541      6.912
REMARK  3 active torsions:
REMARK  status: ('A' for Active; 'I' for Inactive)
REMARK    1  A    between atoms: O_2  and  C_3 
REMARK    2  A    between atoms: C_9  and  N_10 
REMARK       I    between atoms: N_10  and  C_11 
REMARK       I    between atoms: C_11  and  N_13 
REMARK    3  A    between atoms: N_13  and  C_14 
ROOT
HETATM    1  N   UNL     1     -41.101 -51.591  11.554  1.00  0.00    -0.305 N 
HETATM    2  C   UNL     1     -42.238 -51.920  12.263  1.00  0.00     0.321 C 
HETATM    3  O   UNL     1     -42.627 -51.371  13.288  1.00  0.00    -0.247 OA
HETATM    4  N   UNL     1     -42.916 -53.000  11.741  1.00  0.00    -0.337 N 
HETATM    5  H   UNL     1     -41.028 -51.877  10.586  1.00  0.00     0.171 HD
HETATM    6  H   UNL     1     -42.568 -53.428  10.895  1.00  0.00     0.164 HD
ENDROOT
BRANCH   1   7
HETATM    7  C   UNL     1     -40.057 -50.732  12.019  1.00  0.00     0.087 A 
HETATM    8  C   UNL     1     -39.063 -51.205  12.894  1.00  0.00     0.169 A 
HETATM    9  N   UNL     1     -38.093 -50.415  13.429  1.00  0.00    -0.345 N 
HETATM   10  C   UNL     1     -38.081 -49.117  13.068  1.00  0.00     0.090 A 
ATOM     11  HN  UNL     1     -37.401 -50.791  14.077  1.00  0.00     0.167 HD
HETATM   12  C   UNL     1     -38.998 -48.563  12.202  1.00  0.00     0.019 A 
HETATM   13  C   UNL     1     -40.002 -49.379  11.686  1.00  0.00     0.035 A 
BRANCH   8  14
HETATM   14  O   UNL     1     -39.043 -52.554  13.205  1.00  0.00    -0.339 OA
HETATM   15  C   UNL     1     -39.337 -52.800  14.587  1.00  0.00     0.211 C 
ENDBRANCH   8  14
ENDBRANCH   1   7
BRANCH   4  16
HETATM   16  C   UNL     1     -44.051 -53.629  12.427  1.00  0.00     0.101 C 
HETATM   17  C   UNL     1     -45.249 -52.681  12.641  1.00  0.00     0.041 C 
HETATM   18  C   UNL     1     -46.077 -53.139  13.844  1.00  0.00     0.142 C 
HETATM   19  S   UNL     1     -45.272 -54.569  14.522  1.00  0.00     0.146 S 
HETATM   20  O   UNL     1     -45.167 -54.432  15.960  1.00  0.00    -0.228 OA
HETATM   21  O   UNL     1     -45.848 -55.748  13.903  1.00  0.00    -0.228 OA
HETATM   22  C   UNL     1     -43.696 -54.267  13.773  1.00  0.00     0.165 C 
ENDBRANCH   4  16
TORSDOF 3
ENDMDL
MODEL 3
REMARK VINA RESULT:      -6.0      4.238      6.370
REMARK  3 active torsions:
REMARK  status: ('A' for Active; 'I' for Inactive)
REMARK    1  A    between atoms: O_2  and  C_3 
REMARK    2  A    between atoms: C_9  and  N_10 
REMARK       I    between atoms: N_10  and  C_11 
REMARK       I    between atoms: C_11  and  N_13 
REMARK    3  A    between atoms: N_13  and  C_14 
ROOT
HETATM    1  N   UNL     1     -41.186 -51.645  11.516  1.00  0.00    -0.305 N 
HETATM    2  C   UNL     1     -42.323 -51.942  12.239  1.00  0.00     0.321 C 
HETATM    3  O   UNL     1     -42.709 -51.351  13.242  1.00  0.00    -0.247 OA
HETATM    4  N   UNL     1     -43.004 -53.040  11.763  1.00  0.00    -0.337 N 
HETATM    5  H   UNL     1     -41.116 -51.970  10.560  1.00  0.00     0.171 HD
HETATM    6  H   UNL     1     -42.658 -53.503  10.935  1.00  0.00     0.164 HD
ENDROOT
BRANCH   1   7
HETATM    7  C   UNL     1     -40.139 -50.770  11.944  1.00  0.00     0.087 A 
HETATM    8  C   UNL     1     -40.057 -49.450  11.469  1.00  0.00     0.169 A 
HETATM    9  N   UNL     1     -39.041 -48.599  11.780  1.00  0.00    -0.345 N 
HETATM   10  C   UNL     1     -38.084 -49.055  12.611  1.00  0.00     0.090 A 
ATOM     11  HN  UNL     1     -39.006 -47.654  11.399  1.00  0.00     0.167 HD
HETATM   12  C   UNL     1     -38.085 -50.325  13.145  1.00  0.00     0.019 A 
HETATM   13  C   UNL     1     -39.117 -51.192  12.794  1.00  0.00     0.035 A 
BRANCH   8  14
HETATM   14  O   UNL     1     -41.081 -48.969  10.670  1.00  0.00    -0.339 OA
HETATM   15  C   UNL     1     -41.268 -47.555  10.815  1.00  0.00     0.211 C 
ENDBRANCH   8  14
ENDBRANCH   1   7
BRANCH   4  16
HETATM   16  C   UNL     1     -44.139 -53.639  12.476  1.00  0.00     0.101 C 
HETATM   17  C   UNL     1     -45.315 -52.665  12.697  1.00  0.00     0.041 C 
HETATM   18  C   UNL     1     -46.131 -53.091  13.920  1.00  0.00     0.142 C 
HETATM   19  S   UNL     1     -45.343 -54.527  14.604  1.00  0.00     0.146 S 
HETATM   20  O   UNL     1     -45.211 -54.373  16.038  1.00  0.00    -0.228 OA
HETATM   21  O   UNL     1     -45.952 -55.703  14.009  1.00  0.00    -0.228 OA
HETATM   22  C   UNL     1     -43.774 -54.265  13.825  1.00  0.00     0.165 C 
ENDBRANCH   4  16
TORSDOF 3
ENDMDL
MODEL 4
REMARK VINA RESULT:      -5.9      4.395      7.015
REMARK  3 active torsions:
REMARK  status: ('A' for Active; 'I' for Inactive)
REMARK    1  A    between atoms: O_2  and  C_3 
REMARK    2  A    between atoms: C_9  and  N_10 
REMARK       I    between atoms: N_10  and  C_11 
REMARK       I    between atoms: C_11  and  N_13 
REMARK    3  A    between atoms: N_13  and  C_14 
ROOT
HETATM    1  N   UNL     1     -42.943 -52.301  12.233  1.00  0.00    -0.305 N 
HETATM    2  C   UNL     1     -42.628 -51.045  12.709  1.00  0.00     0.321 C 
HETATM    3  O   UNL     1     -42.725 -50.675  13.875  1.00  0.00    -0.247 OA
HETATM    4  N   UNL     1     -42.226 -50.171  11.724  1.00  0.00    -0.337 N 
HETATM    5  H   UNL     1     -42.549 -52.603  11.351  1.00  0.00     0.171 HD
HETATM    6  H   UNL     1     -42.157 -50.508  10.775  1.00  0.00     0.164 HD
ENDROOT
BRANCH   1   7
HETATM    7  C   UNL     1     -43.664 -53.303  12.955  1.00  0.00     0.087 A 
HETATM    8  C   UNL     1     -45.059 -53.425  12.831  1.00  0.00     0.169 A 
HETATM    9  N   UNL     1     -45.805 -54.306  13.551  1.00  0.00    -0.345 N 
HETATM   10  C   UNL     1     -45.152 -55.117  14.406  1.00  0.00     0.090 A 
ATOM     11  HN  UNL     1     -46.818 -54.351  13.447  1.00  0.00     0.167 HD
HETATM   12  C   UNL     1     -43.786 -55.089  14.585  1.00  0.00     0.019 A 
HETATM   13  C   UNL     1     -43.041 -54.161  13.861  1.00  0.00     0.035 A 
BRANCH   8  14
HETATM   14  O   UNL     1     -45.712 -52.634  11.901  1.00  0.00    -0.339 OA
HETATM   15  C   UNL     1     -46.561 -51.656  12.516  1.00  0.00     0.211 C 
ENDBRANCH   8  14
ENDBRANCH   1   7
BRANCH   4  16
HETATM   16  C   UNL     1     -42.009 -48.740  11.975  1.00  0.00     0.101 C 
HETATM   17  C   UNL     1     -43.148 -47.841  11.451  1.00  0.00     0.041 C 
HETATM   18  C   UNL     1     -42.619 -46.434  11.161  1.00  0.00     0.142 C 
HETATM   19  S   UNL     1     -40.880 -46.443  11.514  1.00  0.00     0.146 S 
HETATM   20  O   UNL     1     -40.158 -45.816  10.426  1.00  0.00    -0.228 OA
HETATM   21  O   UNL     1     -40.697 -46.033  12.895  1.00  0.00    -0.228 OA
HETATM   22  C   UNL     1     -40.683 -48.201  11.431  1.00  0.00     0.165 C 
ENDBRANCH   4  16
TORSDOF 3
ENDMDL
MODEL 5
REMARK VINA RESULT:      -5.9      3.505      4.508
REMARK  3 active torsions:
REMARK  status: ('A' for Active; 'I' for Inactive)
REMARK    1  A    between atoms: O_2  and  C_3 
REMARK    2  A    between atoms: C_9  and  N_10 
REMARK       I    between atoms: N_10  and  C_11 
REMARK       I    between atoms: C_11  and  N_13 
REMARK    3  A    between atoms: N_13  and  C_14 
ROOT
HETATM    1  N   UNL     1     -41.777 -49.608  11.060  1.00  0.00    -0.305 N 
HETATM    2  C   UNL     1     -42.424 -50.170  12.141  1.00  0.00     0.321 C 
HETATM    3  O   UNL     1     -42.977 -49.552  13.046  1.00  0.00    -0.247 OA
HETATM    4  N   UNL     1     -42.359 -51.545  12.165  1.00  0.00    -0.337 N 
HETATM    5  H   UNL     1     -41.629 -50.171  10.232  1.00  0.00     0.171 HD
HETATM    6  H   UNL     1     -41.896 -52.022  11.405  1.00  0.00     0.164 HD
ENDROOT
BRANCH   1   7
HETATM    7  C   UNL     1     -41.423 -48.229  10.933  1.00  0.00     0.087 A 
HETATM    8  C   UNL     1     -42.175 -47.358  10.125  1.00  0.00     0.169 A 
HETATM    9  N   UNL     1     -41.840 -46.058   9.905  1.00  0.00    -0.345 N 
HETATM   10  C   UNL     1     -40.741 -45.587  10.526  1.00  0.00     0.090 A 
ATOM     11  HN  UNL     1     -42.400 -45.462   9.295  1.00  0.00     0.167 HD
HETATM   12  C   UNL     1     -39.950 -46.354  11.353  1.00  0.00     0.019 A 
HETATM   13  C   UNL     1     -40.291 -47.691  11.544  1.00  0.00     0.035 A 
BRANCH   8  14
HETATM   14  O   UNL     1     -43.339 -47.833   9.546  1.00  0.00    -0.339 OA
HETATM   15  C   UNL     1     -43.454 -47.461   8.166  1.00  0.00     0.211 C 
ENDBRANCH   8  14
ENDBRANCH   1   7
BRANCH   4  16
HETATM   16  C   UNL     1     -42.826 -52.341  13.308  1.00  0.00     0.101 C 
HETATM   17  C   UNL     1     -41.840 -53.448  13.735  1.00  0.00     0.041 C 
HETATM   18  C   UNL     1     -42.592 -54.583  14.436  1.00  0.00     0.142 C 
HETATM   19  S   UNL     1     -44.315 -54.158  14.423  1.00  0.00     0.146 S 
HETATM   20  O   UNL     1     -45.095 -55.300  13.992  1.00  0.00    -0.228 OA
HETATM   21  O   UNL     1     -44.614 -53.443  15.650  1.00  0.00    -0.228 OA
HETATM   22  C   UNL     1     -44.205 -52.976  13.109  1.00  0.00     0.165 C 
ENDBRANCH   4  16
TORSDOF 3
ENDMDL
MODEL 6
REMARK VINA RESULT:      -5.9      3.235      7.070
REMARK  3 active torsions:
REMARK  status: ('A' for Active; 'I' for Inactive)
REMARK    1  A    between atoms: O_2  and  C_3 
REMARK    2  A    between atoms: C_9  and  N_10 
REMARK       I    between atoms: N_10  and  C_11 
REMARK       I    between atoms: C_11  and  N_13 
REMARK    3  A    between atoms: N_13  and  C_14 
ROOT
HETATM    1  N   UNL     1     -41.892 -51.470  11.810  1.00  0.00    -0.305 N 
HETATM    2  C   UNL     1     -41.835 -50.130  12.130  1.00  0.00     0.321 C 
HETATM    3  O   UNL     1     -41.734 -49.667  13.261  1.00  0.00    -0.247 OA
HETATM    4  N   UNL     1     -41.959 -49.300  11.038  1.00  0.00    -0.337 N 
HETATM    5  H   UNL     1     -41.666 -51.758  10.866  1.00  0.00     0.171 HD
HETATM    6  H   UNL     1     -42.041 -49.715  10.121  1.00  0.00     0.164 HD
ENDROOT
BRANCH   1   7
HETATM    7  C   UNL     1     -42.092 -52.536  12.742  1.00  0.00     0.087 A 
HETATM    8  C   UNL     1     -41.004 -53.245  13.280  1.00  0.00     0.169 A 
HETATM    9  N   UNL     1     -41.138 -54.315  14.109  1.00  0.00    -0.345 N 
HETATM   10  C   UNL     1     -42.389 -54.687  14.445  1.00  0.00     0.090 A 
ATOM     11  HN  UNL     1     -40.324 -54.817  14.462  1.00  0.00     0.167 HD
HETATM   12  C   UNL     1     -43.519 -54.044  13.987  1.00  0.00     0.019 A 
HETATM   13  C   UNL     1     -43.365 -52.968  13.116  1.00  0.00     0.035 A 
BRANCH   8  14
HETATM   14  O   UNL     1     -39.722 -52.814  12.983  1.00  0.00    -0.339 OA
HETATM   15  C   UNL     1     -39.098 -52.153  14.091  1.00  0.00     0.211 C 
ENDBRANCH   8  14
ENDBRANCH   1   7
BRANCH   4  16
HETATM   16  C   UNL     1     -42.100 -47.844  11.161  1.00  0.00     0.101 C 
HETATM   17  C   UNL     1     -43.166 -47.242  10.222  1.00  0.00     0.041 C 
HETATM   18  C   UNL     1     -42.842 -45.776   9.926  1.00  0.00     0.142 C 
HETATM   19  S   UNL     1     -41.329 -45.391  10.769  1.00  0.00     0.146 S 
HETATM   20  O   UNL     1     -40.434 -44.692   9.870  1.00  0.00    -0.228 OA
HETATM   21  O   UNL     1     -41.663 -44.867  12.081  1.00  0.00    -0.228 OA
HETATM   22  C   UNL     1     -40.795 -47.068  10.965  1.00  0.00     0.165 C 
ENDBRANCH   4  16
TORSDOF 3
ENDMDL
MODEL 7
REMARK VINA RESULT:      -5.8      3.335      7.302
REMARK  3 active torsions:
REMARK  status: ('A' for Active; 'I' for Inactive)
REMARK    1  A    between atoms: O_2  and  C_3 
REMARK    2  A    between atoms: C_9  and  N_10 
REMARK       I    between atoms: N_10  and  C_11 
REMARK       I    between atoms: C_11  and  N_13 
REMARK    3  A    between atoms: N_13  and  C_14 
ROOT
HETATM    1  N   UNL     1     -41.076 -51.570  11.657  1.00  0.00    -0.305 N 
HETATM    2  C   UNL     1     -41.310 -50.240  11.935  1.00  0.00     0.321 C 
HETATM    3  O   UNL     1     -41.363 -49.740  13.054  1.00  0.00    -0.247 OA
HETATM    4  N   UNL     1     -41.543 -49.478  10.812  1.00  0.00    -0.337 N 
HETATM    5  H   UNL     1     -40.748 -51.827  10.735  1.00  0.00     0.171 HD
HETATM    6  H   UNL     1     -41.491 -49.921   9.907  1.00  0.00     0.164 HD
ENDROOT
BRANCH   1   7
HETATM    7  C   UNL     1     -41.105 -52.633  12.614  1.00  0.00     0.087 A 
HETATM    8  C   UNL     1     -42.308 -53.283  12.942  1.00  0.00     0.169 A 
HETATM    9  N   UNL     1     -42.407 -54.244  13.898  1.00  0.00    -0.345 N 
HETATM   10  C   UNL     1     -41.277 -54.601  14.539  1.00  0.00     0.090 A 
ATOM     11  HN  UNL     1     -43.302 -54.679  14.122  1.00  0.00     0.167 HD
HETATM   12  C   UNL     1     -40.047 -54.038  14.277  1.00  0.00     0.019 A 
HETATM   13  C   UNL     1     -39.968 -53.035  13.314  1.00  0.00     0.035 A 
BRANCH   8  14
HETATM   14  O   UNL     1     -43.451 -52.957  12.230  1.00  0.00    -0.339 OA
HETATM   15  C   UNL     1     -44.602 -53.679  12.687  1.00  0.00     0.211 C 
ENDBRANCH   8  14
ENDBRANCH   1   7
BRANCH   4  16
HETATM   16  C   UNL     1     -41.982 -48.078  10.881  1.00  0.00     0.101 C 
HETATM   17  C   UNL     1     -42.903 -47.660   9.716  1.00  0.00     0.041 C 
HETATM   18  C   UNL     1     -42.807 -46.151   9.482  1.00  0.00     0.142 C 
HETATM   19  S   UNL     1     -41.624 -45.513  10.641  1.00  0.00     0.146 S 
HETATM   20  O   UNL     1     -40.699 -44.632   9.959  1.00  0.00    -0.228 OA
HETATM   21  O   UNL     1     -42.338 -45.102  11.836  1.00  0.00    -0.228 OA
HETATM   22  C   UNL     1     -40.838 -47.065  10.976  1.00  0.00     0.165 C 
ENDBRANCH   4  16
TORSDOF 3
ENDMDL
MODEL 8
REMARK VINA RESULT:      -5.6      3.958      5.303
REMARK  3 active torsions:
REMARK  status: ('A' for Active; 'I' for Inactive)
REMARK    1  A    between atoms: O_2  and  C_3 
REMARK    2  A    between atoms: C_9  and  N_10 
REMARK       I    between atoms: N_10  and  C_11 
REMARK       I    between atoms: C_11  and  N_13 
REMARK    3  A    between atoms: N_13  and  C_14 
ROOT
HETATM    1  N   UNL     1     -41.661 -50.264  11.356  1.00  0.00    -0.305 N 
HETATM    2  C   UNL     1     -42.514 -50.731  12.333  1.00  0.00     0.321 C 
HETATM    3  O   UNL     1     -43.124 -50.040  13.142  1.00  0.00    -0.247 OA
HETATM    4  N   UNL     1     -42.600 -52.105  12.376  1.00  0.00    -0.337 N 
HETATM    5  H   UNL     1     -41.455 -50.858  10.562  1.00  0.00     0.171 HD
HETATM    6  H   UNL     1     -42.084 -52.644  11.695  1.00  0.00     0.164 HD
ENDROOT
BRANCH   1   7
HETATM    7  C   UNL     1     -41.148 -48.932  11.273  1.00  0.00     0.087 A 
HETATM    8  C   UNL     1     -39.947 -48.576  11.911  1.00  0.00     0.169 A 
HETATM    9  N   UNL     1     -39.452 -47.309  11.931  1.00  0.00    -0.345 N 
HETATM   10  C   UNL     1     -40.149 -46.360  11.277  1.00  0.00     0.090 A 
ATOM     11  HN  UNL     1     -38.587 -47.086  12.422  1.00  0.00     0.167 HD
HETATM   12  C   UNL     1     -41.326 -46.612  10.605  1.00  0.00     0.019 A 
HETATM   13  C   UNL     1     -41.833 -47.909  10.619  1.00  0.00     0.035 A 
BRANCH   8  14
HETATM   14  O   UNL     1     -39.202 -49.570  12.523  1.00  0.00    -0.339 OA
HETATM   15  C   UNL     1     -38.005 -49.881  11.798  1.00  0.00     0.211 C 
ENDBRANCH   8  14
ENDBRANCH   1   7
BRANCH   4  16
HETATM   16  C   UNL     1     -43.310 -52.823  13.442  1.00  0.00     0.101 C 
HETATM   17  C   UNL     1     -42.454 -53.898  14.143  1.00  0.00     0.041 C 
HETATM   18  C   UNL     1     -43.353 -54.983  14.740  1.00  0.00     0.142 C 
HETATM   19  S   UNL     1     -45.028 -54.562  14.331  1.00  0.00     0.146 S 
HETATM   20  O   UNL     1     -45.713 -55.731  13.820  1.00  0.00    -0.228 OA
HETATM   21  O   UNL     1     -45.571 -53.765  15.416  1.00  0.00    -0.228 OA
HETATM   22  C   UNL     1     -44.623 -53.471  12.996  1.00  0.00     0.165 C 
ENDBRANCH   4  16
TORSDOF 3
ENDMDL
MODEL 9
REMARK VINA RESULT:      -5.4      4.393      5.543
REMARK  3 active torsions:
REMARK  status: ('A' for Active; 'I' for Inactive)
REMARK    1  A    between atoms: O_2  and  C_3 
REMARK    2  A    between atoms: C_9  and  N_10 
REMARK       I    between atoms: N_10  and  C_11 
REMARK       I    between atoms: C_11  and  N_13 
REMARK    3  A    between atoms: N_13  and  C_14 
ROOT
HETATM    1  N   UNL     1     -42.725 -48.496  13.314  1.00  0.00    -0.305 N 
HETATM    2  C   UNL     1     -43.040 -49.819  13.088  1.00  0.00     0.321 C 
HETATM    3  O   UNL     1     -42.460 -50.572  12.311  1.00  0.00    -0.247 OA
HETATM    4  N   UNL     1     -44.143 -50.249  13.792  1.00  0.00    -0.337 N 
HETATM    5  H   UNL     1     -43.043 -48.057  14.169  1.00  0.00     0.171 HD
HETATM    6  H   UNL     1     -44.597 -49.604  14.422  1.00  0.00     0.164 HD
ENDROOT
BRANCH   1   7
HETATM    7  C   UNL     1     -41.841 -47.707  12.514  1.00  0.00     0.087 A 
HETATM    8  C   UNL     1     -42.188 -47.332  11.204  1.00  0.00     0.169 A 
HETATM    9  N   UNL     1     -41.357 -46.650  10.371  1.00  0.00    -0.345 N 
HETATM   10  C   UNL     1     -40.148 -46.299  10.852  1.00  0.00     0.090 A 
ATOM     11  HN  UNL     1     -41.637 -46.412   9.420  1.00  0.00     0.167 HD
HETATM   12  C   UNL     1     -39.722 -46.603  12.127  1.00  0.00     0.019 A 
HETATM   13  C   UNL     1     -40.575 -47.327  12.957  1.00  0.00     0.035 A 
BRANCH   8  14
HETATM   14  O   UNL     1     -43.457 -47.637  10.742  1.00  0.00    -0.339 OA
HETATM   15  C   UNL     1     -43.570 -47.494   9.321  1.00  0.00     0.211 C 
ENDBRANCH   8  14
ENDBRANCH   1   7
BRANCH   4  16
HETATM   16  C   UNL     1     -44.760 -51.564  13.575  1.00  0.00     0.101 C 
HETATM   17  C   UNL     1     -46.282 -51.583  13.823  1.00  0.00     0.041 C 
HETATM   18  C   UNL     1     -46.738 -52.994  14.203  1.00  0.00     0.142 C 
HETATM   19  S   UNL     1     -45.292 -54.021  14.240  1.00  0.00     0.146 S 
HETATM   20  O   UNL     1     -45.289 -54.816  15.451  1.00  0.00    -0.228 OA
HETATM   21  O   UNL     1     -45.129 -54.620  12.927  1.00  0.00    -0.228 OA
HETATM   22  C   UNL     1     -44.127 -52.696  14.389  1.00  0.00     0.165 C 
ENDBRANCH   4  16
TORSDOF 3
ENDMDL
