MODEL 1
REMARK VINA RESULT:      -7.2      0.000      0.000
REMARK  8 active torsions:
REMARK  status: ('A' for Active; 'I' for Inactive)
REMARK    1  A    between atoms: O_2  and  C_3 
REMARK    2  A    between atoms: C_5  and  C_24 
REMARK    3  A    between atoms: C_8  and  O_9 
REMARK    4  A    between atoms: O_9  and  C_10 
REMARK    5  A    between atoms: C_10  and  C_11 
REMARK    6  A    between atoms: C_11  and  O_12 
REMARK    7  A    between atoms: C_11  and  C_13 
REMARK    8  A    between atoms: C_13  and  N_14 
ROOT
HETATM    1  C   UNL     1     -39.991 -49.404  11.452  1.00  0.00     0.160 C 
ENDROOT
BRANCH   1   2
HETATM    2  C   UNL     1     -39.667 -50.547  12.437  1.00  0.00     0.209 C 
BRANCH   2   3
HETATM    3  O   UNL     1     -40.020 -51.802  11.857  1.00  0.00    -0.346 OA
BRANCH   3   4
HETATM    4  C   UNL     1     -40.872 -52.632  12.542  1.00  0.00     0.102 A 
HETATM    5  C   UNL     1     -40.560 -53.658  13.454  1.00  0.00     0.102 A 
HETATM    6  C   UNL     1     -41.604 -54.381  14.052  1.00  0.00     0.054 A 
HETATM    7  C   UNL     1     -42.945 -54.146  13.710  1.00  0.00     0.012 A 
HETATM    8  C   UNL     1     -43.252 -53.132  12.807  1.00  0.00     0.018 A 
HETATM    9  C   UNL     1     -42.219 -52.382  12.235  1.00  0.00     0.040 A 
BRANCH   5  10
HETATM   10  O   UNL     1     -39.248 -53.914  13.759  1.00  0.00    -0.353 OA
HETATM   11  C   UNL     1     -39.019 -54.902  14.762  1.00  0.00     0.210 C 
ENDBRANCH   5  10
BRANCH   7  12
HETATM   12  C   UNL     1     -43.982 -55.009  14.336  1.00  0.00     0.155 C 
HETATM   13  O   UNL     1     -43.655 -55.805  15.214  1.00  0.00    -0.293 OA
HETATM   14  C   UNL     1     -45.406 -54.925  13.857  1.00  0.00     0.096 C 
ENDBRANCH   7  12
ENDBRANCH   3   4
ENDBRANCH   2   3
ENDBRANCH   1   2
BRANCH   1  15
HETATM   15  O   UNL     1     -40.416 -49.934  10.188  1.00  0.00    -0.392 OA
HETATM   16  H   UNL     1     -39.955 -50.772  10.020  1.00  0.00     0.210 HD
ENDBRANCH   1  15
BRANCH   1  17
HETATM   17  C   UNL     1     -41.103 -48.530  12.045  1.00  0.00     0.164 C 
BRANCH  17  18
HETATM   18  N   UNL     1     -41.499 -47.425  11.195  1.00  0.00    -0.339 N 
HETATM   19  C   UNL     1     -40.668 -46.415  10.796  1.00  0.00     0.184 A 
HETATM   20  N   UNL     1     -41.249 -45.615   9.932  1.00  0.00    -0.350 N 
HETATM   21  C   UNL     1     -42.517 -46.118   9.778  1.00  0.00     0.060 A 
ATOM     22  HN  UNL     1     -40.845 -44.798   9.474  1.00  0.00     0.166 HD
HETATM   23  C   UNL     1     -43.564 -45.651   8.970  1.00  0.00     0.032 A 
HETATM   24  C   UNL     1     -42.709 -47.257  10.560  1.00  0.00     0.062 A 
HETATM   25  C   UNL     1     -44.780 -46.343   8.976  1.00  0.00     0.002 A 
HETATM   26  C   UNL     1     -44.951 -47.478   9.771  1.00  0.00     0.002 A 
HETATM   27  C   UNL     1     -43.915 -47.963  10.581  1.00  0.00     0.032 A 
ENDBRANCH  17  18
ENDBRANCH   1  17
TORSDOF 8
ENDMDL
MODEL 2
REMARK VINA RESULT:      -6.7      3.110      5.728
REMARK  8 active torsions:
REMARK  status: ('A' for Active; 'I' for Inactive)
REMARK    1  A    between atoms: O_2  and  C_3 
REMARK    2  A    between atoms: C_5  and  C_24 
REMARK    3  A    between atoms: C_8  and  O_9 
REMARK    4  A    between atoms: O_9  and  C_10 
REMARK    5  A    between atoms: C_10  and  C_11 
REMARK    6  A    between atoms: C_11  and  O_12 
REMARK    7  A    between atoms: C_11  and  C_13 
REMARK    8  A    between atoms: C_13  and  N_14 
ROOT
HETATM    1  C   UNL     1     -40.902 -51.738  11.977  1.00  0.00     0.160 C 
ENDROOT
BRANCH   1   2
HETATM    2  C   UNL     1     -40.719 -52.508  13.302  1.00  0.00     0.209 C 
BRANCH   2   3
HETATM    3  O   UNL     1     -39.338 -52.799  13.506  1.00  0.00    -0.346 OA
BRANCH   3   4
HETATM    4  C   UNL     1     -38.528 -51.827  14.040  1.00  0.00     0.102 A 
HETATM    5  C   UNL     1     -37.586 -51.009  13.388  1.00  0.00     0.102 A 
HETATM    6  C   UNL     1     -36.870 -50.063  14.138  1.00  0.00     0.054 A 
HETATM    7  C   UNL     1     -37.025 -49.964  15.529  1.00  0.00     0.012 A 
HETATM    8  C   UNL     1     -37.956 -50.775  16.173  1.00  0.00     0.018 A 
HETATM    9  C   UNL     1     -38.702 -51.693  15.427  1.00  0.00     0.040 A 
BRANCH   5  10
HETATM   10  O   UNL     1     -37.406 -51.133  12.035  1.00  0.00    -0.353 OA
HETATM   11  C   UNL     1     -37.472 -49.923  11.281  1.00  0.00     0.210 C 
ENDBRANCH   5  10
BRANCH   7  12
HETATM   12  C   UNL     1     -36.171 -48.985  16.255  1.00  0.00     0.155 C 
HETATM   13  O   UNL     1     -34.955 -49.160  16.296  1.00  0.00    -0.293 OA
HETATM   14  C   UNL     1     -36.812 -47.822  16.962  1.00  0.00     0.096 C 
ENDBRANCH   7  12
ENDBRANCH   3   4
ENDBRANCH   2   3
ENDBRANCH   1   2
BRANCH   1  15
HETATM   15  O   UNL     1     -41.470 -52.592  10.973  1.00  0.00    -0.392 OA
HETATM   16  H   UNL     1     -42.379 -52.305  10.785  1.00  0.00     0.210 HD
ENDBRANCH   1  15
BRANCH   1  17
HETATM   17  C   UNL     1     -41.827 -50.538  12.216  1.00  0.00     0.164 C 
BRANCH  17  18
HETATM   18  N   UNL     1     -41.245 -49.264  11.849  1.00  0.00    -0.339 N 
HETATM   19  C   UNL     1     -41.368 -48.678  10.618  1.00  0.00     0.184 A 
HETATM   20  N   UNL     1     -40.850 -47.472  10.596  1.00  0.00    -0.350 N 
HETATM   21  C   UNL     1     -40.354 -47.274  11.861  1.00  0.00     0.060 A 
ATOM     22  HN  UNL     1     -40.823 -46.823   9.809  1.00  0.00     0.166 HD
HETATM   23  C   UNL     1     -39.695 -46.154  12.389  1.00  0.00     0.032 A 
HETATM   24  C   UNL     1     -40.584 -48.383  12.676  1.00  0.00     0.062 A 
HETATM   25  C   UNL     1     -39.281 -46.184  13.726  1.00  0.00     0.002 A 
HETATM   26  C   UNL     1     -39.519 -47.308  14.521  1.00  0.00     0.002 A 
HETATM   27  C   UNL     1     -40.179 -48.434  14.012  1.00  0.00     0.032 A 
ENDBRANCH  17  18
ENDBRANCH   1  17
TORSDOF 8
ENDMDL
MODEL 3
REMARK VINA RESULT:      -6.7      3.082      7.902
REMARK  8 active torsions:
REMARK  status: ('A' for Active; 'I' for Inactive)
REMARK    1  A    between atoms: O_2  and  C_3 
REMARK    2  A    between atoms: C_5  and  C_24 
REMARK    3  A    between atoms: C_8  and  O_9 
REMARK    4  A    between atoms: O_9  and  C_10 
REMARK    5  A    between atoms: C_10  and  C_11 
REMARK    6  A    between atoms: C_11  and  O_12 
REMARK    7  A    between atoms: C_11  and  C_13 
REMARK    8  A    between atoms: C_13  and  N_14 
ROOT
HETATM    1  C   UNL     1     -41.578 -52.211  11.870  1.00  0.00     0.160 C 
ENDROOT
BRANCH   1   2
HETATM    2  C   UNL     1     -40.972 -50.793  11.886  1.00  0.00     0.209 C 
BRANCH   2   3
HETATM    3  O   UNL     1     -41.997 -49.824  11.679  1.00  0.00    -0.346 OA
BRANCH   3   4
HETATM    4  C   UNL     1     -41.640 -48.543  11.336  1.00  0.00     0.102 A 
HETATM    5  C   UNL     1     -42.340 -47.615  10.543  1.00  0.00     0.102 A 
HETATM    6  C   UNL     1     -41.786 -46.343  10.331  1.00  0.00     0.054 A 
HETATM    7  C   UNL     1     -40.521 -46.004  10.837  1.00  0.00     0.012 A 
HETATM    8  C   UNL     1     -39.829 -46.924  11.620  1.00  0.00     0.018 A 
HETATM    9  C   UNL     1     -40.392 -48.180  11.868  1.00  0.00     0.040 A 
BRANCH   5  10
HETATM   10  O   UNL     1     -43.558 -47.959  10.017  1.00  0.00    -0.353 OA
HETATM   11  C   UNL     1     -43.782 -47.585   8.658  1.00  0.00     0.210 C 
ENDBRANCH   5  10
BRANCH   7  12
HETATM   12  C   UNL     1     -39.977 -44.660  10.502  1.00  0.00     0.155 C 
HETATM   13  O   UNL     1     -39.398 -44.494   9.429  1.00  0.00    -0.293 OA
HETATM   14  C   UNL     1     -40.104 -43.538  11.495  1.00  0.00     0.096 C 
ENDBRANCH   7  12
ENDBRANCH   3   4
ENDBRANCH   2   3
ENDBRANCH   1   2
BRANCH   1  15
HETATM   15  O   UNL     1     -40.588 -53.178  11.491  1.00  0.00    -0.392 OA
HETATM   16  H   UNL     1     -40.739 -53.446  10.569  1.00  0.00     0.210 HD
ENDBRANCH   1  15
BRANCH   1  17
HETATM   17  C   UNL     1     -42.115 -52.544  13.268  1.00  0.00     0.164 C 
BRANCH  17  18
HETATM   18  N   UNL     1     -43.547 -52.755  13.314  1.00  0.00    -0.339 N 
HETATM   19  C   UNL     1     -44.217 -53.701  12.587  1.00  0.00     0.184 A 
HETATM   20  N   UNL     1     -45.488 -53.759  12.912  1.00  0.00    -0.350 N 
HETATM   21  C   UNL     1     -45.653 -52.798  13.878  1.00  0.00     0.060 A 
ATOM     22  HN  UNL     1     -46.199 -54.383  12.529  1.00  0.00     0.166 HD
HETATM   23  C   UNL     1     -46.813 -52.431  14.575  1.00  0.00     0.032 A 
HETATM   24  C   UNL     1     -44.451 -52.145  14.155  1.00  0.00     0.062 A 
HETATM   25  C   UNL     1     -46.732 -51.411  15.530  1.00  0.00     0.002 A 
HETATM   26  C   UNL     1     -45.519 -50.770  15.787  1.00  0.00     0.002 A 
HETATM   27  C   UNL     1     -44.348 -51.125  15.104  1.00  0.00     0.032 A 
ENDBRANCH  17  18
ENDBRANCH   1  17
TORSDOF 8
ENDMDL
MODEL 4
REMARK VINA RESULT:      -6.6      1.383      2.653
REMARK  8 active torsions:
REMARK  status: ('A' for Active; 'I' for Inactive)
REMARK    1  A    between atoms: O_2  and  C_3 
REMARK    2  A    between atoms: C_5  and  C_24 
REMARK    3  A    between atoms: C_8  and  O_9 
REMARK    4  A    between atoms: O_9  and  C_10 
REMARK    5  A    between atoms: C_10  and  C_11 
REMARK    6  A    between atoms: C_11  and  O_12 
REMARK    7  A    between atoms: C_11  and  C_13 
REMARK    8  A    between atoms: C_13  and  N_14 
ROOT
HETATM    1  C   UNL     1     -39.780 -49.571  11.479  1.00  0.00     0.160 C 
ENDROOT
BRANCH   1   2
HETATM    2  C   UNL     1     -39.524 -50.745  12.447  1.00  0.00     0.209 C 
BRANCH   2   3
HETATM    3  O   UNL     1     -40.008 -51.959  11.877  1.00  0.00    -0.346 OA
BRANCH   3   4
HETATM    4  C   UNL     1     -40.905 -52.715  12.592  1.00  0.00     0.102 A 
HETATM    5  C   UNL     1     -40.659 -53.828  13.417  1.00  0.00     0.102 A 
HETATM    6  C   UNL     1     -41.737 -54.446  14.068  1.00  0.00     0.054 A 
HETATM    7  C   UNL     1     -43.059 -54.020  13.860  1.00  0.00     0.012 A 
HETATM    8  C   UNL     1     -43.301 -52.920  13.041  1.00  0.00     0.018 A 
HETATM    9  C   UNL     1     -42.227 -52.274  12.420  1.00  0.00     0.040 A 
BRANCH   5  10
HETATM   10  O   UNL     1     -39.372 -54.268  13.591  1.00  0.00    -0.353 OA
HETATM   11  C   UNL     1     -39.085 -54.885  14.845  1.00  0.00     0.210 C 
ENDBRANCH   5  10
BRANCH   7  12
HETATM   12  C   UNL     1     -44.148 -54.780  14.531  1.00  0.00     0.155 C 
HETATM   13  O   UNL     1     -44.020 -55.103  15.710  1.00  0.00    -0.293 OA
HETATM   14  C   UNL     1     -45.368 -55.179  13.745  1.00  0.00     0.096 C 
ENDBRANCH   7  12
ENDBRANCH   3   4
ENDBRANCH   2   3
ENDBRANCH   1   2
BRANCH   1  15
HETATM   15  O   UNL     1     -40.254 -50.056  10.214  1.00  0.00    -0.392 OA
HETATM   16  H   UNL     1     -40.835 -50.820  10.362  1.00  0.00     0.210 HD
ENDBRANCH   1  15
BRANCH   1  17
HETATM   17  C   UNL     1     -40.825 -48.631  12.094  1.00  0.00     0.164 C 
BRANCH  17  18
HETATM   18  N   UNL     1     -40.823 -47.298  11.528  1.00  0.00    -0.339 N 
HETATM   19  C   UNL     1     -41.503 -46.932  10.398  1.00  0.00     0.184 A 
HETATM   20  N   UNL     1     -41.430 -45.640  10.179  1.00  0.00    -0.350 N 
HETATM   21  C   UNL     1     -40.654 -45.149  11.199  1.00  0.00     0.060 A 
ATOM     22  HN  UNL     1     -41.857 -45.115   9.415  1.00  0.00     0.166 HD
HETATM   23  C   UNL     1     -40.256 -43.829  11.454  1.00  0.00     0.032 A 
HETATM   24  C   UNL     1     -40.253 -46.166  12.067  1.00  0.00     0.062 A 
HETATM   25  C   UNL     1     -39.458 -43.569  12.574  1.00  0.00     0.002 A 
HETATM   26  C   UNL     1     -39.066 -44.605  13.426  1.00  0.00     0.002 A 
HETATM   27  C   UNL     1     -39.457 -45.929  13.191  1.00  0.00     0.032 A 
ENDBRANCH  17  18
ENDBRANCH   1  17
TORSDOF 8
ENDMDL
MODEL 5
REMARK VINA RESULT:      -6.6      2.958      6.466
REMARK  8 active torsions:
REMARK  status: ('A' for Active; 'I' for Inactive)
REMARK    1  A    between atoms: O_2  and  C_3 
REMARK    2  A    between atoms: C_5  and  C_24 
REMARK    3  A    between atoms: C_8  and  O_9 
REMARK    4  A    between atoms: O_9  and  C_10 
REMARK    5  A    between atoms: C_10  and  C_11 
REMARK    6  A    between atoms: C_11  and  O_12 
REMARK    7  A    between atoms: C_11  and  C_13 
REMARK    8  A    between atoms: C_13  and  N_14 
ROOT
HETATM    1  C   UNL     1     -41.235 -52.878  12.494  1.00  0.00     0.160 C 
ENDROOT
BRANCH   1   2
HETATM    2  C   UNL     1     -40.159 -52.207  13.374  1.00  0.00     0.209 C 
BRANCH   2   3
HETATM    3  O   UNL     1     -40.606 -50.918  13.789  1.00  0.00    -0.346 OA
BRANCH   3   4
HETATM    4  C   UNL     1     -41.118 -50.059  12.847  1.00  0.00     0.102 A 
HETATM    5  C   UNL     1     -40.492 -49.534  11.701  1.00  0.00     0.102 A 
HETATM    6  C   UNL     1     -41.216 -48.673  10.862  1.00  0.00     0.054 A 
HETATM    7  C   UNL     1     -42.525 -48.275  11.178  1.00  0.00     0.012 A 
HETATM    8  C   UNL     1     -43.142 -48.794  12.313  1.00  0.00     0.018 A 
HETATM    9  C   UNL     1     -42.440 -49.683  13.133  1.00  0.00     0.040 A 
BRANCH   5  10
HETATM   10  O   UNL     1     -39.200 -49.893  11.412  1.00  0.00    -0.353 OA
HETATM   11  C   UNL     1     -38.183 -49.215  12.147  1.00  0.00     0.210 C 
ENDBRANCH   5  10
BRANCH   7  12
HETATM   12  C   UNL     1     -43.192 -47.301  10.272  1.00  0.00     0.155 C 
HETATM   13  O   UNL     1     -42.569 -46.315   9.883  1.00  0.00    -0.293 OA
HETATM   14  C   UNL     1     -44.629 -47.513   9.882  1.00  0.00     0.096 C 
ENDBRANCH   7  12
ENDBRANCH   3   4
ENDBRANCH   2   3
ENDBRANCH   1   2
BRANCH   1  15
HETATM   15  O   UNL     1     -40.627 -53.550  11.381  1.00  0.00    -0.392 OA
HETATM   16  H   UNL     1     -41.205 -54.276  11.091  1.00  0.00     0.210 HD
ENDBRANCH   1  15
BRANCH   1  17
HETATM   17  C   UNL     1     -42.019 -53.888  13.340  1.00  0.00     0.164 C 
BRANCH  17  18
HETATM   18  N   UNL     1     -42.995 -53.283  14.224  1.00  0.00    -0.339 N 
HETATM   19  C   UNL     1     -42.799 -53.055  15.559  1.00  0.00     0.184 A 
HETATM   20  N   UNL     1     -43.793 -52.384  16.092  1.00  0.00    -0.350 N 
HETATM   21  C   UNL     1     -44.680 -52.184  15.063  1.00  0.00     0.060 A 
ATOM     22  HN  UNL     1     -43.887 -52.077  17.060  1.00  0.00     0.166 HD
HETATM   23  C   UNL     1     -45.917 -51.522  15.074  1.00  0.00     0.032 A 
HETATM   24  C   UNL     1     -44.210 -52.739  13.873  1.00  0.00     0.062 A 
HETATM   25  C   UNL     1     -46.649 -51.442  13.884  1.00  0.00     0.002 A 
HETATM   26  C   UNL     1     -46.160 -52.009  12.706  1.00  0.00     0.002 A 
HETATM   27  C   UNL     1     -44.925 -52.671  12.674  1.00  0.00     0.032 A 
ENDBRANCH  17  18
ENDBRANCH   1  17
TORSDOF 8
ENDMDL
MODEL 6
REMARK VINA RESULT:      -6.4      3.691      6.187
REMARK  8 active torsions:
REMARK  status: ('A' for Active; 'I' for Inactive)
REMARK    1  A    between atoms: O_2  and  C_3 
REMARK    2  A    between atoms: C_5  and  C_24 
REMARK    3  A    between atoms: C_8  and  O_9 
REMARK    4  A    between atoms: O_9  and  C_10 
REMARK    5  A    between atoms: C_10  and  C_11 
REMARK    6  A    between atoms: C_11  and  O_12 
REMARK    7  A    between atoms: C_11  and  C_13 
REMARK    8  A    between atoms: C_13  and  N_14 
ROOT
HETATM    1  C   UNL     1     -46.478 -54.442  15.192  1.00  0.00     0.160 C 
ENDROOT
BRANCH   1   2
HETATM    2  C   UNL     1     -45.591 -54.874  14.005  1.00  0.00     0.209 C 
BRANCH   2   3
HETATM    3  O   UNL     1     -44.389 -55.468  14.489  1.00  0.00    -0.346 OA
BRANCH   3   4
HETATM    4  C   UNL     1     -43.232 -54.729  14.475  1.00  0.00     0.102 A 
HETATM    5  C   UNL     1     -42.344 -54.459  15.533  1.00  0.00     0.102 A 
HETATM    6  C   UNL     1     -41.203 -53.681  15.286  1.00  0.00     0.054 A 
HETATM    7  C   UNL     1     -40.966 -53.112  14.025  1.00  0.00     0.012 A 
HETATM    8  C   UNL     1     -41.846 -53.377  12.979  1.00  0.00     0.018 A 
HETATM    9  C   UNL     1     -42.965 -54.185  13.208  1.00  0.00     0.040 A 
BRANCH   5  10
HETATM   10  O   UNL     1     -42.596 -54.983  16.775  1.00  0.00    -0.353 OA
HETATM   11  C   UNL     1     -42.024 -56.263  17.043  1.00  0.00     0.210 C 
ENDBRANCH   5  10
BRANCH   7  12
HETATM   12  C   UNL     1     -39.772 -52.238  13.871  1.00  0.00     0.155 C 
HETATM   13  O   UNL     1     -39.366 -51.964  12.743  1.00  0.00    -0.293 OA
HETATM   14  C   UNL     1     -39.054 -51.738  15.096  1.00  0.00     0.096 C 
ENDBRANCH   7  12
ENDBRANCH   3   4
ENDBRANCH   2   3
ENDBRANCH   1   2
BRANCH   1  15
HETATM   15  O   UNL     1     -45.751 -54.538  16.425  1.00  0.00    -0.392 OA
HETATM   16  H   UNL     1     -45.245 -53.720  16.562  1.00  0.00     0.210 HD
ENDBRANCH   1  15
BRANCH   1  17
HETATM   17  C   UNL     1     -46.938 -52.995  14.975  1.00  0.00     0.164 C 
BRANCH  17  18
HETATM   18  N   UNL     1     -45.995 -52.183  14.233  1.00  0.00    -0.339 N 
HETATM   19  C   UNL     1     -46.116 -51.867  12.907  1.00  0.00     0.184 A 
HETATM   20  N   UNL     1     -45.192 -51.019  12.519  1.00  0.00    -0.350 N 
HETATM   21  C   UNL     1     -44.430 -50.787  13.637  1.00  0.00     0.060 A 
ATOM     22  HN  UNL     1     -45.069 -50.618  11.589  1.00  0.00     0.166 HD
HETATM   23  C   UNL     1     -43.308 -49.959  13.789  1.00  0.00     0.032 A 
HETATM   24  C   UNL     1     -44.906 -51.505  14.734  1.00  0.00     0.062 A 
HETATM   25  C   UNL     1     -42.692 -49.881  15.043  1.00  0.00     0.002 A 
HETATM   26  C   UNL     1     -43.185 -50.613  16.126  1.00  0.00     0.002 A 
HETATM   27  C   UNL     1     -44.307 -51.442  15.995  1.00  0.00     0.032 A 
ENDBRANCH  17  18
ENDBRANCH   1  17
TORSDOF 8
ENDMDL
MODEL 7
REMARK VINA RESULT:      -6.3      3.036      4.350
REMARK  8 active torsions:
REMARK  status: ('A' for Active; 'I' for Inactive)
REMARK    1  A    between atoms: O_2  and  C_3 
REMARK    2  A    between atoms: C_5  and  C_24 
REMARK    3  A    between atoms: C_8  and  O_9 
REMARK    4  A    between atoms: O_9  and  C_10 
REMARK    5  A    between atoms: C_10  and  C_11 
REMARK    6  A    between atoms: C_11  and  O_12 
REMARK    7  A    between atoms: C_11  and  C_13 
REMARK    8  A    between atoms: C_13  and  N_14 
ROOT
HETATM    1  C   UNL     1     -40.910 -50.808  11.768  1.00  0.00     0.160 C 
ENDROOT
BRANCH   1   2
HETATM    2  C   UNL     1     -41.329 -52.280  11.567  1.00  0.00     0.209 C 
BRANCH   2   3
HETATM    3  O   UNL     1     -40.493 -53.133  12.347  1.00  0.00    -0.346 OA
BRANCH   3   4
HETATM    4  C   UNL     1     -40.946 -53.567  13.569  1.00  0.00     0.102 A 
HETATM    5  C   UNL     1     -40.251 -53.641  14.791  1.00  0.00     0.102 A 
HETATM    6  C   UNL     1     -40.923 -54.110  15.930  1.00  0.00     0.054 A 
HETATM    7  C   UNL     1     -42.248 -54.569  15.860  1.00  0.00     0.012 A 
HETATM    8  C   UNL     1     -42.933 -54.497  14.650  1.00  0.00     0.018 A 
HETATM    9  C   UNL     1     -42.282 -53.994  13.518  1.00  0.00     0.040 A 
BRANCH   5  10
HETATM   10  O   UNL     1     -38.945 -53.228  14.851  1.00  0.00    -0.353 OA
HETATM   11  C   UNL     1     -38.737 -51.822  14.977  1.00  0.00     0.210 C 
ENDBRANCH   5  10
BRANCH   7  12
HETATM   12  C   UNL     1     -42.858 -55.120  17.100  1.00  0.00     0.155 C 
HETATM   13  O   UNL     1     -42.806 -56.331  17.311  1.00  0.00    -0.293 OA
HETATM   14  C   UNL     1     -43.565 -54.196  18.054  1.00  0.00     0.096 C 
ENDBRANCH   7  12
ENDBRANCH   3   4
ENDBRANCH   2   3
ENDBRANCH   1   2
BRANCH   1  15
HETATM   15  O   UNL     1     -40.398 -50.259  10.546  1.00  0.00    -0.392 OA
HETATM   16  H   UNL     1     -39.712 -50.849  10.192  1.00  0.00     0.210 HD
ENDBRANCH   1  15
BRANCH   1  17
HETATM   17  C   UNL     1     -42.128 -49.997  12.228  1.00  0.00     0.164 C 
BRANCH  17  18
HETATM   18  N   UNL     1     -42.627 -50.375  13.534  1.00  0.00    -0.339 N 
HETATM   19  C   UNL     1     -41.923 -50.252  14.701  1.00  0.00     0.184 A 
HETATM   20  N   UNL     1     -42.655 -50.550  15.749  1.00  0.00    -0.350 N 
HETATM   21  C   UNL     1     -43.881 -50.898  15.239  1.00  0.00     0.060 A 
ATOM     22  HN  UNL     1     -42.374 -50.528  16.730  1.00  0.00     0.166 HD
HETATM   23  C   UNL     1     -45.040 -51.303  15.917  1.00  0.00     0.032 A 
HETATM   24  C   UNL     1     -43.899 -50.800  13.848  1.00  0.00     0.062 A 
HETATM   25  C   UNL     1     -46.186 -51.605  15.172  1.00  0.00     0.002 A 
HETATM   26  C   UNL     1     -46.179 -51.503  13.779  1.00  0.00     0.002 A 
HETATM   27  C   UNL     1     -45.032 -51.096  13.085  1.00  0.00     0.032 A 
ENDBRANCH  17  18
ENDBRANCH   1  17
TORSDOF 8
ENDMDL
MODEL 8
REMARK VINA RESULT:      -6.3      3.830      6.725
REMARK  8 active torsions:
REMARK  status: ('A' for Active; 'I' for Inactive)
REMARK    1  A    between atoms: O_2  and  C_3 
REMARK    2  A    between atoms: C_5  and  C_24 
REMARK    3  A    between atoms: C_8  and  O_9 
REMARK    4  A    between atoms: O_9  and  C_10 
REMARK    5  A    between atoms: C_10  and  C_11 
REMARK    6  A    between atoms: C_11  and  O_12 
REMARK    7  A    between atoms: C_11  and  C_13 
REMARK    8  A    between atoms: C_13  and  N_14 
ROOT
HETATM    1  C   UNL     1     -40.935 -53.049  12.785  1.00  0.00     0.160 C 
ENDROOT
BRANCH   1   2
HETATM    2  C   UNL     1     -40.016 -53.668  13.860  1.00  0.00     0.209 C 
BRANCH   2   3
HETATM    3  O   UNL     1     -38.689 -53.168  13.709  1.00  0.00    -0.346 OA
BRANCH   3   4
HETATM    4  C   UNL     1     -38.433 -51.858  14.034  1.00  0.00     0.102 A 
HETATM    5  C   UNL     1     -38.158 -50.775  13.179  1.00  0.00     0.102 A 
HETATM    6  C   UNL     1     -37.937 -49.505  13.734  1.00  0.00     0.054 A 
HETATM    7  C   UNL     1     -37.919 -49.309  15.124  1.00  0.00     0.012 A 
HETATM    8  C   UNL     1     -38.189 -50.382  15.970  1.00  0.00     0.018 A 
HETATM    9  C   UNL     1     -38.449 -51.643  15.421  1.00  0.00     0.040 A 
BRANCH   5  10
HETATM   10  O   UNL     1     -38.138 -50.974  11.822  1.00  0.00    -0.353 OA
HETATM   11  C   UNL     1     -37.308 -50.089  11.071  1.00  0.00     0.210 C 
ENDBRANCH   5  10
BRANCH   7  12
HETATM   12  C   UNL     1     -37.602 -47.946  15.629  1.00  0.00     0.155 C 
HETATM   13  O   UNL     1     -38.248 -46.984  15.216  1.00  0.00    -0.293 OA
HETATM   14  C   UNL     1     -36.470 -47.759  16.603  1.00  0.00     0.096 C 
ENDBRANCH   7  12
ENDBRANCH   3   4
ENDBRANCH   2   3
ENDBRANCH   1   2
BRANCH   1  15
HETATM   15  O   UNL     1     -40.442 -53.345  11.471  1.00  0.00    -0.392 OA
HETATM   16  H   UNL     1     -40.742 -52.656  10.854  1.00  0.00     0.210 HD
ENDBRANCH   1  15
BRANCH   1  17
HETATM   17  C   UNL     1     -42.350 -53.619  12.946  1.00  0.00     0.164 C 
BRANCH  17  18
HETATM   18  N   UNL     1     -43.355 -52.620  13.249  1.00  0.00    -0.339 N 
HETATM   19  C   UNL     1     -43.292 -51.310  12.858  1.00  0.00     0.184 A 
HETATM   20  N   UNL     1     -44.391 -50.657  13.157  1.00  0.00    -0.350 N 
HETATM   21  C   UNL     1     -45.193 -51.577  13.785  1.00  0.00     0.060 A 
ATOM     22  HN  UNL     1     -44.602 -49.677  12.965  1.00  0.00     0.166 HD
HETATM   23  C   UNL     1     -46.482 -51.416  14.312  1.00  0.00     0.032 A 
HETATM   24  C   UNL     1     -44.572 -52.824  13.861  1.00  0.00     0.062 A 
HETATM   25  C   UNL     1     -47.110 -52.516  14.909  1.00  0.00     0.002 A 
HETATM   26  C   UNL     1     -46.466 -53.753  14.977  1.00  0.00     0.002 A 
HETATM   27  C   UNL     1     -45.180 -53.935  14.451  1.00  0.00     0.032 A 
ENDBRANCH  17  18
ENDBRANCH   1  17
TORSDOF 8
ENDMDL
MODEL 9
REMARK VINA RESULT:      -6.2      1.460      2.522
REMARK  8 active torsions:
REMARK  status: ('A' for Active; 'I' for Inactive)
REMARK    1  A    between atoms: O_2  and  C_3 
REMARK    2  A    between atoms: C_5  and  C_24 
REMARK    3  A    between atoms: C_8  and  O_9 
REMARK    4  A    between atoms: O_9  and  C_10 
REMARK    5  A    between atoms: C_10  and  C_11 
REMARK    6  A    between atoms: C_11  and  O_12 
REMARK    7  A    between atoms: C_11  and  C_13 
REMARK    8  A    between atoms: C_13  and  N_14 
ROOT
HETATM    1  C   UNL     1     -39.963 -49.529  11.560  1.00  0.00     0.160 C 
ENDROOT
BRANCH   1   2
HETATM    2  C   UNL     1     -39.650 -50.645  12.578  1.00  0.00     0.209 C 
BRANCH   2   3
HETATM    3  O   UNL     1     -40.524 -51.752  12.369  1.00  0.00    -0.346 OA
BRANCH   3   4
HETATM    4  C   UNL     1     -40.608 -52.722  13.337  1.00  0.00     0.102 A 
HETATM    5  C   UNL     1     -41.758 -53.293  13.915  1.00  0.00     0.102 A 
HETATM    6  C   UNL     1     -41.607 -54.291  14.891  1.00  0.00     0.054 A 
HETATM    7  C   UNL     1     -40.338 -54.681  15.348  1.00  0.00     0.012 A 
HETATM    8  C   UNL     1     -39.202 -54.113  14.776  1.00  0.00     0.018 A 
HETATM    9  C   UNL     1     -39.344 -53.146  13.775  1.00  0.00     0.040 A 
BRANCH   5  10
HETATM   10  O   UNL     1     -42.998 -52.885  13.496  1.00  0.00    -0.353 OA
HETATM   11  C   UNL     1     -43.766 -53.850  12.779  1.00  0.00     0.210 C 
ENDBRANCH   5  10
BRANCH   7  12
HETATM   12  C   UNL     1     -40.273 -55.691  16.438  1.00  0.00     0.155 C 
HETATM   13  O   UNL     1     -39.444 -56.596  16.373  1.00  0.00    -0.293 OA
HETATM   14  C   UNL     1     -41.250 -55.615  17.580  1.00  0.00     0.096 C 
ENDBRANCH   7  12
ENDBRANCH   3   4
ENDBRANCH   2   3
ENDBRANCH   1   2
BRANCH   1  15
HETATM   15  O   UNL     1     -40.362 -50.093  10.302  1.00  0.00    -0.392 OA
HETATM   16  H   UNL     1     -39.586 -50.159   9.720  1.00  0.00     0.210 HD
ENDBRANCH   1  15
BRANCH   1  17
HETATM   17  C   UNL     1     -41.091 -48.648  12.111  1.00  0.00     0.164 C 
BRANCH  17  18
HETATM   18  N   UNL     1     -41.445 -47.538  11.250  1.00  0.00    -0.339 N 
HETATM   19  C   UNL     1     -40.576 -46.561  10.844  1.00  0.00     0.184 A 
HETATM   20  N   UNL     1     -41.126 -45.750   9.971  1.00  0.00    -0.350 N 
HETATM   21  C   UNL     1     -42.410 -46.209   9.816  1.00  0.00     0.060 A 
ATOM     22  HN  UNL     1     -40.691 -44.951   9.507  1.00  0.00     0.166 HD
HETATM   23  C   UNL     1     -43.437 -45.713   8.999  1.00  0.00     0.032 A 
HETATM   24  C   UNL     1     -42.646 -47.333  10.608  1.00  0.00     0.062 A 
HETATM   25  C   UNL     1     -44.677 -46.361   9.007  1.00  0.00     0.002 A 
HETATM   26  C   UNL     1     -44.891 -47.482   9.812  1.00  0.00     0.002 A 
HETATM   27  C   UNL     1     -43.876 -47.995  10.631  1.00  0.00     0.032 A 
ENDBRANCH  17  18
ENDBRANCH   1  17
TORSDOF 8
ENDMDL
