MODEL 1
REMARK VINA RESULT:      -6.9      0.000      0.000
REMARK  6 active torsions:
REMARK  status: ('A' for Active; 'I' for Inactive)
REMARK    1  A    between atoms: N_2  and  C_13 
REMARK    2  A    between atoms: C_6  and  N_8 
REMARK    3  A    between atoms: C_13  and  C_16 
REMARK    4  A    between atoms: N_14  and  C_19 
REMARK    5  A    between atoms: C_16  and  O_27 
REMARK    6  A    between atoms: C_19  and  C_24 
ROOT
HETATM    1  C   UNL     1     -40.779 -47.454  11.888  1.00  0.00     0.117 A 
HETATM    2  N   UNL     1     -40.540 -45.332  11.442  1.00  0.00    -0.324 N 
HETATM    3  C   UNL     1     -41.153 -46.470  10.995  1.00  0.00     0.140 A 
HETATM    4  N   UNL     1     -39.912 -46.942  12.837  1.00  0.00    -0.346 N 
ATOM      5  HN  UNL     1     -39.441 -47.449  13.586  1.00  0.00     0.167 HD
HETATM    6  C   UNL     1     -41.351 -48.730  11.705  1.00  0.00     0.114 A 
HETATM    7  C   UNL     1     -39.828 -45.657  12.564  1.00  0.00     0.185 A 
HETATM    8  N   UNL     1     -41.970 -46.584   9.934  1.00  0.00    -0.336 N 
ATOM      9  HN  UNL     1     -42.190 -45.830   9.283  1.00  0.00     0.168 HD
HETATM   10  N   UNL     1     -42.210 -48.888  10.660  1.00  0.00    -0.341 N 
ATOM     11  HN  UNL     1     -42.660 -49.787  10.490  1.00  0.00     0.167 HD
HETATM   12  C   UNL     1     -42.455 -47.837   9.853  1.00  0.00     0.183 A 
ENDROOT
BRANCH   6  13
HETATM   13  N   UNL     1     -41.106 -49.775  12.597  1.00  0.00    -0.264 NA
HETATM   14  C   UNL     1     -42.264 -50.177  13.400  1.00  0.00     0.127 C 
HETATM   15  C   UNL     1     -41.802 -51.206  14.453  1.00  0.00     0.287 C 
HETATM   16  N   UNL     1     -41.158 -52.416  13.883  1.00  0.00     0.091 N 
HETATM   17  C   UNL     1     -40.027 -51.965  13.022  1.00  0.00     0.287 C 
HETATM   18  C   UNL     1     -40.392 -50.896  11.961  1.00  0.00     0.127 C 
BRANCH  16  19
HETATM   19  C   UNL     1     -42.085 -53.262  13.113  1.00  0.00     0.279 C 
BRANCH  19  20
HETATM   20  C   UNL     1     -43.368 -53.623  13.871  1.00  0.00     0.040 C 
HETATM   21  C   UNL     1     -43.217 -54.843  14.770  1.00  0.00     0.173 C 
HETATM   22  O   UNL     1     -44.365 -55.681  14.562  1.00  0.00    -0.391 OA
HETATM   23  C   UNL     1     -45.317 -54.947  13.791  1.00  0.00     0.168 C 
HETATM   24  C   UNL     1     -44.511 -53.992  12.945  1.00  0.00     0.035 C 
ENDBRANCH  19  20
ENDBRANCH  16  19
ENDBRANCH   6  13
BRANCH   2  25
HETATM   25  C   UNL     1     -40.739 -44.001  10.907  1.00  0.00     0.169 C 
BRANCH  25  26
HETATM   26  C   UNL     1     -42.071 -43.326  11.307  1.00  0.00     0.078 C 
HETATM   27  C   UNL     1     -41.967 -41.818  11.021  1.00  0.00     0.066 C 
HETATM   28  C   UNL     1     -41.185 -41.087  12.100  1.00  0.00     0.170 C 
HETATM   29  O   UNL     1     -41.817 -41.279  13.360  1.00  0.00    -0.391 OA
HETATM   30  C   UNL     1     -41.798 -42.643  13.769  1.00  0.00     0.170 C 
HETATM   31  C   UNL     1     -42.517 -43.543  12.766  1.00  0.00     0.066 C 
BRANCH  26  32
HETATM   32  O   UNL     1     -43.095 -43.829  10.427  1.00  0.00    -0.388 OA
HETATM   33  H   UNL     1     -43.876 -44.072  10.955  1.00  0.00     0.210 HD
ENDBRANCH  26  32
ENDBRANCH  25  26
ENDBRANCH   2  25
TORSDOF 6
ENDMDL
MODEL 2
REMARK VINA RESULT:      -6.6      2.033      3.143
REMARK  6 active torsions:
REMARK  status: ('A' for Active; 'I' for Inactive)
REMARK    1  A    between atoms: N_2  and  C_13 
REMARK    2  A    between atoms: C_6  and  N_8 
REMARK    3  A    between atoms: C_13  and  C_16 
REMARK    4  A    between atoms: N_14  and  C_19 
REMARK    5  A    between atoms: C_16  and  O_27 
REMARK    6  A    between atoms: C_19  and  C_24 
ROOT
HETATM    1  C   UNL     1     -39.779 -49.902  12.966  1.00  0.00     0.117 A 
HETATM    2  N   UNL     1     -40.179 -47.759  12.874  1.00  0.00    -0.324 N 
HETATM    3  C   UNL     1     -39.306 -48.717  12.439  1.00  0.00     0.140 A 
HETATM    4  N   UNL     1     -40.893 -49.670  13.753  1.00  0.00    -0.346 N 
ATOM      5  HN  UNL     1     -41.417 -50.350  14.304  1.00  0.00     0.167 HD
HETATM    6  C   UNL     1     -39.099 -51.081  12.595  1.00  0.00     0.114 A 
HETATM    7  C   UNL     1     -41.129 -48.380  13.638  1.00  0.00     0.185 A 
HETATM    8  N   UNL     1     -38.240 -48.536  11.639  1.00  0.00    -0.336 N 
ATOM      9  HN  UNL     1     -37.913 -47.632  11.300  1.00  0.00     0.168 HD
HETATM   10  N   UNL     1     -38.030 -50.952  11.761  1.00  0.00    -0.341 N 
ATOM     11  HN  UNL     1     -37.512 -51.774  11.452  1.00  0.00     0.167 HD
HETATM   12  C   UNL     1     -37.668 -49.720  11.351  1.00  0.00     0.183 A 
ENDROOT
BRANCH   6  13
HETATM   13  N   UNL     1     -39.541 -52.339  13.005  1.00  0.00    -0.264 NA
HETATM   14  C   UNL     1     -39.524 -52.550  14.456  1.00  0.00     0.127 C 
HETATM   15  C   UNL     1     -39.862 -54.028  14.744  1.00  0.00     0.287 C 
HETATM   16  N   UNL     1     -41.170 -54.472  14.201  1.00  0.00     0.091 N 
HETATM   17  C   UNL     1     -41.175 -54.183  12.738  1.00  0.00     0.287 C 
HETATM   18  C   UNL     1     -40.803 -52.728  12.352  1.00  0.00     0.127 C 
BRANCH  16  19
HETATM   19  C   UNL     1     -42.322 -53.830  14.857  1.00  0.00     0.279 C 
BRANCH  19  20
HETATM   20  C   UNL     1     -43.626 -53.934  14.059  1.00  0.00     0.040 C 
HETATM   21  C   UNL     1     -44.499 -52.689  14.161  1.00  0.00     0.173 C 
HETATM   22  O   UNL     1     -45.848 -53.123  14.397  1.00  0.00    -0.391 OA
HETATM   23  C   UNL     1     -45.901 -54.537  14.200  1.00  0.00     0.168 C 
HETATM   24  C   UNL     1     -44.526 -55.051  14.551  1.00  0.00     0.035 C 
ENDBRANCH  19  20
ENDBRANCH  16  19
ENDBRANCH   6  13
BRANCH   2  25
HETATM   25  C   UNL     1     -40.176 -46.369  12.469  1.00  0.00     0.169 C 
BRANCH  25  26
HETATM   26  C   UNL     1     -40.865 -46.080  11.115  1.00  0.00     0.078 C 
HETATM   27  C   UNL     1     -40.019 -45.054  10.339  1.00  0.00     0.066 C 
HETATM   28  C   UNL     1     -40.242 -43.637  10.841  1.00  0.00     0.170 C 
HETATM   29  O   UNL     1     -41.617 -43.297  10.716  1.00  0.00    -0.391 OA
HETATM   30  C   UNL     1     -42.449 -44.103  11.545  1.00  0.00     0.170 C 
HETATM   31  C   UNL     1     -42.322 -45.585  11.201  1.00  0.00     0.066 C 
BRANCH  26  32
HETATM   32  O   UNL     1     -40.828 -47.294  10.341  1.00  0.00    -0.388 OA
HETATM   33  H   UNL     1     -39.901 -47.533  10.169  1.00  0.00     0.210 HD
ENDBRANCH  26  32
ENDBRANCH  25  26
ENDBRANCH   2  25
TORSDOF 6
ENDMDL
MODEL 3
REMARK VINA RESULT:      -6.4      1.536      2.585
REMARK  6 active torsions:
REMARK  status: ('A' for Active; 'I' for Inactive)
REMARK    1  A    between atoms: N_2  and  C_13 
REMARK    2  A    between atoms: C_6  and  N_8 
REMARK    3  A    between atoms: C_13  and  C_16 
REMARK    4  A    between atoms: N_14  and  C_19 
REMARK    5  A    between atoms: C_16  and  O_27 
REMARK    6  A    between atoms: C_19  and  C_24 
ROOT
HETATM    1  C   UNL     1     -40.924 -49.136  11.827  1.00  0.00     0.117 A 
HETATM    2  N   UNL     1     -40.837 -47.099  11.052  1.00  0.00    -0.324 N 
HETATM    3  C   UNL     1     -40.294 -47.920  12.000  1.00  0.00     0.140 A 
HETATM    4  N   UNL     1     -41.874 -49.049  10.825  1.00  0.00    -0.346 N 
ATOM      5  HN  UNL     1     -42.522 -49.776  10.519  1.00  0.00     0.167 HD
HETATM    6  C   UNL     1     -40.481 -50.203  12.636  1.00  0.00     0.114 A 
HETATM    7  C   UNL     1     -41.762 -47.826  10.354  1.00  0.00     0.185 A 
HETATM    8  N   UNL     1     -39.328 -47.608  12.881  1.00  0.00    -0.336 N 
ATOM      9  HN  UNL     1     -38.914 -46.682  12.990  1.00  0.00     0.168 HD
HETATM   10  N   UNL     1     -39.481 -49.944  13.524  1.00  0.00    -0.341 N 
ATOM     11  HN  UNL     1     -39.116 -50.683  14.123  1.00  0.00     0.167 HD
HETATM   12  C   UNL     1     -38.984 -48.693  13.598  1.00  0.00     0.183 A 
ENDROOT
BRANCH   6  13
HETATM   13  N   UNL     1     -40.993 -51.493  12.488  1.00  0.00    -0.264 NA
HETATM   14  C   UNL     1     -40.323 -52.512  13.300  1.00  0.00     0.127 C 
HETATM   15  C   UNL     1     -40.870 -53.900  12.902  1.00  0.00     0.287 C 
HETATM   16  N   UNL     1     -42.340 -54.042  13.051  1.00  0.00     0.091 N 
HETATM   17  C   UNL     1     -42.983 -52.951  12.265  1.00  0.00     0.287 C 
HETATM   18  C   UNL     1     -42.463 -51.523  12.570  1.00  0.00     0.127 C 
BRANCH  16  19
HETATM   19  C   UNL     1     -42.789 -54.002  14.453  1.00  0.00     0.279 C 
BRANCH  19  20
HETATM   20  C   UNL     1     -44.286 -53.715  14.615  1.00  0.00     0.040 C 
HETATM   21  C   UNL     1     -44.751 -53.726  16.066  1.00  0.00     0.173 C 
HETATM   22  O   UNL     1     -45.969 -54.484  16.127  1.00  0.00    -0.391 OA
HETATM   23  C   UNL     1     -46.409 -54.726  14.790  1.00  0.00     0.168 C 
HETATM   24  C   UNL     1     -45.158 -54.761  13.947  1.00  0.00     0.035 C 
ENDBRANCH  19  20
ENDBRANCH  16  19
ENDBRANCH   6  13
BRANCH   2  25
HETATM   25  C   UNL     1     -40.398 -45.752  10.750  1.00  0.00     0.169 C 
BRANCH  25  26
HETATM   26  C   UNL     1     -41.344 -44.630  11.235  1.00  0.00     0.078 C 
HETATM   27  C   UNL     1     -40.541 -43.323  11.356  1.00  0.00     0.066 C 
HETATM   28  C   UNL     1     -39.714 -43.281  12.631  1.00  0.00     0.170 C 
HETATM   29  O   UNL     1     -40.571 -43.407  13.760  1.00  0.00    -0.391 OA
HETATM   30  C   UNL     1     -41.224 -44.673  13.801  1.00  0.00     0.170 C 
HETATM   31  C   UNL     1     -42.082 -44.905  12.559  1.00  0.00     0.066 C 
BRANCH  26  32
HETATM   32  O   UNL     1     -42.318 -44.404  10.197  1.00  0.00    -0.388 OA
HETATM   33  H   UNL     1     -43.118 -44.923  10.394  1.00  0.00     0.210 HD
ENDBRANCH  26  32
ENDBRANCH  25  26
ENDBRANCH   2  25
TORSDOF 6
ENDMDL
MODEL 4
REMARK VINA RESULT:      -6.2      4.479      6.554
REMARK  6 active torsions:
REMARK  status: ('A' for Active; 'I' for Inactive)
REMARK    1  A    between atoms: N_2  and  C_13 
REMARK    2  A    between atoms: C_6  and  N_8 
REMARK    3  A    between atoms: C_13  and  C_16 
REMARK    4  A    between atoms: N_14  and  C_19 
REMARK    5  A    between atoms: C_16  and  O_27 
REMARK    6  A    between atoms: C_19  and  C_24 
ROOT
HETATM    1  C   UNL     1     -42.584 -51.930  12.885  1.00  0.00     0.117 A 
HETATM    2  N   UNL     1     -41.226 -50.547  11.885  1.00  0.00    -0.324 N 
HETATM    3  C   UNL     1     -41.356 -51.855  12.259  1.00  0.00     0.140 A 
HETATM    4  N   UNL     1     -43.176 -50.681  12.940  1.00  0.00    -0.346 N 
ATOM      5  HN  UNL     1     -44.059 -50.430  13.387  1.00  0.00     0.167 HD
HETATM    6  C   UNL     1     -43.010 -53.209  13.300  1.00  0.00     0.114 A 
HETATM    7  C   UNL     1     -42.353 -49.886  12.291  1.00  0.00     0.185 A 
HETATM    8  N   UNL     1     -40.484 -52.852  12.029  1.00  0.00    -0.336 N 
ATOM      9  HN  UNL     1     -39.571 -52.738  11.588  1.00  0.00     0.168 HD
HETATM   10  N   UNL     1     -42.173 -54.257  13.061  1.00  0.00    -0.341 N 
ATOM     11  HN  UNL     1     -42.439 -55.204  13.330  1.00  0.00     0.167 HD
HETATM   12  C   UNL     1     -40.988 -54.021  12.464  1.00  0.00     0.183 A 
ENDROOT
BRANCH   6  13
HETATM   13  N   UNL     1     -44.268 -53.411  13.870  1.00  0.00    -0.264 NA
HETATM   14  C   UNL     1     -44.327 -53.181  15.316  1.00  0.00     0.127 C 
HETATM   15  C   UNL     1     -45.718 -53.613  15.828  1.00  0.00     0.287 C 
HETATM   16  N   UNL     1     -46.853 -52.915  15.173  1.00  0.00     0.091 N 
HETATM   17  C   UNL     1     -46.722 -53.118  13.702  1.00  0.00     0.287 C 
HETATM   18  C   UNL     1     -45.340 -52.750  13.106  1.00  0.00     0.127 C 
BRANCH  16  19
HETATM   19  C   UNL     1     -46.916 -51.479  15.493  1.00  0.00     0.279 C 
BRANCH  19  20
HETATM   20  C   UNL     1     -46.918 -51.178  16.995  1.00  0.00     0.040 C 
HETATM   21  C   UNL     1     -48.256 -50.660  17.508  1.00  0.00     0.173 C 
HETATM   22  O   UNL     1     -47.990 -49.534  18.358  1.00  0.00    -0.391 OA
HETATM   23  C   UNL     1     -46.582 -49.481  18.597  1.00  0.00     0.168 C 
HETATM   24  C   UNL     1     -45.936 -50.087  17.375  1.00  0.00     0.035 C 
ENDBRANCH  19  20
ENDBRANCH  16  19
ENDBRANCH   6  13
BRANCH   2  25
HETATM   25  C   UNL     1     -40.158 -50.004  11.073  1.00  0.00     0.169 C 
BRANCH  25  26
HETATM   26  C   UNL     1     -39.132 -49.134  11.835  1.00  0.00     0.078 C 
HETATM   27  C   UNL     1     -37.713 -49.593  11.453  1.00  0.00     0.066 C 
HETATM   28  C   UNL     1     -37.305 -50.856  12.193  1.00  0.00     0.170 C 
HETATM   29  O   UNL     1     -37.358 -50.626  13.596  1.00  0.00    -0.391 OA
HETATM   30  C   UNL     1     -38.682 -50.361  14.048  1.00  0.00     0.170 C 
HETATM   31  C   UNL     1     -39.274 -49.127  13.370  1.00  0.00     0.066 C 
BRANCH  26  32
HETATM   32  O   UNL     1     -39.260 -47.784  11.348  1.00  0.00    -0.388 OA
HETATM   33  H   UNL     1     -38.565 -47.619  10.686  1.00  0.00     0.210 HD
ENDBRANCH  26  32
ENDBRANCH  25  26
ENDBRANCH   2  25
TORSDOF 6
ENDMDL
MODEL 5
REMARK VINA RESULT:      -6.2      1.799      8.819
REMARK  6 active torsions:
REMARK  status: ('A' for Active; 'I' for Inactive)
REMARK    1  A    between atoms: N_2  and  C_13 
REMARK    2  A    between atoms: C_6  and  N_8 
REMARK    3  A    between atoms: C_13  and  C_16 
REMARK    4  A    between atoms: N_14  and  C_19 
REMARK    5  A    between atoms: C_16  and  O_27 
REMARK    6  A    between atoms: C_19  and  C_24 
ROOT
HETATM    1  C   UNL     1     -41.922 -49.517  12.326  1.00  0.00     0.117 A 
HETATM    2  N   UNL     1     -43.138 -51.021  13.335  1.00  0.00    -0.324 N 
HETATM    3  C   UNL     1     -42.042 -50.877  12.530  1.00  0.00     0.140 A 
HETATM    4  N   UNL     1     -42.955 -48.841  12.952  1.00  0.00    -0.346 N 
ATOM      5  HN  UNL     1     -43.146 -47.839  12.929  1.00  0.00     0.167 HD
HETATM    6  C   UNL     1     -40.803 -49.080  11.587  1.00  0.00     0.114 A 
HETATM    7  C   UNL     1     -43.638 -49.772  13.583  1.00  0.00     0.185 A 
HETATM    8  N   UNL     1     -41.241 -51.855  12.073  1.00  0.00    -0.336 N 
ATOM      9  HN  UNL     1     -41.392 -52.852  12.226  1.00  0.00     0.168 HD
HETATM   10  N   UNL     1     -39.945 -50.033  11.128  1.00  0.00    -0.341 N 
ATOM     11  HN  UNL     1     -39.113 -49.770  10.599  1.00  0.00     0.167 HD
HETATM   12  C   UNL     1     -40.212 -51.329  11.383  1.00  0.00     0.183 A 
ENDROOT
BRANCH   6  13
HETATM   13  N   UNL     1     -40.541 -47.724  11.391  1.00  0.00    -0.264 NA
HETATM   14  C   UNL     1     -41.549 -47.016  10.597  1.00  0.00     0.127 C 
HETATM   15  C   UNL     1     -41.041 -45.586  10.314  1.00  0.00     0.287 C 
HETATM   16  N   UNL     1     -40.732 -44.795  11.532  1.00  0.00     0.091 N 
HETATM   17  C   UNL     1     -39.754 -45.576  12.344  1.00  0.00     0.287 C 
HETATM   18  C   UNL     1     -40.164 -47.041  12.641  1.00  0.00     0.127 C 
BRANCH  16  19
HETATM   19  C   UNL     1     -41.924 -44.471  12.333  1.00  0.00     0.279 C 
BRANCH  19  20
HETATM   20  C   UNL     1     -42.240 -42.973  12.395  1.00  0.00     0.040 C 
HETATM   21  C   UNL     1     -42.938 -42.553  13.682  1.00  0.00     0.173 C 
HETATM   22  O   UNL     1     -44.028 -41.689  13.324  1.00  0.00    -0.391 OA
HETATM   23  C   UNL     1     -43.895 -41.356  11.941  1.00  0.00     0.168 C 
HETATM   24  C   UNL     1     -43.194 -42.530  11.302  1.00  0.00     0.035 C 
ENDBRANCH  19  20
ENDBRANCH  16  19
ENDBRANCH   6  13
BRANCH   2  25
HETATM   25  C   UNL     1     -43.588 -52.260  13.933  1.00  0.00     0.169 C 
BRANCH  25  26
HETATM   26  C   UNL     1     -44.683 -53.011  13.142  1.00  0.00     0.078 C 
HETATM   27  C   UNL     1     -45.899 -52.083  12.977  1.00  0.00     0.066 C 
HETATM   28  C   UNL     1     -46.745 -52.025  14.238  1.00  0.00     0.170 C 
HETATM   29  O   UNL     1     -47.199 -53.332  14.570  1.00  0.00    -0.391 OA
HETATM   30  C   UNL     1     -46.124 -54.206  14.902  1.00  0.00     0.170 C 
HETATM   31  C   UNL     1     -45.139 -54.354  13.744  1.00  0.00     0.066 C 
BRANCH  26  32
HETATM   32  O   UNL     1     -44.176 -53.244  11.813  1.00  0.00    -0.388 OA
HETATM   33  H   UNL     1     -44.901 -53.569  11.250  1.00  0.00     0.210 HD
ENDBRANCH  26  32
ENDBRANCH  25  26
ENDBRANCH   2  25
TORSDOF 6
ENDMDL
MODEL 6
REMARK VINA RESULT:      -6.1      3.783      5.558
REMARK  6 active torsions:
REMARK  status: ('A' for Active; 'I' for Inactive)
REMARK    1  A    between atoms: N_2  and  C_13 
REMARK    2  A    between atoms: C_6  and  N_8 
REMARK    3  A    between atoms: C_13  and  C_16 
REMARK    4  A    between atoms: N_14  and  C_19 
REMARK    5  A    between atoms: C_16  and  O_27 
REMARK    6  A    between atoms: C_19  and  C_24 
ROOT
HETATM    1  C   UNL     1     -40.580 -51.321  13.758  1.00  0.00     0.117 A 
HETATM    2  N   UNL     1     -41.277 -49.458  12.863  1.00  0.00    -0.324 N 
HETATM    3  C   UNL     1     -41.455 -50.813  12.819  1.00  0.00     0.140 A 
HETATM    4  N   UNL     1     -39.841 -50.302  14.333  1.00  0.00    -0.346 N 
ATOM      5  HN  UNL     1     -39.090 -50.389  15.018  1.00  0.00     0.167 HD
HETATM    6  C   UNL     1     -40.622 -52.713  13.980  1.00  0.00     0.114 A 
HETATM    7  C   UNL     1     -40.319 -49.196  13.804  1.00  0.00     0.185 A 
HETATM    8  N   UNL     1     -42.324 -51.489  12.049  1.00  0.00    -0.336 N 
ATOM      9  HN  UNL     1     -42.930 -51.068  11.345  1.00  0.00     0.168 HD
HETATM   10  N   UNL     1     -41.509 -53.439  13.244  1.00  0.00    -0.341 N 
ATOM     11  HN  UNL     1     -41.589 -54.447  13.374  1.00  0.00     0.167 HD
HETATM   12  C   UNL     1     -42.281 -52.802  12.340  1.00  0.00     0.183 A 
ENDROOT
BRANCH   6  13
HETATM   13  N   UNL     1     -39.839 -53.321  14.962  1.00  0.00    -0.264 NA
HETATM   14  C   UNL     1     -40.407 -53.272  16.313  1.00  0.00     0.127 C 
HETATM   15  C   UNL     1     -39.360 -53.816  17.309  1.00  0.00     0.287 C 
HETATM   16  N   UNL     1     -38.903 -55.198  17.019  1.00  0.00     0.091 N 
HETATM   17  C   UNL     1     -38.393 -55.223  15.618  1.00  0.00     0.287 C 
HETATM   18  C   UNL     1     -39.364 -54.654  14.553  1.00  0.00     0.127 C 
BRANCH  16  19
HETATM   19  C   UNL     1     -39.956 -56.211  17.202  1.00  0.00     0.279 C 
BRANCH  19  20
HETATM   20  C   UNL     1     -39.613 -57.280  18.245  1.00  0.00     0.040 C 
HETATM   21  C   UNL     1     -38.252 -57.074  18.899  1.00  0.00     0.173 C 
HETATM   22  O   UNL     1     -37.586 -58.346  18.926  1.00  0.00    -0.391 OA
HETATM   23  C   UNL     1     -38.533 -59.351  18.564  1.00  0.00     0.168 C 
HETATM   24  C   UNL     1     -39.523 -58.672  17.650  1.00  0.00     0.035 C 
ENDBRANCH  19  20
ENDBRANCH  16  19
ENDBRANCH   6  13
BRANCH   2  25
HETATM   25  C   UNL     1     -42.072 -48.480  12.151  1.00  0.00     0.169 C 
BRANCH  25  26
HETATM   26  C   UNL     1     -41.567 -48.133  10.732  1.00  0.00     0.078 C 
HETATM   27  C   UNL     1     -40.546 -46.987  10.836  1.00  0.00     0.066 C 
HETATM   28  C   UNL     1     -41.222 -45.636  11.007  1.00  0.00     0.170 C 
HETATM   29  O   UNL     1     -42.085 -45.391   9.904  1.00  0.00    -0.391 OA
HETATM   30  C   UNL     1     -43.161 -46.323   9.845  1.00  0.00     0.170 C 
HETATM   31  C   UNL     1     -42.658 -47.758   9.709  1.00  0.00     0.066 C 
BRANCH  26  32
HETATM   32  O   UNL     1     -40.838 -49.274  10.240  1.00  0.00    -0.388 OA
HETATM   33  H   UNL     1     -40.069 -49.431  10.815  1.00  0.00     0.210 HD
ENDBRANCH  26  32
ENDBRANCH  25  26
ENDBRANCH   2  25
TORSDOF 6
ENDMDL
MODEL 7
REMARK VINA RESULT:      -6.0      1.973      3.192
REMARK  6 active torsions:
REMARK  status: ('A' for Active; 'I' for Inactive)
REMARK    1  A    between atoms: N_2  and  C_13 
REMARK    2  A    between atoms: C_6  and  N_8 
REMARK    3  A    between atoms: C_13  and  C_16 
REMARK    4  A    between atoms: N_14  and  C_19 
REMARK    5  A    between atoms: C_16  and  O_27 
REMARK    6  A    between atoms: C_19  and  C_24 
ROOT
HETATM    1  C   UNL     1     -41.707 -49.358  11.971  1.00  0.00     0.117 A 
HETATM    2  N   UNL     1     -42.016 -47.419  11.019  1.00  0.00    -0.324 N 
HETATM    3  C   UNL     1     -41.036 -48.275  11.440  1.00  0.00     0.140 A 
HETATM    4  N   UNL     1     -43.074 -49.150  11.923  1.00  0.00    -0.346 N 
ATOM      5  HN  UNL     1     -43.808 -49.758  12.289  1.00  0.00     0.167 HD
HETATM    6  C   UNL     1     -40.920 -50.444  12.407  1.00  0.00     0.114 A 
HETATM    7  C   UNL     1     -43.222 -47.997  11.306  1.00  0.00     0.185 A 
HETATM    8  N   UNL     1     -39.708 -48.103  11.322  1.00  0.00    -0.336 N 
ATOM      9  HN  UNL     1     -39.259 -47.266  10.950  1.00  0.00     0.168 HD
HETATM   10  N   UNL     1     -39.568 -50.329  12.281  1.00  0.00    -0.341 N 
ATOM     11  HN  UNL     1     -38.954 -51.090  12.570  1.00  0.00     0.167 HD
HETATM   12  C   UNL     1     -39.056 -49.192  11.768  1.00  0.00     0.183 A 
ENDROOT
BRANCH   6  13
HETATM   13  N   UNL     1     -41.498 -51.620  12.885  1.00  0.00    -0.264 NA
HETATM   14  C   UNL     1     -40.791 -52.846  12.505  1.00  0.00     0.127 C 
HETATM   15  C   UNL     1     -41.635 -54.061  12.946  1.00  0.00     0.287 C 
HETATM   16  N   UNL     1     -41.936 -54.099  14.399  1.00  0.00     0.091 N 
HETATM   17  C   UNL     1     -42.595 -52.812  14.760  1.00  0.00     0.287 C 
HETATM   18  C   UNL     1     -41.837 -51.535  14.316  1.00  0.00     0.127 C 
BRANCH  16  19
HETATM   19  C   UNL     1     -40.745 -54.320  15.235  1.00  0.00     0.279 C 
BRANCH  19  20
HETATM   20  C   UNL     1     -40.974 -55.293  16.397  1.00  0.00     0.040 C 
HETATM   21  C   UNL     1     -42.259 -56.101  16.265  1.00  0.00     0.173 C 
HETATM   22  O   UNL     1     -42.917 -56.083  17.542  1.00  0.00    -0.391 OA
HETATM   23  C   UNL     1     -42.012 -55.534  18.500  1.00  0.00     0.168 C 
HETATM   24  C   UNL     1     -41.124 -54.587  17.731  1.00  0.00     0.035 C 
ENDBRANCH  19  20
ENDBRANCH  16  19
ENDBRANCH   6  13
BRANCH   2  25
HETATM   25  C   UNL     1     -41.805 -46.199  10.270  1.00  0.00     0.169 C 
BRANCH  25  26
HETATM   26  C   UNL     1     -42.029 -44.893  11.067  1.00  0.00     0.078 C 
HETATM   27  C   UNL     1     -40.786 -43.999  10.912  1.00  0.00     0.066 C 
HETATM   28  C   UNL     1     -39.649 -44.445  11.816  1.00  0.00     0.170 C 
HETATM   29  O   UNL     1     -40.077 -44.415  13.172  1.00  0.00    -0.391 OA
HETATM   30  C   UNL     1     -41.121 -45.350  13.427  1.00  0.00     0.170 C 
HETATM   31  C   UNL     1     -42.350 -45.072  12.564  1.00  0.00     0.066 C 
BRANCH  26  32
HETATM   32  O   UNL     1     -43.113 -44.182  10.439  1.00  0.00    -0.388 OA
HETATM   33  H   UNL     1     -43.636 -44.807   9.906  1.00  0.00     0.210 HD
ENDBRANCH  26  32
ENDBRANCH  25  26
ENDBRANCH   2  25
TORSDOF 6
ENDMDL
MODEL 8
REMARK VINA RESULT:      -6.0      2.247      9.479
REMARK  6 active torsions:
REMARK  status: ('A' for Active; 'I' for Inactive)
REMARK    1  A    between atoms: N_2  and  C_13 
REMARK    2  A    between atoms: C_6  and  N_8 
REMARK    3  A    between atoms: C_13  and  C_16 
REMARK    4  A    between atoms: N_14  and  C_19 
REMARK    5  A    between atoms: C_16  and  O_27 
REMARK    6  A    between atoms: C_19  and  C_24 
ROOT
HETATM    1  C   UNL     1     -41.631 -48.065  13.040  1.00  0.00     0.117 A 
HETATM    2  N   UNL     1     -42.109 -50.176  13.309  1.00  0.00    -0.324 N 
HETATM    3  C   UNL     1     -41.956 -49.215  12.349  1.00  0.00     0.140 A 
HETATM    4  N   UNL     1     -41.633 -48.303  14.403  1.00  0.00    -0.346 N 
ATOM      5  HN  UNL     1     -41.477 -47.627  15.152  1.00  0.00     0.167 HD
HETATM    6  C   UNL     1     -41.331 -46.922  12.269  1.00  0.00     0.114 A 
HETATM    7  C   UNL     1     -41.880 -49.590  14.523  1.00  0.00     0.185 A 
HETATM    8  N   UNL     1     -42.067 -49.376  11.019  1.00  0.00    -0.336 N 
ATOM      9  HN  UNL     1     -42.342 -50.243  10.558  1.00  0.00     0.168 HD
HETATM   10  N   UNL     1     -41.399 -47.044  10.914  1.00  0.00    -0.341 N 
ATOM     11  HN  UNL     1     -41.180 -46.252  10.311  1.00  0.00     0.167 HD
HETATM   12  C   UNL     1     -41.762 -48.230  10.384  1.00  0.00     0.183 A 
ENDROOT
BRANCH   6  13
HETATM   13  N   UNL     1     -40.911 -45.731  12.862  1.00  0.00    -0.264 NA
HETATM   14  C   UNL     1     -39.657 -45.192  12.329  1.00  0.00     0.127 C 
HETATM   15  C   UNL     1     -39.231 -43.985  13.192  1.00  0.00     0.287 C 
HETATM   16  N   UNL     1     -40.240 -42.899  13.263  1.00  0.00     0.091 N 
HETATM   17  C   UNL     1     -41.517 -43.497  13.746  1.00  0.00     0.287 C 
HETATM   18  C   UNL     1     -42.000 -44.744  12.963  1.00  0.00     0.127 C 
BRANCH  16  19
HETATM   19  C   UNL     1     -40.446 -42.212  11.977  1.00  0.00     0.279 C 
BRANCH  19  20
HETATM   20  C   UNL     1     -41.194 -40.880  12.100  1.00  0.00     0.040 C 
HETATM   21  C   UNL     1     -42.116 -40.591  10.921  1.00  0.00     0.173 C 
HETATM   22  O   UNL     1     -41.908 -39.225  10.531  1.00  0.00    -0.391 OA
HETATM   23  C   UNL     1     -41.113 -38.592  11.535  1.00  0.00     0.168 C 
HETATM   24  C   UNL     1     -40.260 -39.685  12.132  1.00  0.00     0.035 C 
ENDBRANCH  19  20
ENDBRANCH  16  19
ENDBRANCH   6  13
BRANCH   2  25
HETATM   25  C   UNL     1     -42.322 -51.587  13.063  1.00  0.00     0.169 C 
BRANCH  25  26
HETATM   26  C   UNL     1     -41.105 -52.343  12.483  1.00  0.00     0.078 C 
HETATM   27  C   UNL     1     -41.186 -53.817  12.916  1.00  0.00     0.066 C 
HETATM   28  C   UNL     1     -40.720 -54.015  14.349  1.00  0.00     0.170 C 
HETATM   29  O   UNL     1     -39.378 -53.564  14.482  1.00  0.00    -0.391 OA
HETATM   30  C   UNL     1     -39.257 -52.163  14.259  1.00  0.00     0.170 C 
HETATM   31  C   UNL     1     -39.724 -51.772  12.858  1.00  0.00     0.066 C 
BRANCH  26  32
HETATM   32  O   UNL     1     -41.237 -52.341  11.048  1.00  0.00    -0.388 OA
HETATM   33  H   UNL     1     -41.080 -53.242  10.714  1.00  0.00     0.210 HD
ENDBRANCH  26  32
ENDBRANCH  25  26
ENDBRANCH   2  25
TORSDOF 6
ENDMDL
MODEL 9
REMARK VINA RESULT:      -6.0      1.883      2.680
REMARK  6 active torsions:
REMARK  status: ('A' for Active; 'I' for Inactive)
REMARK    1  A    between atoms: N_2  and  C_13 
REMARK    2  A    between atoms: C_6  and  N_8 
REMARK    3  A    between atoms: C_13  and  C_16 
REMARK    4  A    between atoms: N_14  and  C_19 
REMARK    5  A    between atoms: C_16  and  O_27 
REMARK    6  A    between atoms: C_19  and  C_24 
ROOT
HETATM    1  C   UNL     1     -40.020 -45.231  12.606  1.00  0.00     0.117 A 
HETATM    2  N   UNL     1     -40.182 -43.058  12.699  1.00  0.00    -0.324 N 
HETATM    3  C   UNL     1     -39.986 -44.092  11.827  1.00  0.00     0.140 A 
HETATM    4  N   UNL     1     -40.183 -44.900  13.940  1.00  0.00    -0.346 N 
ATOM      5  HN  UNL     1     -40.194 -45.533  14.740  1.00  0.00     0.167 HD
HETATM    6  C   UNL     1     -39.927 -46.467  11.933  1.00  0.00     0.114 A 
HETATM    7  C   UNL     1     -40.321 -43.591  13.951  1.00  0.00     0.185 A 
HETATM    8  N   UNL     1     -39.830 -44.008  10.495  1.00  0.00    -0.336 N 
ATOM      9  HN  UNL     1     -39.780 -43.136   9.967  1.00  0.00     0.168 HD
HETATM   10  N   UNL     1     -39.799 -46.434  10.577  1.00  0.00    -0.341 N 
ATOM     11  HN  UNL     1     -39.740 -47.299  10.040  1.00  0.00     0.167 HD
HETATM   12  C   UNL     1     -39.750 -45.238   9.956  1.00  0.00     0.183 A 
ENDROOT
BRANCH   6  13
HETATM   13  N   UNL     1     -40.032 -47.680  12.614  1.00  0.00    -0.264 NA
HETATM   14  C   UNL     1     -41.396 -48.206  12.718  1.00  0.00     0.127 C 
HETATM   15  C   UNL     1     -41.380 -49.443  13.640  1.00  0.00     0.287 C 
HETATM   16  N   UNL     1     -40.471 -50.527  13.192  1.00  0.00     0.091 N 
HETATM   17  C   UNL     1     -39.109 -49.941  13.035  1.00  0.00     0.287 C 
HETATM   18  C   UNL     1     -39.037 -48.665  12.157  1.00  0.00     0.127 C 
BRANCH  16  19
HETATM   19  C   UNL     1     -40.903 -51.169  11.939  1.00  0.00     0.279 C 
BRANCH  19  20
HETATM   20  C   UNL     1     -41.425 -52.598  12.122  1.00  0.00     0.040 C 
HETATM   21  C   UNL     1     -42.904 -52.662  12.483  1.00  0.00     0.173 C 
HETATM   22  O   UNL     1     -43.048 -53.602  13.559  1.00  0.00    -0.391 OA
HETATM   23  C   UNL     1     -41.809 -54.294  13.714  1.00  0.00     0.168 C 
HETATM   24  C   UNL     1     -40.741 -53.329  13.261  1.00  0.00     0.035 C 
ENDBRANCH  19  20
ENDBRANCH  16  19
ENDBRANCH   6  13
BRANCH   2  25
HETATM   25  C   UNL     1     -40.360 -41.669  12.333  1.00  0.00     0.169 C 
BRANCH  25  26
HETATM   26  C   UNL     1     -41.725 -41.330  11.692  1.00  0.00     0.078 C 
HETATM   27  C   UNL     1     -41.940 -39.808  11.759  1.00  0.00     0.066 C 
HETATM   28  C   UNL     1     -42.392 -39.358  13.139  1.00  0.00     0.170 C 
HETATM   29  O   UNL     1     -43.606 -40.014  13.482  1.00  0.00    -0.391 OA
HETATM   30  C   UNL     1     -43.440 -41.424  13.604  1.00  0.00     0.170 C 
HETATM   31  C   UNL     1     -42.945 -42.049  12.301  1.00  0.00     0.066 C 
BRANCH  26  32
HETATM   32  O   UNL     1     -41.641 -41.659  10.291  1.00  0.00    -0.388 OA
HETATM   33  H   UNL     1     -41.065 -41.012   9.848  1.00  0.00     0.210 HD
ENDBRANCH  26  32
ENDBRANCH  25  26
ENDBRANCH   2  25
TORSDOF 6
ENDMDL
