MODEL 1
REMARK VINA RESULT:      -6.6      0.000      0.000
REMARK  5 active torsions:
REMARK  status: ('A' for Active; 'I' for Inactive)
REMARK    1  A    between atoms: N_2  and  C_3 
REMARK    2  A    between atoms: N_4  and  C_15 
REMARK    3  A    between atoms: C_9  and  C_22 
REMARK    4  A    between atoms: C_15  and  C_16 
REMARK    5  A    between atoms: C_16  and  O_24 
ROOT
HETATM    1  C   UNL     1     -40.881 -47.209  11.609  1.00  0.00     0.122 A 
HETATM    2  C   UNL     1     -41.476 -48.490  11.463  1.00  0.00     0.136 C 
HETATM    3  N   UNL     1     -40.765 -45.047  11.264  1.00  0.00    -0.324 N 
HETATM    4  C   UNL     1     -41.342 -46.190  10.781  1.00  0.00     0.140 A 
HETATM    5  N   UNL     1     -39.935 -46.702  12.481  1.00  0.00    -0.346 N 
ATOM      6  HN  UNL     1     -39.372 -47.226  13.151  1.00  0.00     0.167 HD
HETATM    7  C   UNL     1     -39.911 -45.405  12.267  1.00  0.00     0.185 A 
HETATM    8  N   UNL     1     -42.336 -48.625  10.402  1.00  0.00    -0.337 N 
ATOM      9  HN  UNL     1     -42.765 -49.530  10.206  1.00  0.00     0.168 HD
HETATM   10  N   UNL     1     -42.205 -46.289   9.758  1.00  0.00    -0.336 N 
ATOM     11  HN  UNL     1     -42.506 -45.511   9.172  1.00  0.00     0.168 HD
HETATM   12  C   UNL     1     -42.618 -47.562   9.618  1.00  0.00     0.183 C 
ENDROOT
BRANCH   2  13
HETATM   13  N   UNL     1     -41.285 -49.590  12.296  1.00  0.00    -0.350 N 
HETATM   14  C   UNL     1     -40.201 -50.585  12.063  1.00  0.00     0.181 C 
HETATM   15  C   UNL     1     -40.664 -51.955  12.656  1.00  0.00     0.241 C 
HETATM   16  O   UNL     1     -40.418 -53.043  12.138  1.00  0.00    -0.271 OA
HETATM   17  N   UNL     1     -41.244 -51.921  13.910  1.00  0.00    -0.358 N 
HETATM   18  C   UNL     1     -42.163 -50.847  14.233  1.00  0.00     0.142 C 
HETATM   19  H   UNL     1     -41.484 -52.847  14.241  1.00  0.00     0.162 HD
HETATM   20  C   UNL     1     -41.766 -49.471  13.677  1.00  0.00     0.145 C 
BRANCH  14  21
HETATM   21  C   UNL     1     -38.845 -50.242  12.763  1.00  0.00     0.009 C 
HETATM   22  C   UNL     1     -38.253 -51.500  13.424  1.00  0.00     0.012 C 
HETATM   23  C   UNL     1     -37.756 -49.622  11.886  1.00  0.00     0.012 C 
ENDBRANCH  14  21
ENDBRANCH   2  13
BRANCH   3  24
HETATM   24  C   UNL     1     -40.985 -43.703  10.773  1.00  0.00     0.171 C 
BRANCH  24  25
HETATM   25  C   UNL     1     -42.337 -43.081  11.167  1.00  0.00     0.097 C 
HETATM   26  C   UNL     1     -42.296 -41.562  11.128  1.00  0.00     0.068 C 
HETATM   27  C   UNL     1     -43.380 -41.151  12.109  1.00  0.00     0.170 C 
HETATM   28  O   UNL     1     -43.559 -42.226  13.036  1.00  0.00    -0.388 OA
HETATM   29  C   UNL     1     -42.739 -43.332  12.621  1.00  0.00     0.207 C 
BRANCH  25  30
HETATM   30  O   UNL     1     -43.394 -43.506  10.298  1.00  0.00    -0.386 OA
HETATM   31  H   UNL     1     -43.044 -43.642   9.398  1.00  0.00     0.210 HD
ENDBRANCH  25  30
ENDBRANCH  24  25
ENDBRANCH   3  24
TORSDOF 5
ENDMDL
MODEL 2
REMARK VINA RESULT:      -6.6      3.261      5.436
REMARK  5 active torsions:
REMARK  status: ('A' for Active; 'I' for Inactive)
REMARK    1  A    between atoms: N_2  and  C_3 
REMARK    2  A    between atoms: N_4  and  C_15 
REMARK    3  A    between atoms: C_9  and  C_22 
REMARK    4  A    between atoms: C_15  and  C_16 
REMARK    5  A    between atoms: C_16  and  O_24 
ROOT
HETATM    1  C   UNL     1     -42.577 -50.353  13.571  1.00  0.00     0.122 A 
HETATM    2  C   UNL     1     -42.700 -51.765  13.651  1.00  0.00     0.136 C 
HETATM    3  N   UNL     1     -42.121 -48.478  12.530  1.00  0.00    -0.324 N 
HETATM    4  C   UNL     1     -41.916 -49.829  12.464  1.00  0.00     0.140 A 
HETATM    5  N   UNL     1     -43.047 -49.318  14.359  1.00  0.00    -0.346 N 
ATOM      6  HN  UNL     1     -43.504 -49.395  15.268  1.00  0.00     0.167 HD
HETATM    7  C   UNL     1     -42.783 -48.215  13.695  1.00  0.00     0.185 A 
HETATM    8  N   UNL     1     -42.008 -52.474  12.702  1.00  0.00    -0.337 N 
ATOM      9  HN  UNL     1     -42.011 -53.494  12.726  1.00  0.00     0.168 HD
HETATM   10  N   UNL     1     -41.259 -50.501  11.506  1.00  0.00    -0.336 N 
ATOM     11  HN  UNL     1     -40.779 -50.069  10.717  1.00  0.00     0.168 HD
HETATM   12  C   UNL     1     -41.324 -51.825  11.736  1.00  0.00     0.183 C 
ENDROOT
BRANCH   2  13
HETATM   13  N   UNL     1     -43.463 -52.477  14.575  1.00  0.00    -0.350 N 
HETATM   14  C   UNL     1     -44.638 -51.878  15.266  1.00  0.00     0.181 C 
HETATM   15  C   UNL     1     -44.808 -52.595  16.644  1.00  0.00     0.241 C 
HETATM   16  O   UNL     1     -45.160 -52.022  17.674  1.00  0.00    -0.271 OA
HETATM   17  N   UNL     1     -44.700 -53.973  16.641  1.00  0.00    -0.358 N 
HETATM   18  C   UNL     1     -43.682 -54.598  15.821  1.00  0.00     0.142 C 
HETATM   19  H   UNL     1     -44.857 -54.366  17.560  1.00  0.00     0.162 HD
HETATM   20  C   UNL     1     -43.463 -53.939  14.451  1.00  0.00     0.145 C 
BRANCH  14  21
HETATM   21  C   UNL     1     -45.996 -52.057  14.510  1.00  0.00     0.009 C 
HETATM   22  C   UNL     1     -47.150 -51.464  15.340  1.00  0.00     0.012 C 
HETATM   23  C   UNL     1     -46.083 -51.463  13.104  1.00  0.00     0.012 C 
ENDBRANCH  14  21
ENDBRANCH   2  13
BRANCH   3  24
HETATM   24  C   UNL     1     -41.678 -47.495  11.563  1.00  0.00     0.171 C 
BRANCH  24  25
HETATM   25  C   UNL     1     -42.509 -47.441  10.267  1.00  0.00     0.097 C 
HETATM   26  C   UNL     1     -42.531 -46.045   9.667  1.00  0.00     0.068 C 
HETATM   27  C   UNL     1     -43.822 -46.021   8.869  1.00  0.00     0.170 C 
HETATM   28  O   UNL     1     -44.707 -46.989   9.442  1.00  0.00    -0.388 OA
HETATM   29  C   UNL     1     -44.001 -47.701  10.473  1.00  0.00     0.207 C 
BRANCH  25  30
HETATM   30  O   UNL     1     -42.000 -48.333   9.268  1.00  0.00    -0.386 OA
HETATM   31  H   UNL     1     -41.730 -47.824   8.481  1.00  0.00     0.210 HD
ENDBRANCH  25  30
ENDBRANCH  24  25
ENDBRANCH   3  24
TORSDOF 5
ENDMDL
MODEL 3
REMARK VINA RESULT:      -6.6      2.517      7.512
REMARK  5 active torsions:
REMARK  status: ('A' for Active; 'I' for Inactive)
REMARK    1  A    between atoms: N_2  and  C_3 
REMARK    2  A    between atoms: N_4  and  C_15 
REMARK    3  A    between atoms: C_9  and  C_22 
REMARK    4  A    between atoms: C_15  and  C_16 
REMARK    5  A    between atoms: C_16  and  O_24 
ROOT
HETATM    1  C   UNL     1     -39.639 -48.414  12.811  1.00  0.00     0.122 A 
HETATM    2  C   UNL     1     -39.921 -47.156  13.408  1.00  0.00     0.136 C 
HETATM    3  N   UNL     1     -39.586 -50.605  12.781  1.00  0.00    -0.324 N 
HETATM    4  C   UNL     1     -39.685 -49.537  13.631  1.00  0.00     0.140 A 
HETATM    5  N   UNL     1     -39.374 -48.802  11.511  1.00  0.00    -0.346 N 
ATOM      6  HN  UNL     1     -39.209 -48.195  10.708  1.00  0.00     0.167 HD
HETATM    7  C   UNL     1     -39.376 -50.117  11.523  1.00  0.00     0.185 A 
HETATM    8  N   UNL     1     -40.053 -47.166  14.774  1.00  0.00    -0.337 N 
ATOM      9  HN  UNL     1     -40.208 -46.293  15.277  1.00  0.00     0.168 HD
HETATM   10  N   UNL     1     -39.844 -49.576  14.963  1.00  0.00    -0.336 N 
ATOM     11  HN  UNL     1     -39.860 -50.428  15.523  1.00  0.00     0.168 HD
HETATM   12  C   UNL     1     -39.977 -48.331  15.454  1.00  0.00     0.183 C 
ENDROOT
BRANCH   2  13
HETATM   13  N   UNL     1     -40.094 -45.945  12.742  1.00  0.00    -0.350 N 
HETATM   14  C   UNL     1     -40.617 -45.871  11.349  1.00  0.00     0.181 C 
HETATM   15  C   UNL     1     -40.048 -44.576  10.685  1.00  0.00     0.241 C 
HETATM   16  O   UNL     1     -39.707 -44.506   9.506  1.00  0.00    -0.271 OA
HETATM   17  N   UNL     1     -40.087 -43.423  11.447  1.00  0.00    -0.358 N 
HETATM   18  C   UNL     1     -39.768 -43.500  12.859  1.00  0.00     0.142 C 
HETATM   19  H   UNL     1     -39.735 -42.622  10.938  1.00  0.00     0.162 HD
HETATM   20  C   UNL     1     -40.297 -44.752  13.572  1.00  0.00     0.145 C 
BRANCH  14  21
HETATM   21  C   UNL     1     -42.174 -45.767  11.246  1.00  0.00     0.009 C 
HETATM   22  C   UNL     1     -42.629 -45.995   9.792  1.00  0.00     0.012 C 
HETATM   23  C   UNL     1     -42.987 -46.705  12.139  1.00  0.00     0.012 C 
ENDBRANCH  14  21
ENDBRANCH   2  13
BRANCH   3  24
HETATM   24  C   UNL     1     -39.647 -52.004  13.152  1.00  0.00     0.171 C 
BRANCH  24  25
HETATM   25  C   UNL     1     -40.848 -52.775  12.575  1.00  0.00     0.097 C 
HETATM   26  C   UNL     1     -42.100 -51.915  12.519  1.00  0.00     0.068 C 
HETATM   27  C   UNL     1     -43.231 -52.927  12.573  1.00  0.00     0.170 C 
HETATM   28  O   UNL     1     -42.731 -54.105  13.212  1.00  0.00    -0.388 OA
HETATM   29  C   UNL     1     -41.322 -53.935  13.451  1.00  0.00     0.207 C 
BRANCH  25  30
HETATM   30  O   UNL     1     -40.592 -53.250  11.248  1.00  0.00    -0.386 OA
HETATM   31  H   UNL     1     -39.630 -53.310  11.101  1.00  0.00     0.210 HD
ENDBRANCH  25  30
ENDBRANCH  24  25
ENDBRANCH   3  24
TORSDOF 5
ENDMDL
MODEL 4
REMARK VINA RESULT:      -6.5      2.104      7.843
REMARK  5 active torsions:
REMARK  status: ('A' for Active; 'I' for Inactive)
REMARK    1  A    between atoms: N_2  and  C_3 
REMARK    2  A    between atoms: N_4  and  C_15 
REMARK    3  A    between atoms: C_9  and  C_22 
REMARK    4  A    between atoms: C_15  and  C_16 
REMARK    5  A    between atoms: C_16  and  O_24 
ROOT
HETATM    1  C   UNL     1     -41.450 -49.555  11.938  1.00  0.00     0.122 A 
HETATM    2  C   UNL     1     -40.951 -48.243  11.724  1.00  0.00     0.136 C 
HETATM    3  N   UNL     1     -41.230 -51.693  12.370  1.00  0.00    -0.324 N 
HETATM    4  C   UNL     1     -40.529 -50.598  11.944  1.00  0.00     0.140 A 
HETATM    5  N   UNL     1     -42.710 -50.051  12.218  1.00  0.00    -0.346 N 
ATOM      6  HN  UNL     1     -43.591 -49.536  12.210  1.00  0.00     0.167 HD
HETATM    7  C   UNL     1     -42.539 -51.324  12.499  1.00  0.00     0.185 A 
HETATM    8  N   UNL     1     -39.624 -48.163  11.385  1.00  0.00    -0.337 N 
ATOM      9  HN  UNL     1     -39.207 -47.257  11.169  1.00  0.00     0.168 HD
HETATM   10  N   UNL     1     -39.222 -50.541  11.646  1.00  0.00    -0.336 N 
ATOM     11  HN  UNL     1     -38.587 -51.339  11.655  1.00  0.00     0.168 HD
HETATM   12  C   UNL     1     -38.868 -49.281  11.335  1.00  0.00     0.183 C 
ENDROOT
BRANCH   2  13
HETATM   13  N   UNL     1     -41.668 -47.055  11.848  1.00  0.00    -0.350 N 
HETATM   14  C   UNL     1     -41.979 -46.187  10.679  1.00  0.00     0.181 C 
HETATM   15  C   UNL     1     -42.123 -44.717  11.189  1.00  0.00     0.241 C 
HETATM   16  O   UNL     1     -41.735 -43.734  10.560  1.00  0.00    -0.271 OA
HETATM   17  N   UNL     1     -42.867 -44.532  12.339  1.00  0.00    -0.358 N 
HETATM   18  C   UNL     1     -42.727 -45.479  13.428  1.00  0.00     0.142 C 
HETATM   19  H   UNL     1     -42.944 -43.554  12.586  1.00  0.00     0.162 HD
HETATM   20  C   UNL     1     -42.579 -46.944  12.994  1.00  0.00     0.145 C 
BRANCH  14  21
HETATM   21  C   UNL     1     -43.322 -46.532   9.954  1.00  0.00     0.009 C 
HETATM   22  C   UNL     1     -43.833 -45.308   9.170  1.00  0.00     0.012 C 
HETATM   23  C   UNL     1     -43.299 -47.722   8.994  1.00  0.00     0.012 C 
ENDBRANCH  14  21
ENDBRANCH   2  13
BRANCH   3  24
HETATM   24  C   UNL     1     -40.693 -53.018  12.601  1.00  0.00     0.171 C 
BRANCH  24  25
HETATM   25  C   UNL     1     -39.763 -53.137  13.822  1.00  0.00     0.097 C 
HETATM   26  C   UNL     1     -39.591 -54.581  14.264  1.00  0.00     0.068 C 
HETATM   27  C   UNL     1     -39.245 -54.463  15.738  1.00  0.00     0.170 C 
HETATM   28  O   UNL     1     -39.772 -53.220  16.212  1.00  0.00    -0.388 OA
HETATM   29  C   UNL     1     -40.321 -52.499  15.094  1.00  0.00     0.207 C 
BRANCH  25  30
HETATM   30  O   UNL     1     -38.458 -52.610  13.553  1.00  0.00    -0.386 OA
HETATM   31  H   UNL     1     -37.833 -53.343  13.400  1.00  0.00     0.210 HD
ENDBRANCH  25  30
ENDBRANCH  24  25
ENDBRANCH   3  24
TORSDOF 5
ENDMDL
MODEL 5
REMARK VINA RESULT:      -6.5      3.737      8.244
REMARK  5 active torsions:
REMARK  status: ('A' for Active; 'I' for Inactive)
REMARK    1  A    between atoms: N_2  and  C_3 
REMARK    2  A    between atoms: N_4  and  C_15 
REMARK    3  A    between atoms: C_9  and  C_22 
REMARK    4  A    between atoms: C_15  and  C_16 
REMARK    5  A    between atoms: C_16  and  O_24 
ROOT
HETATM    1  C   UNL     1     -42.248 -52.831  13.046  1.00  0.00     0.122 A 
HETATM    2  C   UNL     1     -41.064 -52.160  13.450  1.00  0.00     0.136 C 
HETATM    3  N   UNL     1     -43.976 -54.138  13.381  1.00  0.00    -0.324 N 
HETATM    4  C   UNL     1     -42.751 -53.811  13.896  1.00  0.00     0.140 A 
HETATM    5  N   UNL     1     -43.096 -52.680  11.964  1.00  0.00    -0.346 N 
ATOM      6  HN  UNL     1     -42.949 -52.090  11.144  1.00  0.00     0.167 HD
HETATM    7  C   UNL     1     -44.130 -53.453  12.210  1.00  0.00     0.185 A 
HETATM    8  N   UNL     1     -40.450 -52.665  14.568  1.00  0.00    -0.337 N 
ATOM      9  HN  UNL     1     -39.569 -52.264  14.890  1.00  0.00     0.168 HD
HETATM   10  N   UNL     1     -42.187 -54.300  15.011  1.00  0.00    -0.336 N 
ATOM     11  HN  UNL     1     -42.592 -55.029  15.598  1.00  0.00     0.168 HD
HETATM   12  C   UNL     1     -41.010 -53.692  15.244  1.00  0.00     0.183 C 
ENDROOT
BRANCH   2  13
HETATM   13  N   UNL     1     -40.496 -51.045  12.838  1.00  0.00    -0.350 N 
HETATM   14  C   UNL     1     -41.276 -49.808  12.557  1.00  0.00     0.181 C 
HETATM   15  C   UNL     1     -40.633 -49.098  11.322  1.00  0.00     0.241 C 
HETATM   16  O   UNL     1     -41.282 -48.516  10.453  1.00  0.00    -0.271 OA
HETATM   17  N   UNL     1     -39.255 -49.002  11.313  1.00  0.00    -0.358 N 
HETATM   18  C   UNL     1     -38.466 -50.130  11.767  1.00  0.00     0.142 C 
HETATM   19  H   UNL     1     -38.916 -48.500  10.502  1.00  0.00     0.162 HD
HETATM   20  C   UNL     1     -39.045 -50.874  12.979  1.00  0.00     0.145 C 
BRANCH  14  21
HETATM   21  C   UNL     1     -41.268 -48.759  13.717  1.00  0.00     0.009 C 
HETATM   22  C   UNL     1     -42.244 -47.610  13.404  1.00  0.00     0.012 C 
HETATM   23  C   UNL     1     -41.597 -49.279  15.117  1.00  0.00     0.012 C 
ENDBRANCH  14  21
ENDBRANCH   2  13
BRANCH   3  24
HETATM   24  C   UNL     1     -44.923 -55.074  13.950  1.00  0.00     0.171 C 
BRANCH  24  25
HETATM   25  C   UNL     1     -46.079 -54.429  14.737  1.00  0.00     0.097 C 
HETATM   26  C   UNL     1     -46.489 -53.090  14.146  1.00  0.00     0.068 C 
HETATM   27  C   UNL     1     -47.100 -52.353  15.325  1.00  0.00     0.170 C 
HETATM   28  O   UNL     1     -46.543 -52.906  16.521  1.00  0.00    -0.388 OA
HETATM   29  C   UNL     1     -45.713 -54.026  16.165  1.00  0.00     0.207 C 
BRANCH  25  30
HETATM   30  O   UNL     1     -47.243 -55.266  14.758  1.00  0.00    -0.386 OA
HETATM   31  H   UNL     1     -47.701 -55.170  15.613  1.00  0.00     0.210 HD
ENDBRANCH  25  30
ENDBRANCH  24  25
ENDBRANCH   3  24
TORSDOF 5
ENDMDL
MODEL 6
REMARK VINA RESULT:      -6.4      3.077      4.973
REMARK  5 active torsions:
REMARK  status: ('A' for Active; 'I' for Inactive)
REMARK    1  A    between atoms: N_2  and  C_3 
REMARK    2  A    between atoms: N_4  and  C_15 
REMARK    3  A    between atoms: C_9  and  C_22 
REMARK    4  A    between atoms: C_15  and  C_16 
REMARK    5  A    between atoms: C_16  and  O_24 
ROOT
HETATM    1  C   UNL     1     -42.479 -50.468  13.029  1.00  0.00     0.122 A 
HETATM    2  C   UNL     1     -43.007 -51.754  12.741  1.00  0.00     0.136 C 
HETATM    3  N   UNL     1     -41.196 -48.736  12.627  1.00  0.00    -0.324 N 
HETATM    4  C   UNL     1     -41.362 -50.057  12.309  1.00  0.00     0.140 A 
HETATM    5  N   UNL     1     -42.886 -49.448  13.871  1.00  0.00    -0.346 N 
ATOM      6  HN  UNL     1     -43.629 -49.485  14.569  1.00  0.00     0.167 HD
HETATM    7  C   UNL     1     -42.117 -48.421  13.584  1.00  0.00     0.185 A 
HETATM    8  N   UNL     1     -42.256 -52.524  11.889  1.00  0.00    -0.337 N 
ATOM      9  HN  UNL     1     -42.548 -53.477  11.673  1.00  0.00     0.168 HD
HETATM   10  N   UNL     1     -40.629 -50.779  11.447  1.00  0.00    -0.336 N 
ATOM     11  HN  UNL     1     -39.809 -50.434  10.950  1.00  0.00     0.168 HD
HETATM   12  C   UNL     1     -41.131 -52.022  11.335  1.00  0.00     0.183 C 
ENDROOT
BRANCH   2  13
HETATM   13  N   UNL     1     -44.204 -52.282  13.218  1.00  0.00    -0.350 N 
HETATM   14  C   UNL     1     -44.245 -53.391  14.212  1.00  0.00     0.181 C 
HETATM   15  C   UNL     1     -45.576 -54.182  14.003  1.00  0.00     0.241 C 
HETATM   16  O   UNL     1     -45.670 -55.404  14.116  1.00  0.00    -0.271 OA
HETATM   17  N   UNL     1     -46.723 -53.429  13.837  1.00  0.00    -0.358 N 
HETATM   18  C   UNL     1     -46.666 -52.229  13.025  1.00  0.00     0.142 C 
HETATM   19  H   UNL     1     -47.546 -54.010  13.744  1.00  0.00     0.162 HD
HETATM   20  C   UNL     1     -45.380 -51.405  13.182  1.00  0.00     0.145 C 
BRANCH  14  21
HETATM   21  C   UNL     1     -44.243 -52.924  15.705  1.00  0.00     0.009 C 
HETATM   22  C   UNL     1     -44.527 -54.117  16.636  1.00  0.00     0.012 C 
HETATM   23  C   UNL     1     -42.975 -52.233  16.208  1.00  0.00     0.012 C 
ENDBRANCH  14  21
ENDBRANCH   2  13
BRANCH   3  24
HETATM   24  C   UNL     1     -40.196 -47.842  12.080  1.00  0.00     0.171 C 
BRANCH  24  25
HETATM   25  C   UNL     1     -40.741 -46.772  11.117  1.00  0.00     0.097 C 
HETATM   26  C   UNL     1     -41.325 -45.583  11.862  1.00  0.00     0.068 C 
HETATM   27  C   UNL     1     -42.332 -45.009  10.882  1.00  0.00     0.170 C 
HETATM   28  O   UNL     1     -42.732 -46.062  10.000  1.00  0.00    -0.388 OA
HETATM   29  C   UNL     1     -41.945 -47.230  10.293  1.00  0.00     0.207 C 
BRANCH  25  30
HETATM   30  O   UNL     1     -39.722 -46.274  10.241  1.00  0.00    -0.386 OA
HETATM   31  H   UNL     1     -39.252 -47.021   9.826  1.00  0.00     0.210 HD
ENDBRANCH  25  30
ENDBRANCH  24  25
ENDBRANCH   3  24
TORSDOF 5
ENDMDL
MODEL 7
REMARK VINA RESULT:      -6.3      2.227      7.688
REMARK  5 active torsions:
REMARK  status: ('A' for Active; 'I' for Inactive)
REMARK    1  A    between atoms: N_2  and  C_3 
REMARK    2  A    between atoms: N_4  and  C_15 
REMARK    3  A    between atoms: C_9  and  C_22 
REMARK    4  A    between atoms: C_15  and  C_16 
REMARK    5  A    between atoms: C_16  and  O_24 
ROOT
HETATM    1  C   UNL     1     -41.240 -49.567  11.982  1.00  0.00     0.122 A 
HETATM    2  C   UNL     1     -40.628 -48.306  11.755  1.00  0.00     0.136 C 
HETATM    3  N   UNL     1     -41.209 -51.712  12.435  1.00  0.00    -0.324 N 
HETATM    4  C   UNL     1     -40.414 -50.686  11.999  1.00  0.00     0.140 A 
HETATM    5  N   UNL     1     -42.539 -49.948  12.266  1.00  0.00    -0.346 N 
ATOM      6  HN  UNL     1     -43.371 -49.357  12.251  1.00  0.00     0.167 HD
HETATM    7  C   UNL     1     -42.480 -51.228  12.559  1.00  0.00     0.185 A 
HETATM    8  N   UNL     1     -39.299 -48.346  11.416  1.00  0.00    -0.337 N 
ATOM      9  HN  UNL     1     -38.805 -47.483  11.192  1.00  0.00     0.168 HD
HETATM   10  N   UNL     1     -39.107 -50.748  11.702  1.00  0.00    -0.336 N 
ATOM     11  HN  UNL     1     -38.545 -51.598  11.719  1.00  0.00     0.168 HD
HETATM   12  C   UNL     1     -38.645 -49.527  11.378  1.00  0.00     0.183 C 
ENDROOT
BRANCH   2  13
HETATM   13  N   UNL     1     -41.238 -47.059  11.867  1.00  0.00    -0.350 N 
HETATM   14  C   UNL     1     -41.395 -46.364  13.175  1.00  0.00     0.181 C 
HETATM   15  C   UNL     1     -42.650 -45.436  13.085  1.00  0.00     0.241 C 
HETATM   16  O   UNL     1     -43.431 -45.251  14.017  1.00  0.00    -0.271 OA
HETATM   17  N   UNL     1     -42.776 -44.677  11.937  1.00  0.00    -0.358 N 
HETATM   18  C   UNL     1     -42.443 -45.272  10.658  1.00  0.00     0.142 C 
HETATM   19  H   UNL     1     -43.590 -44.078  11.968  1.00  0.00     0.162 HD
HETATM   20  C   UNL     1     -41.218 -46.199  10.678  1.00  0.00     0.145 C 
BRANCH  14  21
HETATM   21  C   UNL     1     -40.195 -45.439  13.566  1.00  0.00     0.009 C 
HETATM   22  C   UNL     1     -40.611 -44.474  14.691  1.00  0.00     0.012 C 
HETATM   23  C   UNL     1     -38.906 -46.134  14.004  1.00  0.00     0.012 C 
ENDBRANCH  14  21
ENDBRANCH   2  13
BRANCH   3  24
HETATM   24  C   UNL     1     -40.791 -53.076  12.680  1.00  0.00     0.171 C 
BRANCH  24  25
HETATM   25  C   UNL     1     -39.884 -53.266  13.910  1.00  0.00     0.097 C 
HETATM   26  C   UNL     1     -39.990 -54.670  14.481  1.00  0.00     0.068 C 
HETATM   27  C   UNL     1     -39.606 -54.492  15.938  1.00  0.00     0.170 C 
HETATM   28  O   UNL     1     -39.874 -53.134  16.297  1.00  0.00    -0.388 OA
HETATM   29  C   UNL     1     -40.288 -52.421  15.118  1.00  0.00     0.207 C 
BRANCH  25  30
HETATM   30  O   UNL     1     -38.505 -53.029  13.599  1.00  0.00    -0.386 OA
HETATM   31  H   UNL     1     -37.987 -53.838  13.768  1.00  0.00     0.210 HD
ENDBRANCH  25  30
ENDBRANCH  24  25
ENDBRANCH   3  24
TORSDOF 5
ENDMDL
MODEL 8
REMARK VINA RESULT:      -6.2      2.850      4.319
REMARK  5 active torsions:
REMARK  status: ('A' for Active; 'I' for Inactive)
REMARK    1  A    between atoms: N_2  and  C_3 
REMARK    2  A    between atoms: N_4  and  C_15 
REMARK    3  A    between atoms: C_9  and  C_22 
REMARK    4  A    between atoms: C_15  and  C_16 
REMARK    5  A    between atoms: C_16  and  O_24 
ROOT
HETATM    1  C   UNL     1     -42.993 -48.944  12.972  1.00  0.00     0.122 A 
HETATM    2  C   UNL     1     -43.416 -49.679  14.110  1.00  0.00     0.136 C 
HETATM    3  N   UNL     1     -41.571 -47.707  11.850  1.00  0.00    -0.324 N 
HETATM    4  C   UNL     1     -41.879 -48.122  13.117  1.00  0.00     0.140 A 
HETATM    5  N   UNL     1     -43.426 -48.905  11.659  1.00  0.00    -0.346 N 
ATOM      6  HN  UNL     1     -44.261 -49.347  11.272  1.00  0.00     0.167 HD
HETATM    7  C   UNL     1     -42.540 -48.182  11.011  1.00  0.00     0.185 A 
HETATM    8  N   UNL     1     -42.773 -49.375  15.283  1.00  0.00    -0.337 N 
ATOM      9  HN  UNL     1     -43.056 -49.829  16.152  1.00  0.00     0.168 HD
HETATM   10  N   UNL     1     -41.214 -47.832  14.246  1.00  0.00    -0.336 N 
ATOM     11  HN  UNL     1     -40.406 -47.213  14.303  1.00  0.00     0.168 HD
HETATM   12  C   UNL     1     -41.765 -48.476  15.290  1.00  0.00     0.183 C 
ENDROOT
BRANCH   2  13
HETATM   13  N   UNL     1     -44.389 -50.676  14.136  1.00  0.00    -0.350 N 
HETATM   14  C   UNL     1     -44.332 -51.867  13.243  1.00  0.00     0.181 C 
HETATM   15  C   UNL     1     -45.793 -52.365  13.003  1.00  0.00     0.241 C 
HETATM   16  O   UNL     1     -46.195 -52.815  11.931  1.00  0.00    -0.271 OA
HETATM   17  N   UNL     1     -46.612 -52.436  14.114  1.00  0.00    -0.358 N 
HETATM   18  C   UNL     1     -46.550 -51.379  15.104  1.00  0.00     0.142 C 
HETATM   19  H   UNL     1     -47.528 -52.800  13.886  1.00  0.00     0.162 HD
HETATM   20  C   UNL     1     -45.139 -50.842  15.386  1.00  0.00     0.145 C 
BRANCH  14  21
HETATM   21  C   UNL     1     -43.547 -53.084  13.836  1.00  0.00     0.009 C 
HETATM   22  C   UNL     1     -43.725 -54.321  12.936  1.00  0.00     0.012 C 
HETATM   23  C   UNL     1     -42.048 -52.889  14.066  1.00  0.00     0.012 C 
ENDBRANCH  14  21
ENDBRANCH   2  13
BRANCH   3  24
HETATM   24  C   UNL     1     -40.447 -46.878  11.468  1.00  0.00     0.171 C 
BRANCH  24  25
HETATM   25  C   UNL     1     -40.821 -45.475  10.957  1.00  0.00     0.097 C 
HETATM   26  C   UNL     1     -39.732 -44.456  11.252  1.00  0.00     0.068 C 
HETATM   27  C   UNL     1     -40.482 -43.137  11.298  1.00  0.00     0.170 C 
HETATM   28  O   UNL     1     -41.845 -43.421  11.629  1.00  0.00    -0.388 OA
HETATM   29  C   UNL     1     -42.018 -44.849  11.672  1.00  0.00     0.207 C 
BRANCH  25  30
HETATM   30  O   UNL     1     -41.048 -45.465   9.542  1.00  0.00    -0.386 OA
HETATM   31  H   UNL     1     -41.594 -44.693   9.303  1.00  0.00     0.210 HD
ENDBRANCH  25  30
ENDBRANCH  24  25
ENDBRANCH   3  24
TORSDOF 5
ENDMDL
MODEL 9
REMARK VINA RESULT:      -6.1      2.937      8.045
REMARK  5 active torsions:
REMARK  status: ('A' for Active; 'I' for Inactive)
REMARK    1  A    between atoms: N_2  and  C_3 
REMARK    2  A    between atoms: N_4  and  C_15 
REMARK    3  A    between atoms: C_9  and  C_22 
REMARK    4  A    between atoms: C_15  and  C_16 
REMARK    5  A    between atoms: C_16  and  O_24 
ROOT
HETATM    1  C   UNL     1     -42.638 -50.517  13.273  1.00  0.00     0.122 A 
HETATM    2  C   UNL     1     -42.012 -49.804  12.217  1.00  0.00     0.136 C 
HETATM    3  N   UNL     1     -42.805 -52.182  14.691  1.00  0.00    -0.324 N 
HETATM    4  C   UNL     1     -42.198 -51.814  13.520  1.00  0.00     0.140 A 
HETATM    5  N   UNL     1     -43.601 -50.172  14.204  1.00  0.00    -0.346 N 
ATOM      6  HN  UNL     1     -44.155 -49.315  14.229  1.00  0.00     0.167 HD
HETATM    7  C   UNL     1     -43.655 -51.176  15.051  1.00  0.00     0.185 A 
HETATM    8  N   UNL     1     -41.143 -50.533  11.445  1.00  0.00    -0.337 N 
ATOM      9  HN  UNL     1     -40.692 -50.100  10.639  1.00  0.00     0.168 HD
HETATM   10  N   UNL     1     -41.328 -52.538  12.800  1.00  0.00    -0.336 N 
ATOM     11  HN  UNL     1     -41.043 -53.492  13.017  1.00  0.00     0.168 HD
HETATM   12  C   UNL     1     -40.884 -51.823  11.750  1.00  0.00     0.183 C 
ENDROOT
BRANCH   2  13
HETATM   13  N   UNL     1     -42.181 -48.454  11.917  1.00  0.00    -0.350 N 
HETATM   14  C   UNL     1     -41.735 -47.373  12.839  1.00  0.00     0.181 C 
HETATM   15  C   UNL     1     -42.641 -46.124  12.597  1.00  0.00     0.241 C 
HETATM   16  O   UNL     1     -43.022 -45.371  13.492  1.00  0.00    -0.271 OA
HETATM   17  N   UNL     1     -42.884 -45.783  11.279  1.00  0.00    -0.358 N 
HETATM   18  C   UNL     1     -43.133 -46.835  10.314  1.00  0.00     0.142 C 
HETATM   19  H   UNL     1     -43.447 -44.945  11.204  1.00  0.00     0.162 HD
HETATM   20  C   UNL     1     -42.274 -48.094  10.498  1.00  0.00     0.145 C 
BRANCH  14  21
HETATM   21  C   UNL     1     -40.262 -46.895  12.614  1.00  0.00     0.009 C 
HETATM   22  C   UNL     1     -39.976 -45.637  13.455  1.00  0.00     0.012 C 
HETATM   23  C   UNL     1     -39.157 -47.910  12.907  1.00  0.00     0.012 C 
ENDBRANCH  14  21
ENDBRANCH   2  13
BRANCH   3  24
HETATM   24  C   UNL     1     -42.615 -53.431  15.399  1.00  0.00     0.171 C 
BRANCH  24  25
HETATM   25  C   UNL     1     -43.745 -54.460  15.213  1.00  0.00     0.097 C 
HETATM   26  C   UNL     1     -44.280 -54.463  13.790  1.00  0.00     0.068 C 
HETATM   27  C   UNL     1     -45.699 -54.981  13.944  1.00  0.00     0.170 C 
HETATM   28  O   UNL     1     -46.124 -54.698  15.280  1.00  0.00    -0.388 OA
HETATM   29  C   UNL     1     -45.013 -54.144  16.007  1.00  0.00     0.207 C 
BRANCH  25  30
HETATM   30  O   UNL     1     -43.310 -55.792  15.513  1.00  0.00    -0.386 OA
HETATM   31  H   UNL     1     -44.083 -56.383  15.578  1.00  0.00     0.210 HD
ENDBRANCH  25  30
ENDBRANCH  24  25
ENDBRANCH   3  24
TORSDOF 5
ENDMDL
