MODEL 1
REMARK VINA RESULT:      -5.9      0.000      0.000
REMARK  6 active torsions:
REMARK  status: ('A' for Active; 'I' for Inactive)
REMARK    1  A    between atoms: C_2  and  C_3 
REMARK    2  A    between atoms: C_3  and  C_5 
REMARK    3  A    between atoms: C_3  and  N_19 
REMARK    4  A    between atoms: C_5  and  N_6 
REMARK       I    between atoms: N_6  and  C_7 
REMARK    5  A    between atoms: C_7  and  C_9 
REMARK    6  A    between atoms: C_9  and  N_10 
ROOT
HETATM    1  N   UNL     1     -42.640 -52.563  11.847  1.00  0.00    -0.357 N 
HETATM    2  C   UNL     1     -42.919 -53.464  12.855  1.00  0.00     0.236 C 
HETATM    3  O   UNL     1     -42.109 -53.765  13.734  1.00  0.00    -0.272 OA
HETATM    4  H   UNL     1     -43.395 -52.240  11.246  1.00  0.00     0.162 HD
ENDROOT
BRANCH   1   5
HETATM    5  C   UNL     1     -41.350 -51.886  11.759  1.00  0.00     0.164 C 
BRANCH   5   6
HETATM    6  C   UNL     1     -41.308 -50.411  12.325  1.00  0.00     0.171 C 
HETATM    7  C   UNL     1     -40.499 -50.472  13.651  1.00  0.00     0.051 C 
BRANCH   6   8
HETATM    8  C   UNL     1     -42.766 -49.963  12.652  1.00  0.00     0.038 C 
HETATM    9  C   UNL     1     -43.146 -49.730  14.111  1.00  0.00     0.007 C 
ENDBRANCH   6   8
BRANCH   6  10
HETATM   10  N   UNL     1     -40.613 -49.461  11.386  1.00  0.00     0.103 N 
HETATM   11  C   UNL     1     -39.395 -48.770  11.878  1.00  0.00     0.299 C 
HETATM   12  C   UNL     1     -39.628 -47.436  12.617  1.00  0.00     0.198 C 
HETATM   13  O   UNL     1     -40.402 -46.528  11.830  1.00  0.00    -0.388 OA
HETATM   14  C   UNL     1     -41.642 -47.115  11.424  1.00  0.00     0.198 C 
HETATM   15  C   UNL     1     -41.434 -48.452  10.683  1.00  0.00     0.299 C 
ENDBRANCH   6  10
ENDBRANCH   5   6
ENDBRANCH   1   5
BRANCH   2  16
HETATM   16  C   UNL     1     -44.339 -54.030  12.870  1.00  0.00     0.235 C 
BRANCH  16  17
HETATM   17  N   UNL     1     -45.205 -53.278  13.782  1.00  0.00    -0.301 N 
HETATM   18  C   UNL     1     -45.881 -52.172  13.321  1.00  0.00     0.102 A 
HETATM   19  C   UNL     1     -46.679 -51.458  14.115  1.00  0.00     0.092 A 
HETATM   20  C   UNL     1     -46.831 -51.846  15.526  1.00  0.00     0.252 A 
HETATM   21  O   UNL     1     -47.572 -51.178  16.244  1.00  0.00    -0.268 OA
HETATM   22  N   UNL     1     -46.113 -52.954  15.934  1.00  0.00    -0.271 N 
HETATM   23  C   UNL     1     -46.199 -53.368  17.320  1.00  0.00     0.164 C 
HETATM   24  C   UNL     1     -45.334 -53.740  15.088  1.00  0.00     0.331 A 
HETATM   25  O   UNL     1     -44.791 -54.781  15.463  1.00  0.00    -0.246 OA
ENDBRANCH  16  17
ENDBRANCH   2  16
TORSDOF 6
ENDMDL
MODEL 2
REMARK VINA RESULT:      -5.9      1.394      2.350
REMARK  6 active torsions:
REMARK  status: ('A' for Active; 'I' for Inactive)
REMARK    1  A    between atoms: C_2  and  C_3 
REMARK    2  A    between atoms: C_3  and  C_5 
REMARK    3  A    between atoms: C_3  and  N_19 
REMARK    4  A    between atoms: C_5  and  N_6 
REMARK       I    between atoms: N_6  and  C_7 
REMARK    5  A    between atoms: C_7  and  C_9 
REMARK    6  A    between atoms: C_9  and  N_10 
ROOT
HETATM    1  N   UNL     1     -42.469 -52.322  11.845  1.00  0.00    -0.357 N 
HETATM    2  C   UNL     1     -42.735 -53.335  12.743  1.00  0.00     0.236 C 
HETATM    3  O   UNL     1     -41.921 -53.722  13.583  1.00  0.00    -0.272 OA
HETATM    4  H   UNL     1     -43.230 -51.942  11.283  1.00  0.00     0.162 HD
ENDROOT
BRANCH   1   5
HETATM    5  C   UNL     1     -41.189 -51.621  11.835  1.00  0.00     0.164 C 
BRANCH   5   6
HETATM    6  C   UNL     1     -41.236 -50.100  12.262  1.00  0.00     0.171 C 
HETATM    7  C   UNL     1     -42.651 -49.853  12.857  1.00  0.00     0.051 C 
BRANCH   6   8
HETATM    8  C   UNL     1     -41.073 -49.221  10.984  1.00  0.00     0.038 C 
HETATM    9  C   UNL     1     -42.163 -48.204  10.657  1.00  0.00     0.007 C 
ENDBRANCH   6   8
BRANCH   6  10
HETATM   10  N   UNL     1     -40.212 -49.774  13.317  1.00  0.00     0.103 N 
HETATM   11  C   UNL     1     -38.946 -49.134  12.878  1.00  0.00     0.299 C 
HETATM   12  C   UNL     1     -37.812 -50.095  12.466  1.00  0.00     0.198 C 
HETATM   13  O   UNL     1     -37.530 -51.047  13.494  1.00  0.00    -0.388 OA
HETATM   14  C   UNL     1     -38.705 -51.770  13.872  1.00  0.00     0.198 C 
HETATM   15  C   UNL     1     -39.854 -50.829  14.289  1.00  0.00     0.299 C 
ENDBRANCH   6  10
ENDBRANCH   5   6
ENDBRANCH   1   5
BRANCH   2  16
HETATM   16  C   UNL     1     -44.147 -53.919  12.693  1.00  0.00     0.235 C 
BRANCH  16  17
HETATM   17  N   UNL     1     -45.046 -53.226  13.620  1.00  0.00    -0.301 N 
HETATM   18  C   UNL     1     -45.742 -52.119  13.193  1.00  0.00     0.102 A 
HETATM   19  C   UNL     1     -46.570 -51.457  14.002  1.00  0.00     0.092 A 
HETATM   20  C   UNL     1     -46.734 -51.907  15.394  1.00  0.00     0.252 A 
HETATM   21  O   UNL     1     -47.503 -51.288  16.126  1.00  0.00    -0.268 OA
HETATM   22  N   UNL     1     -45.995 -53.013  15.768  1.00  0.00    -0.271 N 
HETATM   23  C   UNL     1     -46.092 -53.485  17.135  1.00  0.00     0.164 C 
HETATM   24  C   UNL     1     -45.184 -53.744  14.904  1.00  0.00     0.331 A 
HETATM   25  O   UNL     1     -44.620 -54.786  15.245  1.00  0.00    -0.246 OA
ENDBRANCH  16  17
ENDBRANCH   2  16
TORSDOF 6
ENDMDL
MODEL 3
REMARK VINA RESULT:      -5.8      2.035      7.605
REMARK  6 active torsions:
REMARK  status: ('A' for Active; 'I' for Inactive)
REMARK    1  A    between atoms: C_2  and  C_3 
REMARK    2  A    between atoms: C_3  and  C_5 
REMARK    3  A    between atoms: C_3  and  N_19 
REMARK    4  A    between atoms: C_5  and  N_6 
REMARK       I    between atoms: N_6  and  C_7 
REMARK    5  A    between atoms: C_7  and  C_9 
REMARK    6  A    between atoms: C_9  and  N_10 
ROOT
HETATM    1  N   UNL     1     -42.460 -50.495  12.384  1.00  0.00    -0.357 N 
HETATM    2  C   UNL     1     -41.297 -49.758  12.297  1.00  0.00     0.236 C 
HETATM    3  O   UNL     1     -40.545 -49.569  13.256  1.00  0.00    -0.272 OA
HETATM    4  H   UNL     1     -42.955 -50.745  11.529  1.00  0.00     0.162 HD
ENDROOT
BRANCH   1   5
HETATM    5  C   UNL     1     -42.880 -51.122  13.633  1.00  0.00     0.164 C 
BRANCH   5   6
HETATM    6  C   UNL     1     -44.079 -52.146  13.519  1.00  0.00     0.171 C 
HETATM    7  C   UNL     1     -43.905 -52.876  12.157  1.00  0.00     0.051 C 
BRANCH   6   8
HETATM    8  C   UNL     1     -45.416 -51.343  13.486  1.00  0.00     0.038 C 
HETATM    9  C   UNL     1     -46.496 -51.770  12.497  1.00  0.00     0.007 C 
ENDBRANCH   6   8
BRANCH   6  10
HETATM   10  N   UNL     1     -44.054 -53.175  14.617  1.00  0.00     0.103 N 
HETATM   11  C   UNL     1     -44.284 -54.593  14.242  1.00  0.00     0.299 C 
HETATM   12  C   UNL     1     -45.755 -55.054  14.218  1.00  0.00     0.198 C 
HETATM   13  O   UNL     1     -46.412 -54.781  15.458  1.00  0.00    -0.388 OA
HETATM   14  C   UNL     1     -46.313 -53.396  15.806  1.00  0.00     0.198 C 
HETATM   15  C   UNL     1     -44.849 -52.911  15.836  1.00  0.00     0.299 C 
ENDBRANCH   6  10
ENDBRANCH   5   6
ENDBRANCH   1   5
BRANCH   2  16
HETATM   16  C   UNL     1     -40.940 -49.233  10.906  1.00  0.00     0.235 C 
BRANCH  16  17
HETATM   17  N   UNL     1     -41.513 -47.905  10.672  1.00  0.00    -0.301 N 
HETATM   18  C   UNL     1     -42.803 -47.793  10.209  1.00  0.00     0.102 A 
HETATM   19  C   UNL     1     -43.365 -46.605   9.982  1.00  0.00     0.092 A 
HETATM   20  C   UNL     1     -42.585 -45.380  10.213  1.00  0.00     0.252 A 
HETATM   21  O   UNL     1     -43.118 -44.293  10.001  1.00  0.00    -0.268 OA
HETATM   22  N   UNL     1     -41.289 -45.558  10.660  1.00  0.00    -0.271 N 
HETATM   23  C   UNL     1     -40.461 -44.389  10.878  1.00  0.00     0.164 C 
HETATM   24  C   UNL     1     -40.726 -46.795  10.963  1.00  0.00     0.331 A 
HETATM   25  O   UNL     1     -39.603 -46.910  11.459  1.00  0.00    -0.246 OA
ENDBRANCH  16  17
ENDBRANCH   2  16
TORSDOF 6
ENDMDL
MODEL 4
REMARK VINA RESULT:      -5.7      2.129      7.513
REMARK  6 active torsions:
REMARK  status: ('A' for Active; 'I' for Inactive)
REMARK    1  A    between atoms: C_2  and  C_3 
REMARK    2  A    between atoms: C_3  and  C_5 
REMARK    3  A    between atoms: C_3  and  N_19 
REMARK    4  A    between atoms: C_5  and  N_6 
REMARK       I    between atoms: N_6  and  C_7 
REMARK    5  A    between atoms: C_7  and  C_9 
REMARK    6  A    between atoms: C_9  and  N_10 
ROOT
HETATM    1  N   UNL     1     -43.369 -50.107  12.725  1.00  0.00    -0.357 N 
HETATM    2  C   UNL     1     -42.133 -49.495  12.692  1.00  0.00     0.236 C 
HETATM    3  O   UNL     1     -41.458 -49.283  13.702  1.00  0.00    -0.272 OA
HETATM    4  H   UNL     1     -43.805 -50.393  11.850  1.00  0.00     0.162 HD
ENDROOT
BRANCH   1   5
HETATM    5  C   UNL     1     -43.967 -50.563  13.975  1.00  0.00     0.164 C 
BRANCH   5   6
HETATM    6  C   UNL     1     -44.952 -51.793  13.858  1.00  0.00     0.171 C 
HETATM    7  C   UNL     1     -46.077 -51.363  12.875  1.00  0.00     0.051 C 
BRANCH   6   8
HETATM    8  C   UNL     1     -45.587 -52.056  15.258  1.00  0.00     0.038 C 
HETATM    9  C   UNL     1     -47.108 -52.096  15.370  1.00  0.00     0.007 C 
ENDBRANCH   6   8
BRANCH   6  10
HETATM   10  N   UNL     1     -44.272 -53.014  13.298  1.00  0.00     0.103 N 
HETATM   11  C   UNL     1     -45.127 -54.156  12.887  1.00  0.00     0.299 C 
HETATM   12  C   UNL     1     -45.457 -55.183  13.990  1.00  0.00     0.198 C 
HETATM   13  O   UNL     1     -44.272 -55.681  14.615  1.00  0.00    -0.388 OA
HETATM   14  C   UNL     1     -43.466 -54.616  15.129  1.00  0.00     0.198 C 
HETATM   15  C   UNL     1     -43.123 -53.575  14.043  1.00  0.00     0.299 C 
ENDBRANCH   6  10
ENDBRANCH   5   6
ENDBRANCH   1   5
BRANCH   2  16
HETATM   16  C   UNL     1     -41.594 -49.148  11.304  1.00  0.00     0.235 C 
BRANCH  16  17
HETATM   17  N   UNL     1     -42.085 -47.844  10.850  1.00  0.00    -0.301 N 
HETATM   18  C   UNL     1     -43.290 -47.762  10.192  1.00  0.00     0.102 A 
HETATM   19  C   UNL     1     -43.774 -46.597   9.761  1.00  0.00     0.092 A 
HETATM   20  C   UNL     1     -42.998 -45.366   9.977  1.00  0.00     0.252 A 
HETATM   21  O   UNL     1     -43.460 -44.300   9.576  1.00  0.00    -0.268 OA
HETATM   22  N   UNL     1     -41.787 -45.515  10.628  1.00  0.00    -0.271 N 
HETATM   23  C   UNL     1     -40.963 -44.343  10.843  1.00  0.00     0.164 C 
HETATM   24  C   UNL     1     -41.314 -46.722  11.138  1.00  0.00     0.331 A 
HETATM   25  O   UNL     1     -40.280 -46.801  11.804  1.00  0.00    -0.246 OA
ENDBRANCH  16  17
ENDBRANCH   2  16
TORSDOF 6
ENDMDL
MODEL 5
REMARK VINA RESULT:      -5.7      2.170      7.011
REMARK  6 active torsions:
REMARK  status: ('A' for Active; 'I' for Inactive)
REMARK    1  A    between atoms: C_2  and  C_3 
REMARK    2  A    between atoms: C_3  and  C_5 
REMARK    3  A    between atoms: C_3  and  N_19 
REMARK    4  A    between atoms: C_5  and  N_6 
REMARK       I    between atoms: N_6  and  C_7 
REMARK    5  A    between atoms: C_7  and  C_9 
REMARK    6  A    between atoms: C_9  and  N_10 
ROOT
HETATM    1  N   UNL     1     -42.921 -50.291  12.469  1.00  0.00    -0.357 N 
HETATM    2  C   UNL     1     -42.254 -49.223  11.905  1.00  0.00     0.236 C 
HETATM    3  O   UNL     1     -42.654 -48.060  11.984  1.00  0.00    -0.272 OA
HETATM    4  H   UNL     1     -42.465 -51.201  12.504  1.00  0.00     0.162 HD
ENDROOT
BRANCH   1   5
HETATM    5  C   UNL     1     -44.160 -50.112  13.219  1.00  0.00     0.164 C 
BRANCH   5   6
HETATM    6  C   UNL     1     -44.915 -51.440  13.625  1.00  0.00     0.171 C 
HETATM    7  C   UNL     1     -46.118 -51.577  12.648  1.00  0.00     0.051 C 
BRANCH   6   8
HETATM    8  C   UNL     1     -45.468 -51.273  15.074  1.00  0.00     0.038 C 
HETATM    9  C   UNL     1     -46.958 -51.495  15.314  1.00  0.00     0.007 C 
ENDBRANCH   6   8
BRANCH   6  10
HETATM   10  N   UNL     1     -44.042 -52.658  13.480  1.00  0.00     0.103 N 
HETATM   11  C   UNL     1     -44.623 -53.850  12.812  1.00  0.00     0.299 C 
HETATM   12  C   UNL     1     -45.375 -54.836  13.728  1.00  0.00     0.198 C 
HETATM   13  O   UNL     1     -44.563 -55.258  14.826  1.00  0.00    -0.388 OA
HETATM   14  C   UNL     1     -44.070 -54.140  15.570  1.00  0.00     0.198 C 
HETATM   15  C   UNL     1     -43.313 -53.137  14.673  1.00  0.00     0.299 C 
ENDBRANCH   6  10
ENDBRANCH   5   6
ENDBRANCH   1   5
BRANCH   2  16
HETATM   16  C   UNL     1     -40.925 -49.550  11.223  1.00  0.00     0.235 C 
BRANCH  16  17
HETATM   17  N   UNL     1     -39.857 -49.758  12.205  1.00  0.00    -0.301 N 
HETATM   18  C   UNL     1     -39.060 -48.700  12.578  1.00  0.00     0.102 A 
HETATM   19  C   UNL     1     -38.077 -48.843  13.467  1.00  0.00     0.092 A 
HETATM   20  C   UNL     1     -37.820 -50.167  14.054  1.00  0.00     0.252 A 
HETATM   21  O   UNL     1     -36.911 -50.282  14.873  1.00  0.00    -0.268 OA
HETATM   22  N   UNL     1     -38.641 -51.194  13.626  1.00  0.00    -0.271 N 
HETATM   23  C   UNL     1     -38.417 -52.527  14.146  1.00  0.00     0.164 C 
HETATM   24  C   UNL     1     -39.711 -51.029  12.750  1.00  0.00     0.331 A 
HETATM   25  O   UNL     1     -40.487 -51.946  12.470  1.00  0.00    -0.246 OA
ENDBRANCH  16  17
ENDBRANCH   2  16
TORSDOF 6
ENDMDL
MODEL 6
REMARK VINA RESULT:      -5.7      2.078      7.493
REMARK  6 active torsions:
REMARK  status: ('A' for Active; 'I' for Inactive)
REMARK    1  A    between atoms: C_2  and  C_3 
REMARK    2  A    between atoms: C_3  and  C_5 
REMARK    3  A    between atoms: C_3  and  N_19 
REMARK    4  A    between atoms: C_5  and  N_6 
REMARK       I    between atoms: N_6  and  C_7 
REMARK    5  A    between atoms: C_7  and  C_9 
REMARK    6  A    between atoms: C_9  and  N_10 
ROOT
HETATM    1  N   UNL     1     -43.339 -50.019  12.833  1.00  0.00    -0.357 N 
HETATM    2  C   UNL     1     -41.972 -49.832  12.820  1.00  0.00     0.236 C 
HETATM    3  O   UNL     1     -41.274 -49.888  13.834  1.00  0.00    -0.272 OA
HETATM    4  H   UNL     1     -43.836 -50.114  11.949  1.00  0.00     0.162 HD
ENDROOT
BRANCH   1   5
HETATM    5  C   UNL     1     -44.062 -50.313  14.066  1.00  0.00     0.164 C 
BRANCH   5   6
HETATM    6  C   UNL     1     -44.852 -51.681  14.090  1.00  0.00     0.171 C 
HETATM    7  C   UNL     1     -46.083 -51.494  13.158  1.00  0.00     0.051 C 
BRANCH   6   8
HETATM    8  C   UNL     1     -45.361 -51.935  15.542  1.00  0.00     0.038 C 
HETATM    9  C   UNL     1     -46.079 -50.802  16.270  1.00  0.00     0.007 C 
ENDBRANCH   6   8
BRANCH   6  10
HETATM   10  N   UNL     1     -44.026 -52.824  13.563  1.00  0.00     0.103 N 
HETATM   11  C   UNL     1     -44.740 -53.952  12.915  1.00  0.00     0.299 C 
HETATM   12  C   UNL     1     -45.208 -55.083  13.853  1.00  0.00     0.198 C 
HETATM   13  O   UNL     1     -44.129 -55.596  14.638  1.00  0.00    -0.388 OA
HETATM   14  C   UNL     1     -43.478 -54.554  15.373  1.00  0.00     0.198 C 
HETATM   15  C   UNL     1     -43.001 -53.410  14.454  1.00  0.00     0.299 C 
ENDBRANCH   6  10
ENDBRANCH   5   6
ENDBRANCH   1   5
BRANCH   2  16
HETATM   16  C   UNL     1     -41.340 -49.617  11.445  1.00  0.00     0.235 C 
BRANCH  16  17
HETATM   17  N   UNL     1     -41.187 -48.191  11.143  1.00  0.00    -0.301 N 
HETATM   18  C   UNL     1     -40.007 -47.553  11.449  1.00  0.00     0.102 A 
HETATM   19  C   UNL     1     -39.824 -46.258  11.193  1.00  0.00     0.092 A 
HETATM   20  C   UNL     1     -40.914 -45.480  10.584  1.00  0.00     0.252 A 
HETATM   21  O   UNL     1     -40.729 -44.287  10.352  1.00  0.00    -0.268 OA
HETATM   22  N   UNL     1     -42.081 -46.171  10.317  1.00  0.00    -0.271 N 
HETATM   23  C   UNL     1     -43.201 -45.452   9.744  1.00  0.00     0.164 C 
HETATM   24  C   UNL     1     -42.247 -47.539  10.521  1.00  0.00     0.331 A 
HETATM   25  O   UNL     1     -43.264 -48.143  10.174  1.00  0.00    -0.246 OA
ENDBRANCH  16  17
ENDBRANCH   2  16
TORSDOF 6
ENDMDL
MODEL 7
REMARK VINA RESULT:      -5.6      1.718      6.988
REMARK  6 active torsions:
REMARK  status: ('A' for Active; 'I' for Inactive)
REMARK    1  A    between atoms: C_2  and  C_3 
REMARK    2  A    between atoms: C_3  and  C_5 
REMARK    3  A    between atoms: C_3  and  N_19 
REMARK    4  A    between atoms: C_5  and  N_6 
REMARK       I    between atoms: N_6  and  C_7 
REMARK    5  A    between atoms: C_7  and  C_9 
REMARK    6  A    between atoms: C_9  and  N_10 
ROOT
HETATM    1  N   UNL     1     -41.703 -51.311  11.753  1.00  0.00    -0.357 N 
HETATM    2  C   UNL     1     -40.354 -51.184  12.014  1.00  0.00     0.236 C 
HETATM    3  O   UNL     1     -39.734 -51.955  12.749  1.00  0.00    -0.272 OA
HETATM    4  H   UNL     1     -42.123 -50.742  11.020  1.00  0.00     0.162 HD
ENDROOT
BRANCH   1   5
HETATM    5  C   UNL     1     -42.498 -52.390  12.330  1.00  0.00     0.164 C 
BRANCH   5   6
HETATM    6  C   UNL     1     -43.603 -51.949  13.370  1.00  0.00     0.171 C 
HETATM    7  C   UNL     1     -43.588 -50.394  13.393  1.00  0.00     0.051 C 
BRANCH   6   8
HETATM    8  C   UNL     1     -43.194 -52.472  14.781  1.00  0.00     0.038 C 
HETATM    9  C   UNL     1     -42.069 -53.499  14.878  1.00  0.00     0.007 C 
ENDBRANCH   6   8
BRANCH   6  10
HETATM   10  N   UNL     1     -44.980 -52.405  12.965  1.00  0.00     0.103 N 
HETATM   11  C   UNL     1     -46.117 -51.487  13.224  1.00  0.00     0.299 C 
HETATM   12  C   UNL     1     -46.783 -51.611  14.609  1.00  0.00     0.198 C 
HETATM   13  O   UNL     1     -47.189 -52.954  14.879  1.00  0.00    -0.388 OA
HETATM   14  C   UNL     1     -46.094 -53.866  14.751  1.00  0.00     0.198 C 
HETATM   15  C   UNL     1     -45.411 -53.760  13.372  1.00  0.00     0.299 C 
ENDBRANCH   6  10
ENDBRANCH   5   6
ENDBRANCH   1   5
BRANCH   2  16
HETATM   16  C   UNL     1     -39.632 -50.059  11.273  1.00  0.00     0.235 C 
BRANCH  16  17
HETATM   17  N   UNL     1     -39.901 -48.756  11.887  1.00  0.00    -0.301 N 
HETATM   18  C   UNL     1     -39.107 -48.315  12.921  1.00  0.00     0.102 A 
HETATM   19  C   UNL     1     -39.315 -47.136  13.510  1.00  0.00     0.092 A 
HETATM   20  C   UNL     1     -40.431 -46.290  13.060  1.00  0.00     0.252 A 
HETATM   21  O   UNL     1     -40.607 -45.206  13.611  1.00  0.00    -0.268 OA
HETATM   22  N   UNL     1     -41.203 -46.795  12.030  1.00  0.00    -0.271 N 
HETATM   23  C   UNL     1     -42.334 -46.020  11.564  1.00  0.00     0.164 C 
HETATM   24  C   UNL     1     -40.943 -47.994  11.370  1.00  0.00     0.331 A 
HETATM   25  O   UNL     1     -41.590 -48.364  10.388  1.00  0.00    -0.246 OA
ENDBRANCH  16  17
ENDBRANCH   2  16
TORSDOF 6
ENDMDL
MODEL 8
REMARK VINA RESULT:      -5.5      2.395      7.369
REMARK  6 active torsions:
REMARK  status: ('A' for Active; 'I' for Inactive)
REMARK    1  A    between atoms: C_2  and  C_3 
REMARK    2  A    between atoms: C_3  and  C_5 
REMARK    3  A    between atoms: C_3  and  N_19 
REMARK    4  A    between atoms: C_5  and  N_6 
REMARK       I    between atoms: N_6  and  C_7 
REMARK    5  A    between atoms: C_7  and  C_9 
REMARK    6  A    between atoms: C_9  and  N_10 
ROOT
HETATM    1  N   UNL     1     -42.496 -50.972  12.299  1.00  0.00    -0.357 N 
HETATM    2  C   UNL     1     -42.520 -49.600  12.447  1.00  0.00     0.236 C 
HETATM    3  O   UNL     1     -43.263 -49.021  13.241  1.00  0.00    -0.272 OA
HETATM    4  H   UNL     1     -41.757 -51.400  11.744  1.00  0.00     0.162 HD
ENDROOT
BRANCH   1   5
HETATM    5  C   UNL     1     -43.356 -51.845  13.092  1.00  0.00     0.164 C 
BRANCH   5   6
HETATM    6  C   UNL     1     -42.610 -52.873  14.033  1.00  0.00     0.171 C 
HETATM    7  C   UNL     1     -41.567 -52.051  14.842  1.00  0.00     0.051 C 
BRANCH   6   8
HETATM    8  C   UNL     1     -41.851 -53.902  13.141  1.00  0.00     0.038 C 
HETATM    9  C   UNL     1     -40.361 -54.121  13.390  1.00  0.00     0.007 C 
ENDBRANCH   6   8
BRANCH   6  10
HETATM   10  N   UNL     1     -43.549 -53.538  15.005  1.00  0.00     0.103 N 
HETATM   11  C   UNL     1     -43.998 -54.919  14.697  1.00  0.00     0.299 C 
HETATM   12  C   UNL     1     -45.261 -55.038  13.820  1.00  0.00     0.198 C 
HETATM   13  O   UNL     1     -46.353 -54.296  14.367  1.00  0.00    -0.388 OA
HETATM   14  C   UNL     1     -46.000 -52.926  14.577  1.00  0.00     0.198 C 
HETATM   15  C   UNL     1     -44.738 -52.781  15.453  1.00  0.00     0.299 C 
ENDBRANCH   6  10
ENDBRANCH   5   6
ENDBRANCH   1   5
BRANCH   2  16
HETATM   16  C   UNL     1     -41.504 -48.820  11.612  1.00  0.00     0.235 C 
BRANCH  16  17
HETATM   17  N   UNL     1     -42.126 -47.667  10.955  1.00  0.00    -0.301 N 
HETATM   18  C   UNL     1     -42.864 -47.853   9.809  1.00  0.00     0.102 A 
HETATM   19  C   UNL     1     -43.447 -46.834   9.178  1.00  0.00     0.092 A 
HETATM   20  C   UNL     1     -43.285 -45.469   9.705  1.00  0.00     0.252 A 
HETATM   21  O   UNL     1     -43.831 -44.541   9.113  1.00  0.00    -0.268 OA
HETATM   22  N   UNL     1     -42.517 -45.344  10.848  1.00  0.00    -0.271 N 
HETATM   23  C   UNL     1     -42.297 -44.022  11.397  1.00  0.00     0.164 C 
HETATM   24  C   UNL     1     -41.967 -46.417  11.545  1.00  0.00     0.331 A 
HETATM   25  O   UNL     1     -41.375 -46.278  12.617  1.00  0.00    -0.246 OA
ENDBRANCH  16  17
ENDBRANCH   2  16
TORSDOF 6
ENDMDL
MODEL 9
REMARK VINA RESULT:      -5.5      2.615      4.144
REMARK  6 active torsions:
REMARK  status: ('A' for Active; 'I' for Inactive)
REMARK    1  A    between atoms: C_2  and  C_3 
REMARK    2  A    between atoms: C_3  and  C_5 
REMARK    3  A    between atoms: C_3  and  N_19 
REMARK    4  A    between atoms: C_5  and  N_6 
REMARK       I    between atoms: N_6  and  C_7 
REMARK    5  A    between atoms: C_7  and  C_9 
REMARK    6  A    between atoms: C_9  and  N_10 
ROOT
HETATM    1  N   UNL     1     -42.686 -50.604  12.320  1.00  0.00    -0.357 N 
HETATM    2  C   UNL     1     -43.546 -51.509  12.908  1.00  0.00     0.236 C 
HETATM    3  O   UNL     1     -44.476 -51.174  13.644  1.00  0.00    -0.272 OA
HETATM    4  H   UNL     1     -42.038 -50.927  11.603  1.00  0.00     0.162 HD
ENDROOT
BRANCH   1   5
HETATM    5  C   UNL     1     -42.827 -49.166  12.524  1.00  0.00     0.164 C 
BRANCH   5   6
HETATM    6  C   UNL     1     -41.484 -48.333  12.501  1.00  0.00     0.171 C 
HETATM    7  C   UNL     1     -40.374 -49.275  13.046  1.00  0.00     0.051 C 
BRANCH   6   8
HETATM    8  C   UNL     1     -41.633 -47.124  13.474  1.00  0.00     0.038 C 
HETATM    9  C   UNL     1     -43.036 -46.616  13.794  1.00  0.00     0.007 C 
ENDBRANCH   6   8
BRANCH   6  10
HETATM   10  N   UNL     1     -41.104 -47.906  11.108  1.00  0.00     0.103 N 
HETATM   11  C   UNL     1     -40.314 -46.658  10.959  1.00  0.00     0.299 C 
HETATM   12  C   UNL     1     -41.128 -45.354  10.841  1.00  0.00     0.198 C 
HETATM   13  O   UNL     1     -42.094 -45.430   9.790  1.00  0.00    -0.388 OA
HETATM   14  C   UNL     1     -42.956 -46.561   9.955  1.00  0.00     0.198 C 
HETATM   15  C   UNL     1     -42.162 -47.879  10.075  1.00  0.00     0.299 C 
ENDBRANCH   6  10
ENDBRANCH   5   6
ENDBRANCH   1   5
BRANCH   2  16
HETATM   16  C   UNL     1     -43.330 -52.976  12.536  1.00  0.00     0.235 C 
BRANCH  16  17
HETATM   17  N   UNL     1     -42.505 -53.664  13.533  1.00  0.00    -0.301 N 
HETATM   18  C   UNL     1     -43.109 -54.323  14.578  1.00  0.00     0.102 A 
HETATM   19  C   UNL     1     -42.398 -54.963  15.508  1.00  0.00     0.092 A 
HETATM   20  C   UNL     1     -40.929 -54.951  15.429  1.00  0.00     0.252 A 
HETATM   21  O   UNL     1     -40.289 -55.547  16.292  1.00  0.00    -0.268 OA
HETATM   22  N   UNL     1     -40.381 -54.257  14.367  1.00  0.00    -0.271 N 
HETATM   23  C   UNL     1     -38.938 -54.184  14.253  1.00  0.00     0.164 C 
HETATM   24  C   UNL     1     -41.125 -53.648  13.359  1.00  0.00     0.331 A 
HETATM   25  O   UNL     1     -40.603 -53.127  12.372  1.00  0.00    -0.246 OA
ENDBRANCH  16  17
ENDBRANCH   2  16
TORSDOF 6
ENDMDL
