MODEL 1
REMARK VINA RESULT:      -6.8      0.000      0.000
REMARK  5 active torsions:
REMARK  status: ('A' for Active; 'I' for Inactive)
REMARK    1  A    between atoms: N_5  and  C_6 
REMARK    2  A    between atoms: C_6  and  C_7 
REMARK       I    between atoms: C_7  and  N_9 
REMARK    3  A    between atoms: N_9  and  C_10 
REMARK    4  A    between atoms: C_10  and  C_11 
REMARK    5  A    between atoms: C_11  and  C_12 
ROOT
HETATM    1  C   UNL     1     -45.857 -52.581  12.489  1.00  0.00     0.070 C 
HETATM    2  C   UNL     1     -44.498 -53.130  12.869  1.00  0.00     0.029 A 
HETATM    3  N   UNL     1     -43.492 -52.725  12.162  1.00  0.00    -0.299 N 
ATOM      4  HN  UNL     1     -43.627 -52.092  11.374  1.00  0.00     0.187 HD
HETATM    5  N   UNL     1     -42.243 -53.170  12.500  1.00  0.00    -0.247 N 
HETATM    6  C   UNL     1     -41.985 -54.052  13.540  1.00  0.00     0.283 A 
HETATM    7  O   UNL     1     -40.856 -54.437  13.834  1.00  0.00    -0.265 OA
HETATM    8  C   UNL     1     -43.166 -54.516  14.313  1.00  0.00     0.121 A 
HETATM    9  C   UNL     1     -42.923 -55.424  15.382  1.00  0.00     0.105 C 
HETATM   10  N   UNL     1     -42.800 -56.167  16.264  1.00  0.00    -0.191 NA
HETATM   11  C   UNL     1     -44.404 -54.080  14.011  1.00  0.00    -0.012 A 
HETATM   12  C   UNL     1     -45.667 -54.477  14.721  1.00  0.00     0.052 C 
ENDROOT
BRANCH   5  13
HETATM   13  C   UNL     1     -41.120 -52.591  11.766  1.00  0.00     0.255 C 
BRANCH  13  14
HETATM   14  C   UNL     1     -40.885 -51.114  12.061  1.00  0.00     0.237 C 
HETATM   15  O   UNL     1     -41.190 -50.625  13.149  1.00  0.00    -0.272 OA
HETATM   16  N   UNL     1     -40.475 -50.330  10.996  1.00  0.00    -0.359 N 
HETATM   17  H   UNL     1     -40.427 -50.757  10.077  1.00  0.00     0.162 HD
BRANCH  16  18
HETATM   18  C   UNL     1     -40.339 -48.899  11.188  1.00  0.00     0.127 C 
BRANCH  18  19
HETATM   19  C   UNL     1     -41.515 -48.065  10.674  1.00  0.00     0.053 C 
BRANCH  19  20
HETATM   20  C   UNL     1     -41.275 -46.568  10.825  1.00  0.00    -0.082 A 
HETATM   21  C   UNL     1     -40.038 -46.052  10.810  1.00  0.00    -0.024 A 
HETATM   22  C   UNL     1     -39.712 -44.603  10.959  1.00  0.00     0.027 A 
HETATM   23  C   UNL     1     -40.878 -43.634  11.120  1.00  0.00     0.004 A 
HETATM   24  C   UNL     1     -42.294 -44.197  11.138  1.00  0.00     0.005 A 
HETATM   25  C   UNL     1     -42.493 -45.706  11.007  1.00  0.00     0.034 A 
ENDBRANCH  19  20
ENDBRANCH  18  19
ENDBRANCH  16  18
ENDBRANCH  13  14
ENDBRANCH   5  13
TORSDOF 5
ENDMDL
MODEL 2
REMARK VINA RESULT:      -6.8      2.332      8.188
REMARK  5 active torsions:
REMARK  status: ('A' for Active; 'I' for Inactive)
REMARK    1  A    between atoms: N_5  and  C_6 
REMARK    2  A    between atoms: C_6  and  C_7 
REMARK       I    between atoms: C_7  and  N_9 
REMARK    3  A    between atoms: N_9  and  C_10 
REMARK    4  A    between atoms: C_10  and  C_11 
REMARK    5  A    between atoms: C_11  and  C_12 
ROOT
HETATM    1  C   UNL     1     -43.748 -47.885   7.919  1.00  0.00     0.070 C 
HETATM    2  C   UNL     1     -42.923 -47.514   9.133  1.00  0.00     0.029 A 
HETATM    3  N   UNL     1     -42.092 -48.409   9.563  1.00  0.00    -0.299 N 
ATOM      4  HN  UNL     1     -42.027 -49.322   9.114  1.00  0.00     0.187 HD
HETATM    5  N   UNL     1     -41.301 -48.096  10.635  1.00  0.00    -0.247 N 
HETATM    6  C   UNL     1     -41.352 -46.884  11.313  1.00  0.00     0.283 A 
HETATM    7  O   UNL     1     -40.631 -46.617  12.270  1.00  0.00    -0.265 OA
HETATM    8  C   UNL     1     -42.337 -45.893  10.807  1.00  0.00     0.121 A 
HETATM    9  C   UNL     1     -42.406 -44.646  11.491  1.00  0.00     0.105 C 
HETATM   10  N   UNL     1     -42.519 -43.611  12.001  1.00  0.00    -0.191 NA
HETATM   11  C   UNL     1     -43.113 -46.170   9.744  1.00  0.00    -0.012 A 
HETATM   12  C   UNL     1     -44.138 -45.249   9.146  1.00  0.00     0.052 C 
ENDROOT
BRANCH   5  13
HETATM   13  C   UNL     1     -40.285 -49.076  11.010  1.00  0.00     0.255 C 
BRANCH  13  14
HETATM   14  C   UNL     1     -40.821 -50.227  11.855  1.00  0.00     0.237 C 
HETATM   15  O   UNL     1     -41.966 -50.207  12.307  1.00  0.00    -0.272 OA
HETATM   16  N   UNL     1     -39.907 -51.201  12.220  1.00  0.00    -0.359 N 
HETATM   17  H   UNL     1     -38.932 -51.059  11.976  1.00  0.00     0.162 HD
BRANCH  16  18
HETATM   18  C   UNL     1     -40.331 -52.263  13.112  1.00  0.00     0.127 C 
BRANCH  18  19
HETATM   19  C   UNL     1     -40.995 -53.457  12.423  1.00  0.00     0.053 C 
BRANCH  19  20
HETATM   20  C   UNL     1     -42.279 -53.888  13.121  1.00  0.00    -0.082 A 
HETATM   21  C   UNL     1     -42.256 -54.574  14.272  1.00  0.00    -0.024 A 
HETATM   22  C   UNL     1     -43.463 -55.042  15.016  1.00  0.00     0.027 A 
HETATM   23  C   UNL     1     -44.827 -54.693  14.431  1.00  0.00     0.004 A 
HETATM   24  C   UNL     1     -44.879 -53.912  13.123  1.00  0.00     0.005 A 
HETATM   25  C   UNL     1     -43.570 -53.518  12.443  1.00  0.00     0.034 A 
ENDBRANCH  19  20
ENDBRANCH  18  19
ENDBRANCH  16  18
ENDBRANCH  13  14
ENDBRANCH   5  13
TORSDOF 5
ENDMDL
MODEL 3
REMARK VINA RESULT:      -6.7      2.042      7.909
REMARK  5 active torsions:
REMARK  status: ('A' for Active; 'I' for Inactive)
REMARK    1  A    between atoms: N_5  and  C_6 
REMARK    2  A    between atoms: C_6  and  C_7 
REMARK       I    between atoms: C_7  and  N_9 
REMARK    3  A    between atoms: N_9  and  C_10 
REMARK    4  A    between atoms: C_10  and  C_11 
REMARK    5  A    between atoms: C_11  and  C_12 
ROOT
HETATM    1  C   UNL     1     -44.323 -47.449   9.867  1.00  0.00     0.070 C 
HETATM    2  C   UNL     1     -42.940 -47.561  10.471  1.00  0.00     0.029 A 
HETATM    3  N   UNL     1     -42.525 -48.756  10.748  1.00  0.00    -0.299 N 
ATOM      4  HN  UNL     1     -43.122 -49.567  10.590  1.00  0.00     0.187 HD
HETATM    5  N   UNL     1     -41.264 -48.901  11.260  1.00  0.00    -0.247 N 
HETATM    6  C   UNL     1     -40.405 -47.843  11.527  1.00  0.00     0.283 A 
HETATM    7  O   UNL     1     -39.274 -47.991  11.980  1.00  0.00    -0.265 OA
HETATM    8  C   UNL     1     -40.925 -46.485  11.220  1.00  0.00     0.121 A 
HETATM    9  C   UNL     1     -40.061 -45.386  11.491  1.00  0.00     0.105 C 
HETATM   10  N   UNL     1     -39.413 -44.445  11.689  1.00  0.00    -0.191 NA
HETATM   11  C   UNL     1     -42.156 -46.317  10.701  1.00  0.00    -0.012 A 
HETATM   12  C   UNL     1     -42.783 -44.998  10.351  1.00  0.00     0.052 C 
ENDROOT
BRANCH   5  13
HETATM   13  C   UNL     1     -40.781 -50.268  11.437  1.00  0.00     0.255 C 
BRANCH  13  14
HETATM   14  C   UNL     1     -41.695 -51.140  12.292  1.00  0.00     0.237 C 
HETATM   15  O   UNL     1     -42.015 -50.801  13.431  1.00  0.00    -0.272 OA
HETATM   16  N   UNL     1     -42.004 -52.390  11.786  1.00  0.00    -0.359 N 
HETATM   17  H   UNL     1     -41.551 -52.685  10.926  1.00  0.00     0.162 HD
BRANCH  16  18
HETATM   18  C   UNL     1     -42.780 -53.306  12.600  1.00  0.00     0.127 C 
BRANCH  18  19
HETATM   19  C   UNL     1     -44.250 -53.442  12.196  1.00  0.00     0.053 C 
BRANCH  19  20
HETATM   20  C   UNL     1     -45.199 -53.095  13.335  1.00  0.00    -0.082 A 
HETATM   21  C   UNL     1     -45.516 -53.989  14.282  1.00  0.00    -0.024 A 
HETATM   22  C   UNL     1     -46.441 -53.737  15.425  1.00  0.00     0.027 A 
HETATM   23  C   UNL     1     -47.058 -52.347  15.536  1.00  0.00     0.004 A 
HETATM   24  C   UNL     1     -46.712 -51.311  14.472  1.00  0.00     0.005 A 
HETATM   25  C   UNL     1     -45.773 -51.705  13.333  1.00  0.00     0.034 A 
ENDBRANCH  19  20
ENDBRANCH  18  19
ENDBRANCH  16  18
ENDBRANCH  13  14
ENDBRANCH   5  13
TORSDOF 5
ENDMDL
MODEL 4
REMARK VINA RESULT:      -6.5      2.253      8.237
REMARK  5 active torsions:
REMARK  status: ('A' for Active; 'I' for Inactive)
REMARK    1  A    between atoms: N_5  and  C_6 
REMARK    2  A    between atoms: C_6  and  C_7 
REMARK       I    between atoms: C_7  and  N_9 
REMARK    3  A    between atoms: N_9  and  C_10 
REMARK    4  A    between atoms: C_10  and  C_11 
REMARK    5  A    between atoms: C_11  and  C_12 
ROOT
HETATM    1  C   UNL     1     -38.772 -46.332  13.977  1.00  0.00     0.070 C 
HETATM    2  C   UNL     1     -39.674 -46.785  12.848  1.00  0.00     0.029 A 
HETATM    3  N   UNL     1     -39.601 -48.034  12.516  1.00  0.00    -0.299 N 
ATOM      4  HN  UNL     1     -38.943 -48.661  12.978  1.00  0.00     0.187 HD
HETATM    5  N   UNL     1     -40.429 -48.490  11.526  1.00  0.00    -0.247 N 
HETATM    6  C   UNL     1     -41.329 -47.690  10.834  1.00  0.00     0.283 A 
HETATM    7  O   UNL     1     -42.070 -48.116   9.952  1.00  0.00    -0.265 OA
HETATM    8  C   UNL     1     -41.366 -46.257  11.225  1.00  0.00     0.121 A 
HETATM    9  C   UNL     1     -42.280 -45.420  10.525  1.00  0.00     0.105 C 
HETATM   10  N   UNL     1     -42.998 -44.679   9.994  1.00  0.00    -0.191 NA
HETATM   11  C   UNL     1     -40.574 -45.788  12.207  1.00  0.00    -0.012 A 
HETATM   12  C   UNL     1     -40.527 -44.366  12.688  1.00  0.00     0.052 C 
ENDROOT
BRANCH   5  13
HETATM   13  C   UNL     1     -40.413 -49.927  11.267  1.00  0.00     0.255 C 
BRANCH  13  14
HETATM   14  C   UNL     1     -41.287 -50.735  12.221  1.00  0.00     0.237 C 
HETATM   15  O   UNL     1     -41.417 -50.406  13.400  1.00  0.00    -0.272 OA
HETATM   16  N   UNL     1     -41.781 -51.934  11.737  1.00  0.00    -0.359 N 
HETATM   17  H   UNL     1     -41.478 -52.242  10.818  1.00  0.00     0.162 HD
BRANCH  16  18
HETATM   18  C   UNL     1     -42.528 -52.798  12.631  1.00  0.00     0.127 C 
BRANCH  18  19
HETATM   19  C   UNL     1     -43.916 -53.201  12.129  1.00  0.00     0.053 C 
BRANCH  19  20
HETATM   20  C   UNL     1     -45.001 -52.968  13.172  1.00  0.00    -0.082 A 
HETATM   21  C   UNL     1     -45.609 -53.989  13.792  1.00  0.00    -0.024 A 
HETATM   22  C   UNL     1     -46.685 -53.852  14.818  1.00  0.00     0.027 A 
HETATM   23  C   UNL     1     -47.110 -52.439  15.204  1.00  0.00     0.004 A 
HETATM   24  C   UNL     1     -46.432 -51.261  14.514  1.00  0.00     0.005 A 
HETATM   25  C   UNL     1     -45.365 -51.537  13.457  1.00  0.00     0.034 A 
ENDBRANCH  19  20
ENDBRANCH  18  19
ENDBRANCH  16  18
ENDBRANCH  13  14
ENDBRANCH   5  13
TORSDOF 5
ENDMDL
MODEL 5
REMARK VINA RESULT:      -6.4      1.579      2.309
REMARK  5 active torsions:
REMARK  status: ('A' for Active; 'I' for Inactive)
REMARK    1  A    between atoms: N_5  and  C_6 
REMARK    2  A    between atoms: C_6  and  C_7 
REMARK       I    between atoms: C_7  and  N_9 
REMARK    3  A    between atoms: N_9  and  C_10 
REMARK    4  A    between atoms: C_10  and  C_11 
REMARK    5  A    between atoms: C_11  and  C_12 
ROOT
HETATM    1  C   UNL     1     -45.726 -51.388  13.738  1.00  0.00     0.070 C 
HETATM    2  C   UNL     1     -44.487 -52.254  13.639  1.00  0.00     0.029 A 
HETATM    3  N   UNL     1     -43.620 -51.920  12.739  1.00  0.00    -0.299 N 
ATOM      4  HN  UNL     1     -43.789 -51.131  12.115  1.00  0.00     0.187 HD
HETATM    5  N   UNL     1     -42.469 -52.656  12.644  1.00  0.00    -0.247 N 
HETATM    6  C   UNL     1     -42.182 -53.758  13.439  1.00  0.00     0.283 A 
HETATM    7  O   UNL     1     -41.142 -54.404  13.346  1.00  0.00    -0.265 OA
HETATM    8  C   UNL     1     -43.213 -54.126  14.444  1.00  0.00     0.121 A 
HETATM    9  C   UNL     1     -42.939 -55.256  15.266  1.00  0.00     0.105 C 
HETATM   10  N   UNL     1     -42.784 -56.167  15.967  1.00  0.00    -0.191 NA
HETATM   11  C   UNL     1     -44.345 -53.409  14.567  1.00  0.00    -0.012 A 
HETATM   12  C   UNL     1     -45.452 -53.684  15.545  1.00  0.00     0.052 C 
ENDROOT
BRANCH   5  13
HETATM   13  C   UNL     1     -41.456 -52.173  11.708  1.00  0.00     0.255 C 
BRANCH  13  14
HETATM   14  C   UNL     1     -41.019 -50.734  11.961  1.00  0.00     0.237 C 
HETATM   15  O   UNL     1     -40.543 -50.394  13.044  1.00  0.00    -0.272 OA
HETATM   16  N   UNL     1     -41.338 -49.812  10.979  1.00  0.00    -0.359 N 
HETATM   17  H   UNL     1     -41.903 -50.123  10.195  1.00  0.00     0.162 HD
BRANCH  16  18
HETATM   18  C   UNL     1     -41.045 -48.411  11.209  1.00  0.00     0.127 C 
BRANCH  18  19
HETATM   19  C   UNL     1     -42.186 -47.607  11.838  1.00  0.00     0.053 C 
BRANCH  19  20
HETATM   20  C   UNL     1     -43.219 -47.166  10.810  1.00  0.00    -0.082 A 
HETATM   21  C   UNL     1     -44.335 -47.875  10.588  1.00  0.00    -0.024 A 
HETATM   22  C   UNL     1     -45.393 -47.521   9.596  1.00  0.00     0.027 A 
HETATM   23  C   UNL     1     -45.198 -46.242   8.789  1.00  0.00     0.004 A 
HETATM   24  C   UNL     1     -43.938 -45.418   9.024  1.00  0.00     0.005 A 
HETATM   25  C   UNL     1     -42.915 -45.905  10.048  1.00  0.00     0.034 A 
ENDBRANCH  19  20
ENDBRANCH  18  19
ENDBRANCH  16  18
ENDBRANCH  13  14
ENDBRANCH   5  13
TORSDOF 5
ENDMDL
MODEL 6
REMARK VINA RESULT:      -6.4      1.459      2.415
REMARK  5 active torsions:
REMARK  status: ('A' for Active; 'I' for Inactive)
REMARK    1  A    between atoms: N_5  and  C_6 
REMARK    2  A    between atoms: C_6  and  C_7 
REMARK       I    between atoms: C_7  and  N_9 
REMARK    3  A    between atoms: N_9  and  C_10 
REMARK    4  A    between atoms: C_10  and  C_11 
REMARK    5  A    between atoms: C_11  and  C_12 
ROOT
HETATM    1  C   UNL     1     -39.804 -54.793  15.663  1.00  0.00     0.070 C 
HETATM    2  C   UNL     1     -40.920 -54.353  14.740  1.00  0.00     0.029 A 
HETATM    3  N   UNL     1     -40.588 -53.571  13.763  1.00  0.00    -0.299 N 
ATOM      4  HN  UNL     1     -39.626 -53.252  13.652  1.00  0.00     0.187 HD
HETATM    5  N   UNL     1     -41.563 -53.183  12.885  1.00  0.00    -0.247 N 
HETATM    6  C   UNL     1     -42.897 -53.555  12.988  1.00  0.00     0.283 A 
HETATM    7  O   UNL     1     -43.759 -53.203  12.187  1.00  0.00    -0.265 OA
HETATM    8  C   UNL     1     -43.245 -54.432  14.136  1.00  0.00     0.121 A 
HETATM    9  C   UNL     1     -44.609 -54.821  14.261  1.00  0.00     0.105 C 
HETATM   10  N   UNL     1     -45.701 -55.174  14.427  1.00  0.00    -0.191 NA
HETATM   11  C   UNL     1     -42.302 -54.841  15.004  1.00  0.00    -0.012 A 
HETATM   12  C   UNL     1     -42.535 -55.726  16.195  1.00  0.00     0.052 C 
ENDROOT
BRANCH   5  13
HETATM   13  C   UNL     1     -41.130 -52.410  11.723  1.00  0.00     0.255 C 
BRANCH  13  14
HETATM   14  C   UNL     1     -40.837 -50.945  12.032  1.00  0.00     0.237 C 
HETATM   15  O   UNL     1     -40.792 -50.535  13.192  1.00  0.00    -0.272 OA
HETATM   16  N   UNL     1     -40.794 -50.084  10.949  1.00  0.00    -0.359 N 
HETATM   17  H   UNL     1     -41.032 -50.453  10.033  1.00  0.00     0.162 HD
BRANCH  16  18
HETATM   18  C   UNL     1     -40.627 -48.664  11.187  1.00  0.00     0.127 C 
BRANCH  18  19
HETATM   19  C   UNL     1     -41.611 -47.763  10.437  1.00  0.00     0.053 C 
BRANCH  19  20
HETATM   20  C   UNL     1     -41.372 -46.284  10.714  1.00  0.00    -0.082 A 
HETATM   21  C   UNL     1     -40.178 -45.714  10.497  1.00  0.00    -0.024 A 
HETATM   22  C   UNL     1     -39.855 -44.279  10.749  1.00  0.00     0.027 A 
HETATM   23  C   UNL     1     -40.976 -43.389  11.274  1.00  0.00     0.004 A 
HETATM   24  C   UNL     1     -42.343 -44.014  11.526  1.00  0.00     0.005 A 
HETATM   25  C   UNL     1     -42.537 -45.504  11.257  1.00  0.00     0.034 A 
ENDBRANCH  19  20
ENDBRANCH  18  19
ENDBRANCH  16  18
ENDBRANCH  13  14
ENDBRANCH   5  13
TORSDOF 5
ENDMDL
MODEL 7
REMARK VINA RESULT:      -6.2      3.344      6.852
REMARK  5 active torsions:
REMARK  status: ('A' for Active; 'I' for Inactive)
REMARK    1  A    between atoms: N_5  and  C_6 
REMARK    2  A    between atoms: C_6  and  C_7 
REMARK       I    between atoms: C_7  and  N_9 
REMARK    3  A    between atoms: N_9  and  C_10 
REMARK    4  A    between atoms: C_10  and  C_11 
REMARK    5  A    between atoms: C_11  and  C_12 
ROOT
HETATM    1  C   UNL     1     -38.795 -52.833  16.662  1.00  0.00     0.070 C 
HETATM    2  C   UNL     1     -39.288 -52.471  15.277  1.00  0.00     0.029 A 
HETATM    3  N   UNL     1     -40.013 -53.355  14.672  1.00  0.00    -0.299 N 
ATOM      4  HN  UNL     1     -40.210 -54.257  15.106  1.00  0.00     0.187 HD
HETATM    5  N   UNL     1     -40.509 -53.049  13.434  1.00  0.00    -0.247 N 
HETATM    6  C   UNL     1     -40.262 -51.854  12.770  1.00  0.00     0.283 A 
HETATM    7  O   UNL     1     -40.720 -51.592  11.661  1.00  0.00    -0.265 OA
HETATM    8  C   UNL     1     -39.404 -50.874  13.485  1.00  0.00     0.121 A 
HETATM    9  C   UNL     1     -39.135 -49.644  12.819  1.00  0.00     0.105 C 
HETATM   10  N   UNL     1     -38.873 -48.624  12.335  1.00  0.00    -0.191 NA
HETATM   11  C   UNL     1     -38.917 -51.145  14.710  1.00  0.00    -0.012 A 
HETATM   12  C   UNL     1     -38.045 -50.234  15.525  1.00  0.00     0.052 C 
ENDROOT
BRANCH   5  13
HETATM   13  C   UNL     1     -41.430 -54.014  12.838  1.00  0.00     0.255 C 
BRANCH  13  14
HETATM   14  C   UNL     1     -42.873 -53.860  13.306  1.00  0.00     0.237 C 
HETATM   15  O   UNL     1     -43.236 -54.288  14.402  1.00  0.00    -0.272 OA
HETATM   16  N   UNL     1     -43.774 -53.373  12.375  1.00  0.00    -0.359 N 
HETATM   17  H   UNL     1     -43.448 -53.220  11.426  1.00  0.00     0.162 HD
BRANCH  16  18
HETATM   18  C   UNL     1     -45.179 -53.306  12.726  1.00  0.00     0.127 C 
BRANCH  18  19
HETATM   19  C   UNL     1     -45.746 -51.890  12.857  1.00  0.00     0.053 C 
BRANCH  19  20
HETATM   20  C   UNL     1     -45.855 -51.440  14.308  1.00  0.00    -0.082 A 
HETATM   21  C   UNL     1     -46.974 -51.632  15.020  1.00  0.00    -0.024 A 
HETATM   22  C   UNL     1     -47.170 -51.217  16.440  1.00  0.00     0.027 A 
HETATM   23  C   UNL     1     -45.997 -50.540  17.141  1.00  0.00     0.004 A 
HETATM   24  C   UNL     1     -44.711 -50.312  16.353  1.00  0.00     0.005 A 
HETATM   25  C   UNL     1     -44.649 -50.758  14.894  1.00  0.00     0.034 A 
ENDBRANCH  19  20
ENDBRANCH  18  19
ENDBRANCH  16  18
ENDBRANCH  13  14
ENDBRANCH   5  13
TORSDOF 5
ENDMDL
MODEL 8
REMARK VINA RESULT:      -6.2      2.836      8.046
REMARK  5 active torsions:
REMARK  status: ('A' for Active; 'I' for Inactive)
REMARK    1  A    between atoms: N_5  and  C_6 
REMARK    2  A    between atoms: C_6  and  C_7 
REMARK       I    between atoms: C_7  and  N_9 
REMARK    3  A    between atoms: N_9  and  C_10 
REMARK    4  A    between atoms: C_10  and  C_11 
REMARK    5  A    between atoms: C_11  and  C_12 
ROOT
HETATM    1  C   UNL     1     -37.396 -50.475  14.386  1.00  0.00     0.070 C 
HETATM    2  C   UNL     1     -38.361 -49.489  13.762  1.00  0.00     0.029 A 
HETATM    3  N   UNL     1     -39.315 -49.989  13.044  1.00  0.00    -0.299 N 
ATOM      4  HN  UNL     1     -39.383 -50.995  12.891  1.00  0.00     0.187 HD
HETATM    5  N   UNL     1     -40.230 -49.131  12.496  1.00  0.00    -0.247 N 
HETATM    6  C   UNL     1     -40.187 -47.751  12.639  1.00  0.00     0.283 A 
HETATM    7  O   UNL     1     -41.019 -46.995  12.145  1.00  0.00    -0.265 OA
HETATM    8  C   UNL     1     -39.063 -47.211  13.448  1.00  0.00     0.121 A 
HETATM    9  C   UNL     1     -38.999 -45.797  13.602  1.00  0.00     0.105 C 
HETATM   10  N   UNL     1     -38.882 -44.656  13.767  1.00  0.00    -0.191 NA
HETATM   11  C   UNL     1     -38.160 -48.035  14.011  1.00  0.00    -0.012 A 
HETATM   12  C   UNL     1     -36.988 -47.606  14.848  1.00  0.00     0.052 C 
ENDROOT
BRANCH   5  13
HETATM   13  C   UNL     1     -41.365 -49.737  11.803  1.00  0.00     0.255 C 
BRANCH  13  14
HETATM   14  C   UNL     1     -42.044 -50.853  12.591  1.00  0.00     0.237 C 
HETATM   15  O   UNL     1     -42.241 -50.749  13.801  1.00  0.00    -0.272 OA
HETATM   16  N   UNL     1     -42.268 -52.038  11.911  1.00  0.00    -0.359 N 
HETATM   17  H   UNL     1     -41.906 -52.125  10.967  1.00  0.00     0.162 HD
BRANCH  16  18
HETATM   18  C   UNL     1     -42.811 -53.171  12.635  1.00  0.00     0.127 C 
BRANCH  18  19
HETATM   19  C   UNL     1     -44.278 -53.488  12.332  1.00  0.00     0.053 C 
BRANCH  19  20
HETATM   20  C   UNL     1     -45.213 -53.028  13.442  1.00  0.00    -0.082 A 
HETATM   21  C   UNL     1     -45.874 -51.864  13.364  1.00  0.00    -0.024 A 
HETATM   22  C   UNL     1     -46.801 -51.333  14.407  1.00  0.00     0.027 A 
HETATM   23  C   UNL     1     -47.028 -52.192  15.646  1.00  0.00     0.004 A 
HETATM   24  C   UNL     1     -46.289 -53.520  15.757  1.00  0.00     0.005 A 
HETATM   25  C   UNL     1     -45.343 -53.936  14.633  1.00  0.00     0.034 A 
ENDBRANCH  19  20
ENDBRANCH  18  19
ENDBRANCH  16  18
ENDBRANCH  13  14
ENDBRANCH   5  13
TORSDOF 5
ENDMDL
MODEL 9
REMARK VINA RESULT:      -6.1      1.841      2.566
REMARK  5 active torsions:
REMARK  status: ('A' for Active; 'I' for Inactive)
REMARK    1  A    between atoms: N_5  and  C_6 
REMARK    2  A    between atoms: C_6  and  C_7 
REMARK       I    between atoms: C_7  and  N_9 
REMARK    3  A    between atoms: N_9  and  C_10 
REMARK    4  A    between atoms: C_10  and  C_11 
REMARK    5  A    between atoms: C_11  and  C_12 
ROOT
HETATM    1  C   UNL     1     -43.984 -54.801  14.900  1.00  0.00     0.070 C 
HETATM    2  C   UNL     1     -42.559 -54.462  14.518  1.00  0.00     0.029 A 
HETATM    3  N   UNL     1     -42.402 -53.721  13.469  1.00  0.00    -0.299 N 
ATOM      4  HN  UNL     1     -43.205 -53.412  12.921  1.00  0.00     0.187 HD
HETATM    5  N   UNL     1     -41.130 -53.361  13.114  1.00  0.00    -0.247 N 
HETATM    6  C   UNL     1     -39.989 -53.764  13.795  1.00  0.00     0.283 A 
HETATM    7  O   UNL     1     -38.854 -53.428  13.467  1.00  0.00    -0.265 OA
HETATM    8  C   UNL     1     -40.206 -54.635  14.978  1.00  0.00     0.121 A 
HETATM    9  C   UNL     1     -39.047 -55.062  15.687  1.00  0.00     0.105 C 
HETATM   10  N   UNL     1     -38.149 -55.450  16.310  1.00  0.00    -0.191 NA
HETATM   11  C   UNL     1     -41.448 -54.989  15.357  1.00  0.00    -0.012 A 
HETATM   12  C   UNL     1     -41.788 -55.860  16.533  1.00  0.00     0.052 C 
ENDROOT
BRANCH   5  13
HETATM   13  C   UNL     1     -40.999 -52.419  12.005  1.00  0.00     0.255 C 
BRANCH  13  14
HETATM   14  C   UNL     1     -41.499 -51.015  12.327  1.00  0.00     0.237 C 
HETATM   15  O   UNL     1     -41.984 -50.747  13.427  1.00  0.00    -0.272 OA
HETATM   16  N   UNL     1     -41.532 -50.116  11.275  1.00  0.00    -0.359 N 
HETATM   17  H   UNL     1     -41.299 -50.455  10.347  1.00  0.00     0.162 HD
BRANCH  16  18
HETATM   18  C   UNL     1     -42.098 -48.799  11.493  1.00  0.00     0.127 C 
BRANCH  18  19
HETATM   19  C   UNL     1     -41.675 -47.737  10.475  1.00  0.00     0.053 C 
BRANCH  19  20
HETATM   20  C   UNL     1     -40.870 -46.611  11.111  1.00  0.00    -0.082 A 
HETATM   21  C   UNL     1     -40.765 -45.409  10.527  1.00  0.00    -0.024 A 
HETATM   22  C   UNL     1     -39.992 -44.255  11.075  1.00  0.00     0.027 A 
HETATM   23  C   UNL     1     -39.285 -44.454  12.411  1.00  0.00     0.004 A 
HETATM   24  C   UNL     1     -39.392 -45.813  13.095  1.00  0.00     0.005 A 
HETATM   25  C   UNL     1     -40.190 -46.923  12.415  1.00  0.00     0.034 A 
ENDBRANCH  19  20
ENDBRANCH  18  19
ENDBRANCH  16  18
ENDBRANCH  13  14
ENDBRANCH   5  13
TORSDOF 5
ENDMDL
