MODEL 1
REMARK VINA RESULT:      -6.1      0.000      0.000
REMARK  8 active torsions:
REMARK  status: ('A' for Active; 'I' for Inactive)
REMARK    1  A    between atoms: N_2  and  C_17 
REMARK    2  A    between atoms: C_3  and  N_9 
REMARK    3  A    between atoms: S_7  and  C_8 
REMARK    4  A    between atoms: C_8  and  C_11 
REMARK    5  A    between atoms: N_9  and  C_11 
REMARK    6  A    between atoms: C_16  and  C_17 
REMARK    7  A    between atoms: C_16  and  C_27 
REMARK    8  A    between atoms: C_27  and  O_29 
ROOT
HETATM    1  C   UNL     1     -41.792 -50.115  12.158  1.00  0.00     0.122 A 
HETATM    2  N   UNL     1     -41.876 -52.095  13.097  1.00  0.00    -0.326 N 
HETATM    3  C   UNL     1     -42.070 -48.722  12.077  1.00  0.00     0.135 A 
HETATM    4  C   UNL     1     -42.248 -50.793  13.282  1.00  0.00     0.140 A 
HETATM    5  N   UNL     1     -41.119 -51.003  11.328  1.00  0.00    -0.346 N 
ATOM      6  HN  UNL     1     -40.682 -50.794  10.431  1.00  0.00     0.167 HD
HETATM    7  C   UNL     1     -41.162 -52.165  11.936  1.00  0.00     0.185 A 
HETATM    8  N   UNL     1     -42.742 -48.197  13.146  1.00  0.00    -0.337 N 
ATOM      9  HN  UNL     1     -42.962 -47.201  13.162  1.00  0.00     0.168 HD
HETATM   10  N   UNL     1     -42.920 -50.293  14.328  1.00  0.00    -0.336 N 
ATOM     11  HN  UNL     1     -43.236 -50.839  15.129  1.00  0.00     0.168 HD
HETATM   12  C   UNL     1     -43.119 -48.978  14.179  1.00  0.00     0.183 A 
ENDROOT
BRANCH   3  13
HETATM   13  N   UNL     1     -41.753 -47.877  11.017  1.00  0.00    -0.364 N 
HETATM   14  C   UNL     1     -42.588 -47.872   9.817  1.00  0.00     0.152 C 
BRANCH  13  15
HETATM   15  C   UNL     1     -40.583 -46.959  11.029  1.00  0.00     0.099 C 
HETATM   16  C   UNL     1     -39.708 -47.000  12.288  1.00  0.00     0.034 C 
BRANCH  15  17
HETATM   17  C   UNL     1     -40.856 -45.556  10.446  1.00  0.00     0.126 C 
HETATM   18  C   UNL     1     -39.537 -44.848  10.084  1.00  0.00     0.028 C 
BRANCH  17  19
HETATM   19  S   UNL     1     -41.841 -44.416  11.431  1.00  0.00     0.146 S 
HETATM   20  O   UNL     1     -42.635 -43.573  10.556  1.00  0.00    -0.228 OA
HETATM   21  O   UNL     1     -42.515 -45.234  12.426  1.00  0.00    -0.228 OA
HETATM   22  C   UNL     1     -40.736 -43.385  12.361  1.00  0.00     0.161 C 
ENDBRANCH  17  19
ENDBRANCH  15  17
ENDBRANCH  13  15
ENDBRANCH   3  13
BRANCH   2  23
HETATM   23  C   UNL     1     -42.146 -53.199  14.004  1.00  0.00     0.147 C 
BRANCH  23  24
HETATM   24  C   UNL     1     -43.586 -53.716  13.946  1.00  0.00     0.040 C 
HETATM   25  C   UNL     1     -44.541 -53.275  15.077  1.00  0.00     0.183 C 
HETATM   26  O   UNL     1     -44.835 -54.662  15.400  1.00  0.00    -0.389 OA
HETATM   27  C   UNL     1     -43.687 -55.094  14.633  1.00  0.00     0.183 C 
BRANCH  24  28
HETATM   28  C   UNL     1     -44.186 -53.615  12.541  1.00  0.00     0.179 C 
BRANCH  28  29
HETATM   29  O   UNL     1     -45.593 -53.821  12.520  1.00  0.00    -0.400 OA
HETATM   30  H   UNL     1     -45.910 -53.987  13.425  1.00  0.00     0.209 HD
ENDBRANCH  28  29
ENDBRANCH  24  28
ENDBRANCH  23  24
ENDBRANCH   2  23
TORSDOF 8
ENDMDL
MODEL 2
REMARK VINA RESULT:      -6.1      1.885      3.054
REMARK  8 active torsions:
REMARK  status: ('A' for Active; 'I' for Inactive)
REMARK    1  A    between atoms: N_2  and  C_17 
REMARK    2  A    between atoms: C_3  and  N_9 
REMARK    3  A    between atoms: S_7  and  C_8 
REMARK    4  A    between atoms: C_8  and  C_11 
REMARK    5  A    between atoms: N_9  and  C_11 
REMARK    6  A    between atoms: C_16  and  C_17 
REMARK    7  A    between atoms: C_16  and  C_27 
REMARK    8  A    between atoms: C_27  and  O_29 
ROOT
HETATM    1  C   UNL     1     -41.110 -49.089  12.895  1.00  0.00     0.122 A 
HETATM    2  N   UNL     1     -42.260 -50.934  12.606  1.00  0.00    -0.326 N 
HETATM    3  C   UNL     1     -39.934 -48.289  12.840  1.00  0.00     0.135 A 
HETATM    4  C   UNL     1     -41.022 -50.389  12.414  1.00  0.00     0.140 A 
HETATM    5  N   UNL     1     -42.405 -48.850  13.336  1.00  0.00    -0.346 N 
ATOM      6  HN  UNL     1     -42.766 -47.988  13.745  1.00  0.00     0.167 HD
HETATM    7  C   UNL     1     -43.069 -49.961  13.118  1.00  0.00     0.185 A 
HETATM    8  N   UNL     1     -38.842 -48.895  12.284  1.00  0.00    -0.337 N 
ATOM      9  HN  UNL     1     -37.968 -48.376  12.198  1.00  0.00     0.168 HD
HETATM   10  N   UNL     1     -39.953 -50.998  11.881  1.00  0.00    -0.336 N 
ATOM     11  HN  UNL     1     -39.942 -51.962  11.546  1.00  0.00     0.168 HD
HETATM   12  C   UNL     1     -38.903 -50.170  11.848  1.00  0.00     0.183 A 
ENDROOT
BRANCH   3  13
HETATM   13  N   UNL     1     -39.797 -46.989  13.318  1.00  0.00    -0.364 N 
HETATM   14  C   UNL     1     -39.851 -46.735  14.757  1.00  0.00     0.152 C 
BRANCH  13  15
HETATM   15  C   UNL     1     -39.597 -45.813  12.432  1.00  0.00     0.099 C 
HETATM   16  C   UNL     1     -39.710 -44.437  13.102  1.00  0.00     0.034 C 
BRANCH  15  17
HETATM   17  C   UNL     1     -40.248 -45.935  11.037  1.00  0.00     0.126 C 
HETATM   18  C   UNL     1     -39.667 -44.888  10.068  1.00  0.00     0.028 C 
BRANCH  17  19
HETATM   19  S   UNL     1     -42.042 -45.842  10.938  1.00  0.00     0.146 S 
HETATM   20  O   UNL     1     -42.613 -45.950  12.269  1.00  0.00    -0.228 OA
HETATM   21  O   UNL     1     -42.334 -44.663  10.139  1.00  0.00    -0.228 OA
HETATM   22  C   UNL     1     -42.618 -47.208   9.962  1.00  0.00     0.161 C 
ENDBRANCH  17  19
ENDBRANCH  15  17
ENDBRANCH  13  15
ENDBRANCH   3  13
BRANCH   2  23
HETATM   23  C   UNL     1     -42.660 -52.291  12.274  1.00  0.00     0.147 C 
BRANCH  23  24
HETATM   24  C   UNL     1     -42.266 -53.332  13.324  1.00  0.00     0.040 C 
HETATM   25  C   UNL     1     -43.397 -54.198  13.920  1.00  0.00     0.183 C 
HETATM   26  O   UNL     1     -43.039 -53.781  15.267  1.00  0.00    -0.389 OA
HETATM   27  C   UNL     1     -42.250 -52.694  14.730  1.00  0.00     0.183 C 
BRANCH  24  28
HETATM   28  C   UNL     1     -41.015 -54.120  12.925  1.00  0.00     0.179 C 
BRANCH  28  29
HETATM   29  O   UNL     1     -40.536 -53.786  11.628  1.00  0.00    -0.400 OA
HETATM   30  H   UNL     1     -41.281 -53.504  11.071  1.00  0.00     0.209 HD
ENDBRANCH  28  29
ENDBRANCH  24  28
ENDBRANCH  23  24
ENDBRANCH   2  23
TORSDOF 8
ENDMDL
MODEL 3
REMARK VINA RESULT:      -5.9      3.308      4.185
REMARK  8 active torsions:
REMARK  status: ('A' for Active; 'I' for Inactive)
REMARK    1  A    between atoms: N_2  and  C_17 
REMARK    2  A    between atoms: C_3  and  N_9 
REMARK    3  A    between atoms: S_7  and  C_8 
REMARK    4  A    between atoms: C_8  and  C_11 
REMARK    5  A    between atoms: N_9  and  C_11 
REMARK    6  A    between atoms: C_16  and  C_17 
REMARK    7  A    between atoms: C_16  and  C_27 
REMARK    8  A    between atoms: C_27  and  O_29 
ROOT
HETATM    1  C   UNL     1     -42.201 -50.678  13.239  1.00  0.00     0.122 A 
HETATM    2  N   UNL     1     -43.441 -51.996  14.478  1.00  0.00    -0.326 N 
HETATM    3  C   UNL     1     -41.280 -50.396  12.191  1.00  0.00     0.135 A 
HETATM    4  C   UNL     1     -42.590 -52.001  13.409  1.00  0.00     0.140 A 
HETATM    5  N   UNL     1     -42.847 -49.886  14.179  1.00  0.00    -0.346 N 
ATOM      6  HN  UNL     1     -42.754 -48.878  14.301  1.00  0.00     0.167 HD
HETATM    7  C   UNL     1     -43.602 -50.702  14.878  1.00  0.00     0.185 A 
HETATM    8  N   UNL     1     -40.898 -51.475  11.443  1.00  0.00    -0.337 N 
ATOM      9  HN  UNL     1     -40.251 -51.345  10.665  1.00  0.00     0.168 HD
HETATM   10  N   UNL     1     -42.212 -53.069  12.691  1.00  0.00    -0.336 N 
ATOM     11  HN  UNL     1     -42.527 -54.024  12.862  1.00  0.00     0.168 HD
HETATM   12  C   UNL     1     -41.366 -52.710  11.718  1.00  0.00     0.183 A 
ENDROOT
BRANCH   3  13
HETATM   13  N   UNL     1     -40.725 -49.155  11.892  1.00  0.00    -0.364 N 
HETATM   14  C   UNL     1     -41.118 -48.460  10.667  1.00  0.00     0.152 C 
BRANCH  13  15
HETATM   15  C   UNL     1     -39.728 -48.478  12.762  1.00  0.00     0.099 C 
HETATM   16  C   UNL     1     -39.711 -46.946  12.701  1.00  0.00     0.034 C 
BRANCH  15  17
HETATM   17  C   UNL     1     -38.346 -49.164  12.818  1.00  0.00     0.126 C 
HETATM   18  C   UNL     1     -37.922 -49.655  11.420  1.00  0.00     0.028 C 
BRANCH  17  19
HETATM   19  S   UNL     1     -38.133 -50.529  13.970  1.00  0.00     0.146 S 
HETATM   20  O   UNL     1     -38.374 -51.788  13.288  1.00  0.00    -0.228 OA
HETATM   21  O   UNL     1     -36.847 -50.309  14.611  1.00  0.00    -0.228 OA
HETATM   22  C   UNL     1     -39.327 -50.352  15.271  1.00  0.00     0.161 C 
ENDBRANCH  17  19
ENDBRANCH  15  17
ENDBRANCH  13  15
ENDBRANCH   3  13
BRANCH   2  23
HETATM   23  C   UNL     1     -44.100 -53.158  15.053  1.00  0.00     0.147 C 
BRANCH  23  24
HETATM   24  C   UNL     1     -45.347 -53.609  14.289  1.00  0.00     0.040 C 
HETATM   25  C   UNL     1     -46.436 -54.355  15.091  1.00  0.00     0.183 C 
HETATM   26  O   UNL     1     -46.367 -55.485  14.177  1.00  0.00    -0.389 OA
HETATM   27  C   UNL     1     -45.112 -54.995  13.651  1.00  0.00     0.183 C 
BRANCH  24  28
HETATM   28  C   UNL     1     -45.887 -52.519  13.358  1.00  0.00     0.179 C 
BRANCH  28  29
HETATM   29  O   UNL     1     -46.385 -53.033  12.128  1.00  0.00    -0.400 OA
HETATM   30  H   UNL     1     -46.112 -53.962  12.032  1.00  0.00     0.209 HD
ENDBRANCH  28  29
ENDBRANCH  24  28
ENDBRANCH  23  24
ENDBRANCH   2  23
TORSDOF 8
ENDMDL
MODEL 4
REMARK VINA RESULT:      -5.9      2.367      3.440
REMARK  8 active torsions:
REMARK  status: ('A' for Active; 'I' for Inactive)
REMARK    1  A    between atoms: N_2  and  C_17 
REMARK    2  A    between atoms: C_3  and  N_9 
REMARK    3  A    between atoms: S_7  and  C_8 
REMARK    4  A    between atoms: C_8  and  C_11 
REMARK    5  A    between atoms: N_9  and  C_11 
REMARK    6  A    between atoms: C_16  and  C_17 
REMARK    7  A    between atoms: C_16  and  C_27 
REMARK    8  A    between atoms: C_27  and  O_29 
ROOT
HETATM    1  C   UNL     1     -40.254 -48.909  13.156  1.00  0.00     0.122 A 
HETATM    2  N   UNL     1     -40.619 -50.891  14.021  1.00  0.00    -0.326 N 
HETATM    3  C   UNL     1     -39.624 -47.995  12.265  1.00  0.00     0.135 A 
HETATM    4  C   UNL     1     -39.901 -50.249  13.052  1.00  0.00     0.140 A 
HETATM    5  N   UNL     1     -41.205 -48.762  14.158  1.00  0.00    -0.346 N 
ATOM      6  HN  UNL     1     -41.645 -47.895  14.465  1.00  0.00     0.167 HD
HETATM    7  C   UNL     1     -41.420 -49.968  14.627  1.00  0.00     0.185 A 
HETATM    8  N   UNL     1     -38.750 -48.555  11.376  1.00  0.00    -0.337 N 
ATOM      9  HN  UNL     1     -38.273 -47.961  10.697  1.00  0.00     0.168 HD
HETATM   10  N   UNL     1     -39.035 -50.807  12.194  1.00  0.00    -0.336 N 
ATOM     11  HN  UNL     1     -38.809 -51.802  12.163  1.00  0.00     0.168 HD
HETATM   12  C   UNL     1     -38.508 -49.882  11.383  1.00  0.00     0.183 A 
ENDROOT
BRANCH   3  13
HETATM   13  N   UNL     1     -39.794 -46.614  12.244  1.00  0.00    -0.364 N 
HETATM   14  C   UNL     1     -39.232 -45.796  13.318  1.00  0.00     0.152 C 
BRANCH  13  15
HETATM   15  C   UNL     1     -40.535 -45.902  11.170  1.00  0.00     0.099 C 
HETATM   16  C   UNL     1     -40.015 -44.505  10.805  1.00  0.00     0.034 C 
BRANCH  15  17
HETATM   17  C   UNL     1     -42.070 -46.051  11.234  1.00  0.00     0.126 C 
HETATM   18  C   UNL     1     -42.588 -45.766  12.657  1.00  0.00     0.028 C 
BRANCH  17  19
HETATM   19  S   UNL     1     -42.784 -47.609  10.689  1.00  0.00     0.146 S 
HETATM   20  O   UNL     1     -41.804 -48.357   9.924  1.00  0.00    -0.228 OA
HETATM   21  O   UNL     1     -43.365 -48.215  11.877  1.00  0.00    -0.228 OA
HETATM   22  C   UNL     1     -44.169 -47.251   9.638  1.00  0.00     0.161 C 
ENDBRANCH  17  19
ENDBRANCH  15  17
ENDBRANCH  13  15
ENDBRANCH   3  13
BRANCH   2  23
HETATM   23  C   UNL     1     -40.575 -52.314  14.317  1.00  0.00     0.147 C 
BRANCH  23  24
HETATM   24  C   UNL     1     -41.743 -53.110  13.728  1.00  0.00     0.040 C 
HETATM   25  C   UNL     1     -43.100 -53.018  14.458  1.00  0.00     0.183 C 
HETATM   26  O   UNL     1     -43.147 -54.465  14.600  1.00  0.00    -0.389 OA
HETATM   27  C   UNL     1     -41.739 -54.552  14.278  1.00  0.00     0.183 C 
BRANCH  24  28
HETATM   28  C   UNL     1     -41.836 -52.968  12.206  1.00  0.00     0.179 C 
BRANCH  28  29
HETATM   29  O   UNL     1     -40.636 -53.337  11.537  1.00  0.00    -0.400 OA
HETATM   30  H   UNL     1     -40.006 -53.703  12.181  1.00  0.00     0.209 HD
ENDBRANCH  28  29
ENDBRANCH  24  28
ENDBRANCH  23  24
ENDBRANCH   2  23
TORSDOF 8
ENDMDL
MODEL 5
REMARK VINA RESULT:      -5.9      2.898      4.225
REMARK  8 active torsions:
REMARK  status: ('A' for Active; 'I' for Inactive)
REMARK    1  A    between atoms: N_2  and  C_17 
REMARK    2  A    between atoms: C_3  and  N_9 
REMARK    3  A    between atoms: S_7  and  C_8 
REMARK    4  A    between atoms: C_8  and  C_11 
REMARK    5  A    between atoms: N_9  and  C_11 
REMARK    6  A    between atoms: C_16  and  C_17 
REMARK    7  A    between atoms: C_16  and  C_27 
REMARK    8  A    between atoms: C_27  and  O_29 
ROOT
HETATM    1  C   UNL     1     -41.014 -47.160  12.136  1.00  0.00     0.122 A 
HETATM    2  N   UNL     1     -41.210 -49.087  13.164  1.00  0.00    -0.326 N 
HETATM    3  C   UNL     1     -41.234 -46.250  11.065  1.00  0.00     0.135 A 
HETATM    4  C   UNL     1     -41.594 -48.419  12.036  1.00  0.00     0.140 A 
HETATM    5  N   UNL     1     -40.321 -47.069  13.337  1.00  0.00    -0.346 N 
ATOM      6  HN  UNL     1     -39.791 -46.269  13.681  1.00  0.00     0.167 HD
HETATM    7  C   UNL     1     -40.488 -48.225  13.936  1.00  0.00     0.185 A 
HETATM    8  N   UNL     1     -42.027 -46.719  10.054  1.00  0.00    -0.337 N 
ATOM      9  HN  UNL     1     -42.240 -46.115   9.260  1.00  0.00     0.168 HD
HETATM   10  N   UNL     1     -42.361 -48.894  11.045  1.00  0.00    -0.336 N 
ATOM     11  HN  UNL     1     -42.760 -49.832  11.019  1.00  0.00     0.168 HD
HETATM   12  C   UNL     1     -42.533 -47.969  10.093  1.00  0.00     0.183 A 
ENDROOT
BRANCH   3  13
HETATM   13  N   UNL     1     -40.699 -44.970  10.945  1.00  0.00    -0.364 N 
HETATM   14  C   UNL     1     -39.470 -44.766  10.180  1.00  0.00     0.152 C 
BRANCH  13  15
HETATM   15  C   UNL     1     -41.316 -43.769  11.567  1.00  0.00     0.099 C 
HETATM   16  C   UNL     1     -40.756 -42.415  11.115  1.00  0.00     0.034 C 
BRANCH  15  17
HETATM   17  C   UNL     1     -41.615 -43.903  13.075  1.00  0.00     0.126 C 
HETATM   18  C   UNL     1     -42.781 -42.983  13.486  1.00  0.00     0.028 C 
BRANCH  17  19
HETATM   19  S   UNL     1     -40.261 -43.624  14.227  1.00  0.00     0.146 S 
HETATM   20  O   UNL     1     -39.062 -44.282  13.742  1.00  0.00    -0.228 OA
HETATM   21  O   UNL     1     -40.233 -42.189  14.463  1.00  0.00    -0.228 OA
HETATM   22  C   UNL     1     -40.705 -44.334  15.792  1.00  0.00     0.161 C 
ENDBRANCH  17  19
ENDBRANCH  15  17
ENDBRANCH  13  15
ENDBRANCH   3  13
BRANCH   2  23
HETATM   23  C   UNL     1     -41.557 -50.457  13.506  1.00  0.00     0.147 C 
BRANCH  23  24
HETATM   24  C   UNL     1     -40.640 -51.509  12.876  1.00  0.00     0.040 C 
HETATM   25  C   UNL     1     -39.690 -52.275  13.822  1.00  0.00     0.183 C 
HETATM   26  O   UNL     1     -38.538 -51.865  13.034  1.00  0.00    -0.389 OA
HETATM   27  C   UNL     1     -39.335 -50.851  12.379  1.00  0.00     0.183 C 
BRANCH  24  28
HETATM   28  C   UNL     1     -41.376 -52.397  11.869  1.00  0.00     0.179 C 
BRANCH  28  29
HETATM   29  O   UNL     1     -40.531 -53.362  11.256  1.00  0.00    -0.400 OA
HETATM   30  H   UNL     1     -39.616 -53.229  11.557  1.00  0.00     0.209 HD
ENDBRANCH  28  29
ENDBRANCH  24  28
ENDBRANCH  23  24
ENDBRANCH   2  23
TORSDOF 8
ENDMDL
MODEL 6
REMARK VINA RESULT:      -5.8      1.993      2.796
REMARK  8 active torsions:
REMARK  status: ('A' for Active; 'I' for Inactive)
REMARK    1  A    between atoms: N_2  and  C_17 
REMARK    2  A    between atoms: C_3  and  N_9 
REMARK    3  A    between atoms: S_7  and  C_8 
REMARK    4  A    between atoms: C_8  and  C_11 
REMARK    5  A    between atoms: N_9  and  C_11 
REMARK    6  A    between atoms: C_16  and  C_17 
REMARK    7  A    between atoms: C_16  and  C_27 
REMARK    8  A    between atoms: C_27  and  O_29 
ROOT
HETATM    1  C   UNL     1     -41.910 -49.144  12.150  1.00  0.00     0.122 A 
HETATM    2  N   UNL     1     -42.174 -50.898  13.440  1.00  0.00    -0.326 N 
HETATM    3  C   UNL     1     -41.174 -48.289  11.283  1.00  0.00     0.135 A 
HETATM    4  C   UNL     1     -41.268 -50.281  12.624  1.00  0.00     0.140 A 
HETATM    5  N   UNL     1     -43.204 -49.105  12.652  1.00  0.00    -0.346 N 
ATOM      6  HN  UNL     1     -43.908 -48.387  12.483  1.00  0.00     0.167 HD
HETATM    7  C   UNL     1     -43.335 -50.183  13.390  1.00  0.00     0.185 A 
HETATM    8  N   UNL     1     -39.905 -48.708  10.989  1.00  0.00    -0.337 N 
ATOM      9  HN  UNL     1     -39.324 -48.152  10.361  1.00  0.00     0.168 HD
HETATM   10  N   UNL     1     -40.021 -50.694  12.355  1.00  0.00    -0.336 N 
ATOM     11  HN  UNL     1     -39.596 -51.540  12.735  1.00  0.00     0.168 HD
HETATM   12  C   UNL     1     -39.411 -49.846  11.519  1.00  0.00     0.183 A 
ENDROOT
BRANCH   3  13
HETATM   13  N   UNL     1     -41.610 -47.081  10.748  1.00  0.00    -0.364 N 
HETATM   14  C   UNL     1     -42.670 -47.074   9.740  1.00  0.00     0.152 C 
BRANCH  13  15
HETATM   15  C   UNL     1     -41.047 -45.764  11.145  1.00  0.00     0.099 C 
HETATM   16  C   UNL     1     -39.795 -45.310  10.384  1.00  0.00     0.034 C 
BRANCH  15  17
HETATM   17  C   UNL     1     -41.045 -45.493  12.665  1.00  0.00     0.126 C 
HETATM   18  C   UNL     1     -42.474 -45.568  13.236  1.00  0.00     0.028 C 
BRANCH  17  19
HETATM   19  S   UNL     1     -40.300 -43.961  13.242  1.00  0.00     0.146 S 
HETATM   20  O   UNL     1     -38.863 -44.128  13.359  1.00  0.00    -0.228 OA
HETATM   21  O   UNL     1     -40.821 -42.916  12.375  1.00  0.00    -0.228 OA
HETATM   22  C   UNL     1     -40.960 -43.590  14.848  1.00  0.00     0.161 C 
ENDBRANCH  17  19
ENDBRANCH  15  17
ENDBRANCH  13  15
ENDBRANCH   3  13
BRANCH   2  23
HETATM   23  C   UNL     1     -41.957 -52.127  14.186  1.00  0.00     0.147 C 
BRANCH  23  24
HETATM   24  C   UNL     1     -42.321 -53.397  13.415  1.00  0.00     0.040 C 
HETATM   25  C   UNL     1     -43.504 -53.309  12.426  1.00  0.00     0.183 C 
HETATM   26  O   UNL     1     -44.179 -54.407  13.101  1.00  0.00    -0.389 OA
HETATM   27  C   UNL     1     -43.300 -54.261  14.239  1.00  0.00     0.183 C 
BRANCH  24  28
HETATM   28  C   UNL     1     -41.089 -54.117  12.859  1.00  0.00     0.179 C 
BRANCH  28  29
HETATM   29  O   UNL     1     -40.623 -53.559  11.636  1.00  0.00    -0.400 OA
HETATM   30  H   UNL     1     -39.655 -53.466  11.670  1.00  0.00     0.209 HD
ENDBRANCH  28  29
ENDBRANCH  24  28
ENDBRANCH  23  24
ENDBRANCH   2  23
TORSDOF 8
ENDMDL
MODEL 7
REMARK VINA RESULT:      -5.8      2.369      3.319
REMARK  8 active torsions:
REMARK  status: ('A' for Active; 'I' for Inactive)
REMARK    1  A    between atoms: N_2  and  C_17 
REMARK    2  A    between atoms: C_3  and  N_9 
REMARK    3  A    between atoms: S_7  and  C_8 
REMARK    4  A    between atoms: C_8  and  C_11 
REMARK    5  A    between atoms: N_9  and  C_11 
REMARK    6  A    between atoms: C_16  and  C_17 
REMARK    7  A    between atoms: C_16  and  C_27 
REMARK    8  A    between atoms: C_27  and  O_29 
ROOT
HETATM    1  C   UNL     1     -39.905 -48.128  12.876  1.00  0.00     0.122 A 
HETATM    2  N   UNL     1     -39.953 -50.249  13.436  1.00  0.00    -0.326 N 
HETATM    3  C   UNL     1     -40.261 -46.758  13.013  1.00  0.00     0.135 A 
HETATM    4  C   UNL     1     -40.422 -49.020  13.808  1.00  0.00     0.140 A 
HETATM    5  N   UNL     1     -39.102 -48.819  11.978  1.00  0.00    -0.346 N 
ATOM      6  HN  UNL     1     -38.595 -48.431  11.182  1.00  0.00     0.167 HD
HETATM    7  C   UNL     1     -39.129 -50.073  12.363  1.00  0.00     0.185 A 
HETATM    8  N   UNL     1     -41.064 -46.468  14.082  1.00  0.00    -0.337 N 
ATOM      9  HN  UNL     1     -41.348 -45.502  14.251  1.00  0.00     0.168 HD
HETATM   10  N   UNL     1     -41.221 -48.750  14.850  1.00  0.00    -0.336 N 
ATOM     11  HN  UNL     1     -41.577 -49.447  15.504  1.00  0.00     0.168 HD
HETATM   12  C   UNL     1     -41.488 -47.440  14.915  1.00  0.00     0.183 A 
ENDROOT
BRANCH   3  13
HETATM   13  N   UNL     1     -39.898 -45.721  12.159  1.00  0.00    -0.364 N 
HETATM   14  C   UNL     1     -39.194 -44.555  12.690  1.00  0.00     0.152 C 
BRANCH  13  15
HETATM   15  C   UNL     1     -40.195 -45.724  10.703  1.00  0.00     0.099 C 
HETATM   16  C   UNL     1     -39.284 -44.854   9.827  1.00  0.00     0.034 C 
BRANCH  15  17
HETATM   17  C   UNL     1     -41.697 -45.692  10.348  1.00  0.00     0.126 C 
HETATM   18  C   UNL     1     -42.437 -44.638  11.195  1.00  0.00     0.028 C 
BRANCH  17  19
HETATM   19  S   UNL     1     -42.619 -47.233  10.460  1.00  0.00     0.146 S 
HETATM   20  O   UNL     1     -41.748 -48.349  10.139  1.00  0.00    -0.228 OA
HETATM   21  O   UNL     1     -43.282 -47.205  11.754  1.00  0.00    -0.228 OA
HETATM   22  C   UNL     1     -43.936 -47.183   9.271  1.00  0.00     0.161 C 
ENDBRANCH  17  19
ENDBRANCH  15  17
ENDBRANCH  13  15
ENDBRANCH   3  13
BRANCH   2  23
HETATM   23  C   UNL     1     -40.238 -51.510  14.100  1.00  0.00     0.147 C 
BRANCH  23  24
HETATM   24  C   UNL     1     -41.357 -52.322  13.443  1.00  0.00     0.040 C 
HETATM   25  C   UNL     1     -42.429 -51.538  12.654  1.00  0.00     0.183 C 
HETATM   26  O   UNL     1     -43.486 -52.121  13.467  1.00  0.00    -0.389 OA
HETATM   27  C   UNL     1     -42.510 -52.552  14.444  1.00  0.00     0.183 C 
BRANCH  24  28
HETATM   28  C   UNL     1     -40.830 -53.566  12.721  1.00  0.00     0.179 C 
BRANCH  28  29
HETATM   29  O   UNL     1     -40.576 -53.343  11.340  1.00  0.00    -0.400 OA
HETATM   30  H   UNL     1     -41.421 -53.256  10.865  1.00  0.00     0.209 HD
ENDBRANCH  28  29
ENDBRANCH  24  28
ENDBRANCH  23  24
ENDBRANCH   2  23
TORSDOF 8
ENDMDL
MODEL 8
REMARK VINA RESULT:      -5.8      4.052      7.418
REMARK  8 active torsions:
REMARK  status: ('A' for Active; 'I' for Inactive)
REMARK    1  A    between atoms: N_2  and  C_17 
REMARK    2  A    between atoms: C_3  and  N_9 
REMARK    3  A    between atoms: S_7  and  C_8 
REMARK    4  A    between atoms: C_8  and  C_11 
REMARK    5  A    between atoms: N_9  and  C_11 
REMARK    6  A    between atoms: C_16  and  C_17 
REMARK    7  A    between atoms: C_16  and  C_27 
REMARK    8  A    between atoms: C_27  and  O_29 
ROOT
HETATM    1  C   UNL     1     -42.643 -51.473  12.740  1.00  0.00     0.122 A 
HETATM    2  N   UNL     1     -40.772 -50.428  12.276  1.00  0.00    -0.326 N 
HETATM    3  C   UNL     1     -43.875 -51.651  13.429  1.00  0.00     0.135 A 
HETATM    4  C   UNL     1     -41.897 -50.341  13.045  1.00  0.00     0.140 A 
HETATM    5  N   UNL     1     -41.982 -52.208  11.765  1.00  0.00    -0.346 N 
ATOM      6  HN  UNL     1     -42.284 -53.089  11.348  1.00  0.00     0.167 HD
HETATM    7  C   UNL     1     -40.887 -51.538  11.491  1.00  0.00     0.185 A 
HETATM    8  N   UNL     1     -44.201 -50.656  14.309  1.00  0.00    -0.337 N 
ATOM      9  HN  UNL     1     -45.078 -50.710  14.828  1.00  0.00     0.168 HD
HETATM   10  N   UNL     1     -42.200 -49.367  13.916  1.00  0.00    -0.336 N 
ATOM     11  HN  UNL     1     -41.611 -48.556  14.106  1.00  0.00     0.168 HD
HETATM   12  C   UNL     1     -43.380 -49.604  14.501  1.00  0.00     0.183 A 
ENDROOT
BRANCH   3  13
HETATM   13  N   UNL     1     -44.738 -52.737  13.311  1.00  0.00    -0.364 N 
HETATM   14  C   UNL     1     -46.000 -52.587  12.587  1.00  0.00     0.152 C 
BRANCH  13  15
HETATM   15  C   UNL     1     -44.449 -54.073  13.895  1.00  0.00     0.099 C 
HETATM   16  C   UNL     1     -45.609 -55.076  13.887  1.00  0.00     0.034 C 
BRANCH  15  17
HETATM   17  C   UNL     1     -43.594 -54.046  15.180  1.00  0.00     0.126 C 
HETATM   18  C   UNL     1     -42.881 -55.395  15.391  1.00  0.00     0.028 C 
BRANCH  17  19
HETATM   19  S   UNL     1     -44.411 -53.607  16.722  1.00  0.00     0.146 S 
HETATM   20  O   UNL     1     -45.434 -52.609  16.468  1.00  0.00    -0.228 OA
HETATM   21  O   UNL     1     -44.791 -54.867  17.341  1.00  0.00    -0.228 OA
HETATM   22  C   UNL     1     -43.199 -52.910  17.816  1.00  0.00     0.161 C 
ENDBRANCH  17  19
ENDBRANCH  15  17
ENDBRANCH  13  15
ENDBRANCH   3  13
BRANCH   2  23
HETATM   23  C   UNL     1     -39.672 -49.477  12.257  1.00  0.00     0.147 C 
BRANCH  23  24
HETATM   24  C   UNL     1     -38.368 -50.019  12.847  1.00  0.00     0.040 C 
HETATM   25  C   UNL     1     -38.477 -50.902  14.110  1.00  0.00     0.183 C 
HETATM   26  O   UNL     1     -37.576 -50.018  14.833  1.00  0.00    -0.389 OA
HETATM   27  C   UNL     1     -37.757 -48.994  13.827  1.00  0.00     0.183 C 
BRANCH  24  28
HETATM   28  C   UNL     1     -37.427 -50.571  11.773  1.00  0.00     0.179 C 
BRANCH  28  29
HETATM   29  O   UNL     1     -36.771 -51.770  12.169  1.00  0.00    -0.400 OA
HETATM   30  H   UNL     1     -37.307 -52.536  11.902  1.00  0.00     0.209 HD
ENDBRANCH  28  29
ENDBRANCH  24  28
ENDBRANCH  23  24
ENDBRANCH   2  23
TORSDOF 8
ENDMDL
MODEL 9
REMARK VINA RESULT:      -5.8      2.695      7.471
REMARK  8 active torsions:
REMARK  status: ('A' for Active; 'I' for Inactive)
REMARK    1  A    between atoms: N_2  and  C_17 
REMARK    2  A    between atoms: C_3  and  N_9 
REMARK    3  A    between atoms: S_7  and  C_8 
REMARK    4  A    between atoms: C_8  and  C_11 
REMARK    5  A    between atoms: N_9  and  C_11 
REMARK    6  A    between atoms: C_16  and  C_17 
REMARK    7  A    between atoms: C_16  and  C_27 
REMARK    8  A    between atoms: C_27  and  O_29 
ROOT
HETATM    1  C   UNL     1     -41.235 -51.366  13.842  1.00  0.00     0.122 A 
HETATM    2  N   UNL     1     -40.243 -49.615  12.969  1.00  0.00    -0.326 N 
HETATM    3  C   UNL     1     -41.868 -52.639  13.791  1.00  0.00     0.135 A 
HETATM    4  C   UNL     1     -40.773 -50.832  12.645  1.00  0.00     0.140 A 
HETATM    5  N   UNL     1     -40.945 -50.486  14.877  1.00  0.00    -0.346 N 
ATOM      6  HN  UNL     1     -41.168 -50.605  15.865  1.00  0.00     0.167 HD
HETATM    7  C   UNL     1     -40.326 -49.471  14.323  1.00  0.00     0.185 A 
HETATM    8  N   UNL     1     -41.925 -53.213  12.551  1.00  0.00    -0.337 N 
ATOM      9  HN  UNL     1     -42.352 -54.133  12.442  1.00  0.00     0.168 HD
HETATM   10  N   UNL     1     -40.837 -51.379  11.423  1.00  0.00    -0.336 N 
ATOM     11  HN  UNL     1     -40.485 -50.940  10.572  1.00  0.00     0.168 HD
HETATM   12  C   UNL     1     -41.426 -52.580  11.470  1.00  0.00     0.183 A 
ENDROOT
BRANCH   3  13
HETATM   13  N   UNL     1     -42.445 -53.317  14.861  1.00  0.00    -0.364 N 
HETATM   14  C   UNL     1     -41.795 -54.512  15.399  1.00  0.00     0.152 C 
BRANCH  13  15
HETATM   15  C   UNL     1     -43.717 -52.893  15.502  1.00  0.00     0.099 C 
HETATM   16  C   UNL     1     -44.353 -53.901  16.468  1.00  0.00     0.034 C 
BRANCH  15  17
HETATM   17  C   UNL     1     -44.695 -52.148  14.569  1.00  0.00     0.126 C 
HETATM   18  C   UNL     1     -45.588 -51.182  15.372  1.00  0.00     0.028 C 
BRANCH  17  19
HETATM   19  S   UNL     1     -45.763 -53.137  13.512  1.00  0.00     0.146 S 
HETATM   20  O   UNL     1     -44.974 -54.136  12.815  1.00  0.00    -0.228 OA
HETATM   21  O   UNL     1     -46.865 -53.570  14.356  1.00  0.00    -0.228 OA
HETATM   22  C   UNL     1     -46.506 -52.063  12.309  1.00  0.00     0.161 C 
ENDBRANCH  17  19
ENDBRANCH  15  17
ENDBRANCH  13  15
ENDBRANCH   3  13
BRANCH   2  23
HETATM   23  C   UNL     1     -39.647 -48.667  12.041  1.00  0.00     0.147 C 
BRANCH  23  24
HETATM   24  C   UNL     1     -40.575 -47.518  11.641  1.00  0.00     0.040 C 
HETATM   25  C   UNL     1     -39.912 -46.215  11.145  1.00  0.00     0.183 C 
HETATM   26  O   UNL     1     -40.608 -45.446  12.165  1.00  0.00    -0.389 OA
HETATM   27  C   UNL     1     -40.930 -46.663  12.876  1.00  0.00     0.183 C 
BRANCH  24  28
HETATM   28  C   UNL     1     -41.753 -47.991  10.784  1.00  0.00     0.179 C 
BRANCH  28  29
HETATM   29  O   UNL     1     -41.364 -48.875   9.740  1.00  0.00    -0.400 OA
HETATM   30  H   UNL     1     -40.727 -48.426   9.156  1.00  0.00     0.209 HD
ENDBRANCH  28  29
ENDBRANCH  24  28
ENDBRANCH  23  24
ENDBRANCH   2  23
TORSDOF 8
ENDMDL
